@<TRIPOS>MOLECULE
tmp/5yv3A00.pdb
 113 108 0 0 0
SMALL
GASTEIGER

@<TRIPOS>ATOM
      1  N          1.6770  -10.6350  -68.1440 N.3     9  ASP9       -0.1225
      2  CA         0.4230   -9.9330  -67.8360 C.3     9  ASP9        0.1805
      3  C          0.2480   -8.7390  -68.7710 C.2     9  ASP9        0.2598
      4  O          1.0960   -7.8440  -68.7720 O.2     9  ASP9       -0.2718
      5  CB         0.4020   -9.4580  -66.3780 C.3     9  ASP9        0.1424
      6  CG        -0.9830   -8.9660  -65.9360 C.2     9  ASP9        0.3668
      7  OD1       -1.3970   -7.8930  -66.3810 O.co2   9  ASP9       -0.2456
      8  OD2       -1.6320   -9.6490  -65.1210 O.co2   9  ASP9       -0.2456
      9  N         -0.8620   -8.6830  -69.5220 N.am   10  MET10      -0.1965
     10  CA        -1.0660   -7.5900  -70.4760 C.3    10  MET10       0.1736
     11  C         -1.3980   -6.2980  -69.7340 C.2    10  MET10       0.2616
     12  O         -2.0470   -6.3200  -68.6860 O.2    10  MET10      -0.2715
     13  CB        -2.1890   -7.9220  -71.4690 C.3    10  MET10       0.0427
     14  CG        -1.9280   -9.1010  -72.3590 C.3    10  MET10       0.0599
     15  SD        -0.3870   -9.0550  -73.3090 S.3    10  MET10      -0.1393
     16  CE        -0.8420   -7.9010  -74.5690 C.3    10  MET10       0.0692
     17  N         -0.9090   -5.1600  -70.2630 N.am   11  ASP11      -0.1957
     18  CA        -1.1580   -3.8560  -69.6390 C.3    11  ASP11       0.1840
     19  C         -2.5170   -3.3090  -70.0930 C.2    11  ASP11       0.2622
     20  O         -2.7990   -3.2590  -71.2940 O.2    11  ASP11      -0.2715
     21  CB        -0.0640   -2.8300  -69.9740 C.3    11  ASP11       0.1450
     22  CG         1.3490   -3.2950  -69.5900 C.2    11  ASP11       0.3671
     23  OD1        1.5870   -3.7680  -68.4550 O.co2  11  ASP11      -0.2456
     24  OD2        2.2350   -3.1990  -70.4520 O.co2  11  ASP11      -0.2456
     25  N         -3.3270   -2.8630  -69.1270 N.am   12  CYS12      -0.1954
     26  CA        -4.6600   -2.2740  -69.3540 C.3    12  CYS12       0.1843
     27  C         -5.4300   -2.9990  -70.4530 C.2    12  CYS12       0.2625
     28  O         -5.9800   -2.3830  -71.3630 O.2    12  CYS12      -0.2714
     29  CB        -4.5430   -0.7770  -69.6600 C.3    12  CYS12       0.0997
     30  SG        -3.6840    0.1080  -68.3530 S.3    12  CYS12      -0.0797
     31  N         -5.4920   -4.3360  -70.3310 N.am   13  PHE13      -0.1960
     32  CA        -5.7080   -5.1980  -71.4910 C.3    13  PHE13       0.1771
     33  C         -6.8770   -4.7330  -72.3770 C.2    13  PHE13       0.2619
     34  O         -6.6880   -4.4350  -73.5700 O.2    13  PHE13      -0.2715
     35  CB        -5.9150   -6.6480  -71.0360 C.3    13  PHE13       0.0574
     36  CG        -6.1310   -7.6000  -72.1830 C.ar   13  PHE13      -0.0200
     37  CD1       -5.3290   -7.5250  -73.3160 C.ar   13  PHE13      -0.0042
     38  CD2       -7.1650   -8.5170  -72.1610 C.ar   13  PHE13      -0.0042
     39  CE1       -5.5340   -8.3740  -74.3930 C.ar   13  PHE13      -0.0003
     40  CE2       -7.3690   -9.3930  -73.2220 C.ar   13  PHE13      -0.0003
     41  CZ        -6.5720   -9.3150  -74.3470 C.ar   13  PHE13      -0.0000
     42  N         -8.1010   -4.6850  -71.8300 N.am   14  PHE14      -0.1974
     43  CA        -9.2360   -4.3250  -72.6900 C.3    14  PHE14       0.1639
     44  C         -9.0490   -2.9280  -73.2810 C.2    14  PHE14       0.2290
     45  O         -9.2780   -2.7030  -74.4800 O.2    14  PHE14      -0.2864
     46  CB       -10.5780   -4.3610  -71.9470 C.3    14  PHE14       0.0560
     47  CG       -11.0590   -5.7200  -71.5340 C.ar   14  PHE14      -0.0200
     48  CD1      -10.3100   -6.8660  -71.7300 C.ar   14  PHE14      -0.0042
     49  CD2      -12.3000   -5.8340  -70.8980 C.ar   14  PHE14      -0.0042
     50  CE1      -10.7800   -8.0810  -71.2780 C.ar   14  PHE14      -0.0003
     51  CE2      -12.7840   -7.0390  -70.4730 C.ar   14  PHE14      -0.0003
     52  CZ       -12.0330   -8.1700  -70.6480 C.ar   14  PHE14      -0.0000
     53  N        -12.0690   -2.0780  -66.8460 N.3    44  THR44      -0.1218
     54  CA       -10.7290   -1.5330  -66.7210 C.3    44  THR44       0.1862
     55  C        -10.7150   -0.1530  -67.3590 C.2    44  THR44       0.2287
     56  O        -11.6610    0.2560  -68.0380 O.2    44  THR44      -0.2866
     57  CB        -9.6880   -2.4490  -67.3650 C.3    44  THR44       0.1770
     58  OG1       -8.3730   -2.0030  -66.9990 O.3    44  THR44      -0.2211
     59  CG2       -9.8230   -2.4060  -68.8690 C.3    44  THR44       0.0375
     60  N         -4.5500    4.6300  -68.7350 N.3    47  TYR47      -0.1241
     61  CA        -3.7680    5.4030  -67.7680 C.3    47  TYR47       0.1605
     62  C         -4.2940    6.8470  -67.6700 C.2    47  TYR47       0.2264
     63  O         -4.3840    7.3880  -66.5600 O.2    47  TYR47      -0.2867
     64  CB        -2.2580    5.3480  -68.0970 C.3    47  TYR47       0.0534
     65  CG        -1.6400    4.1220  -67.4570 C.ar   47  TYR47      -0.0201
     66  CD1       -1.4480    4.0580  -66.0800 C.ar   47  TYR47      -0.0009
     67  CD2       -1.3310    2.9900  -68.2100 C.ar   47  TYR47      -0.0009
     68  CE1       -0.9550    2.8950  -65.4720 C.ar   47  TYR47       0.0417
     69  CE2       -0.8430    1.8530  -67.6190 C.ar   47  TYR47       0.0417
     70  CZ        -0.6530    1.8010  -66.2530 C.ar   47  TYR47       0.1957
     71  OH        -0.1390    0.6560  -65.6870 O.3    47  TYR47      -0.2866
     72  N         -7.0410    6.3360  -65.2080 N.3    50  ARG50      -0.1245
     73  CA        -6.5350    5.9480  -63.8860 C.3    50  ARG50       0.1563
     74  C         -5.9610    7.1440  -63.1320 C.2    50  ARG50       0.2260
     75  O         -5.9650    7.1710  -61.8900 O.2    50  ARG50      -0.2867
     76  CB        -5.4530    4.8640  -64.0130 C.3    50  ARG50       0.0307
     77  CG        -5.9310    3.6050  -64.6490 C.3    50  ARG50       0.0489
     78  CD        -4.8400    2.5080  -64.7010 C.3    50  ARG50       0.2205
     79  NE        -5.4890    1.3010  -65.2510 N.pl3  50  ARG50      -0.0865
     80  CZ        -4.9000    0.1130  -65.3930 C.cat  50  ARG50       0.5346
     81  NH1       -3.6330   -0.0650  -65.0050 N.pl3  50  ARG50       0.1354
     82  NH2       -5.5870   -0.8900  -65.8910 N.pl3  50  ARG50       0.1354
     83  N        -10.5750   -0.6870  -61.9500 N.3    56  SER56      -0.1217
     84  CA       -11.4050   -1.8820  -62.1300 C.3    56  SER56       0.1889
     85  C        -12.2800   -2.1190  -60.9130 C.2    56  SER56       0.2288
     86  O        -11.8240   -1.9670  -59.7800 O.2    56  SER56      -0.2866
     87  CB       -10.5200   -3.1160  -62.3540 C.3    56  SER56       0.2089
     88  OG        -9.8400   -3.0440  -63.5830 O.3    56  SER56      -0.2183
     89  N         -5.6470  -12.5090  -70.3160 N.3   104  ASP104     -0.1239
     90  CA        -4.4930  -11.6420  -70.5480 C.3   104  ASP104      0.1674
     91  C         -3.2420  -12.0380  -69.7630 C.2   104  ASP104      0.2266
     92  O         -2.3000  -11.2340  -69.6750 O.2   104  ASP104     -0.2867
     93  CB        -4.8750  -10.1760  -70.2610 C.3   104  ASP104      0.1410
     94  CG        -4.5560   -9.7180  -68.8230 C.2   104  ASP104      0.3668
     95  OD1       -4.7230  -10.5080  -67.8560 O.co2 104  ASP104     -0.2456
     96  OD2       -4.1250   -8.5450  -68.6650 O.co2 104  ASP104     -0.2456
     97  N          3.6620   -6.9660  -61.5420 N.3   155  ASP155     -0.1239
     98  CA         3.0190   -5.6910  -61.2730 C.3   155  ASP155      0.1674
     99  C          3.9930   -4.5660  -60.9770 C.2   155  ASP155      0.2266
    100  O          3.6000   -3.3910  -61.0420 O.2   155  ASP155     -0.2867
    101  CB         2.0830   -5.8280  -60.0820 C.3   155  ASP155      0.1410
    102  CG         0.7290   -6.2490  -60.4880 C.2   155  ASP155      0.3668
    103  OD1        0.4850   -6.3090  -61.7200 O.co2 155  ASP155     -0.2456
    104  OD2       -0.1090   -6.5020  -59.5900 O.co2 155  ASP155     -0.2456
    105  N          5.1330   -2.3700  -64.0320 N.3   158  LYS158     -0.1245
    106  CA         4.0450   -2.0620  -64.9560 C.3   158  LYS158      0.1561
    107  C          3.9310   -0.5650  -65.2150 C.2   158  LYS158      0.2260
    108  O          4.0490    0.2010  -64.2790 O.2   158  LYS158     -0.2867
    109  CB         2.7210   -2.5730  -64.3820 C.3   158  LYS158      0.0271
    110  CG         2.0510   -3.6750  -65.1550 C.3   158  LYS158      0.0035
    111  CD         0.8880   -4.2370  -64.3420 C.3   158  LYS158      0.0206
    112  CE        -0.0330   -3.1210  -63.8810 C.3   158  LYS158      0.1093
    113  NZ        -0.2680   -3.1300  -62.4080 N.3   158  LYS158     -0.1314
@<TRIPOS>BOND
     1    16    15    1
     2    45    44    2
     3    39    41   ar
     4    39    37   ar
     5    41    40   ar
     6    34    33    2
     7    37    36   ar
     8    15    14    1
     9    44    43    1
    10    40    38   ar
    11    43    46    1
    12    43    42    1
    13    33    42   am
    14    33    32    1
    15    14    13    1
    16    36    38   ar
    17    36    35    1
    18    46    47    1
    19    48    47   ar
    20    48    50   ar
    21    47    49   ar
    22    32    35    1
    23    32    31    1
    24    13    10    1
    25    28    27    2
    26    20    19    2
    27    50    52   ar
    28    49    51   ar
    29    52    51   ar
    30    90    89    1
    31    90    93    1
    32    90    91    1
    33    10    11    1
    34    10     9    1
    35    27    31   am
    36    27    26    1
    37    24    22   ar
    38    17    11   am
    39    17    18    1
    40    93    94    1
    41    19    18    1
    42    19    25   am
    43    21    18    1
    44    21    22    1
    45    91    92    2
    46    11    12    2
    47    29    26    1
    48    29    30    1
    49    22    23   ar
    50     9     3   am
    51    26    25    1
    52    59    57    1
    53    94    96   ar
    54    94    95   ar
    55     4     3    2
    56     3     2    1
    57    60    61    1
    58    67    69   ar
    59    67    65   ar
    60     1     2    1
    61    64    61    1
    62    64    65    1
    63    56    55    2
    64     2     5    1
    65    61    62    1
    66    62    63    2
    67    69    70   ar
    68    65    66   ar
    69    57    58    1
    70    57    54    1
    71    55    54    1
    72    53    54    1
    73     7     6   ar
    74     5     6    1
    75    70    71    1
    76    70    68   ar
    77    66    68   ar
    78     6     8   ar
    79    82    80    1
    80    80    79    2
    81    80    81    1
    82    79    78    1
    83   107   106    1
    84   107   108    2
    85    72    73    1
    86   110   109    1
    87   110   111    1
    88   106   109    1
    89   106   105    1
    90    78    77    1
    91    77    76    1
    92   111   112    1
    93    76    73    1
    94    73    74    1
    95   112   113    1
    96    88    87    1
    97    74    75    2
    98    87    84    1
    99    84    83    1
   100    84    85    1
   101   103   102   ar
   102    97    98    1
   103    98    99    1
   104    98   101    1
   105   100    99    2
   106    85    86    2
   107   102   101    1
   108   102   104   ar
