@<TRIPOS>MOLECULE
tmp/5yv8A00.pdb
 163 154 0 0 0
SMALL
GASTEIGER

@<TRIPOS>ATOM
      1  N         -6.5620   -1.3300   28.9650 N.3    12  ILE12      -0.1231
      2  CA        -5.7910   -1.1010   27.7510 C.3    12  ILE12       0.1692
      3  C         -6.0380   -2.1610   26.6860 C.2    12  ILE12       0.2592
      4  O         -5.6770   -1.9370   25.5160 O.2    12  ILE12      -0.2718
      5  CB        -4.2820   -1.0160   28.0610 C.3    12  ILE12       0.0266
      6  CG1       -3.8350   -2.2870   28.8050 C.3    12  ILE12       0.0019
      7  CG2       -3.9560    0.2660   28.8390 C.3    12  ILE12       0.0020
      8  CD1       -2.3360   -2.3440   29.0500 C.3    12  ILE12       0.0001
      9  N         -6.6200   -3.3010   27.0380 N.am   13  GLY13      -0.1957
     10  CA        -6.8990   -4.3530   26.0790 C.3    13  GLY13       0.1869
     11  C         -8.0580   -5.1670   26.6060 C.2    13  GLY13       0.2309
     12  O         -8.3880   -5.1130   27.7960 O.2    13  GLY13      -0.2863
     13  N        -10.9480  -13.5520   27.0680 N.3    17  TYR17      -0.1241
     14  CA       -10.3710  -13.8950   28.3640 C.3    17  TYR17       0.1605
     15  C        -10.9070  -13.0120   29.4850 C.2    17  TYR17       0.2264
     16  O        -11.0560  -13.4720   30.6220 O.2    17  TYR17      -0.2867
     17  CB        -8.8520  -13.7690   28.2850 C.3    17  TYR17       0.0534
     18  CG        -8.4210  -12.4530   27.6730 C.ar   17  TYR17      -0.0201
     19  CD1       -8.3220  -11.2980   28.4500 C.ar   17  TYR17      -0.0009
     20  CD2       -8.1380  -12.3560   26.3150 C.ar   17  TYR17      -0.0009
     21  CE1       -7.9540  -10.0970   27.8960 C.ar   17  TYR17       0.0417
     22  CE2       -7.7540  -11.1530   25.7540 C.ar   17  TYR17       0.0417
     23  CZ        -7.6610  -10.0280   26.5500 C.ar   17  TYR17       0.1957
     24  OH        -7.2850   -8.8250   25.9990 O.3    17  TYR17      -0.2866
     25  N         -7.3630   -6.5630   29.9700 N.3    20  VAL20      -0.1245
     26  CA        -5.9940   -6.2120   30.3260 C.3    20  VAL20       0.1561
     27  C         -6.0090   -4.7560   30.7600 C.2    20  VAL20       0.2260
     28  O         -6.5340   -3.8970   30.0400 O.2    20  VAL20      -0.2867
     29  CB        -5.0150   -6.4200   29.1560 C.3    20  VAL20       0.0252
     30  CG1       -3.6240   -5.9740   29.5550 C.3    20  VAL20       0.0019
     31  CG2       -4.9990   -7.8740   28.7110 C.3    20  VAL20       0.0019
     32  N          1.4560   -4.5930   32.2200 N.3    33  ALA33      -0.1245
     33  CA         0.1460   -4.9660   31.7050 C.3    33  ALA33       0.1562
     34  C         -0.4370   -6.0740   32.5720 C.2    33  ALA33       0.2260
     35  O          0.2170   -7.0960   32.8030 O.2    33  ALA33      -0.2867
     36  CB         0.2400   -5.4330   30.2510 C.3    33  ALA33       0.0290
     37  N         -3.4360   -8.7470   33.0110 N.3    35  LYS35      -0.1245
     38  CA        -4.5500   -9.4830   32.4350 C.3    35  LYS35       0.1561
     39  C         -5.3950  -10.0530   33.5680 C.2    35  LYS35       0.2260
     40  O         -4.8760  -10.7670   34.4330 O.2    35  LYS35      -0.2867
     41  CB        -4.0290  -10.5930   31.5240 C.3    35  LYS35       0.0271
     42  CG        -5.0700  -11.2810   30.6490 C.3    35  LYS35       0.0035
     43  CD        -4.3280  -12.2970   29.7690 C.3    35  LYS35       0.0206
     44  CE        -5.0390  -12.6340   28.4970 C.3    35  LYS35       0.1093
     45  NZ        -4.1230  -13.4490   27.6340 N.3    35  LYS35      -0.1314
     46  N         -2.1130  -21.7530   29.2570 N.3    48  GLU48      -0.1245
     47  CA        -1.5390  -20.5070   28.7670 C.3    48  GLU48       0.1567
     48  C         -0.3560  -20.0790   29.6300 C.2    48  GLU48       0.2260
     49  O          0.6930  -19.6800   29.1110 O.2    48  GLU48      -0.2867
     50  CB        -2.6080  -19.4100   28.7250 C.3    48  GLU48       0.0388
     51  CG        -2.0520  -18.0220   28.3910 C.3    48  GLU48       0.1160
     52  CD        -3.1090  -16.9150   28.4120 C.2    48  GLU48       0.3649
     53  OE1       -4.3080  -17.2150   28.5850 O.co2  48  GLU48      -0.2457
     54  OE2       -2.7350  -15.7380   28.2430 O.co2  48  GLU48      -0.2457
     55  N          3.5410  -19.7100   28.4870 N.3    52  LEU52      -0.1245
     56  CA         4.2140  -18.4180   28.5650 C.3    52  LEU52       0.1561
     57  C          5.5210  -18.5140   29.3440 C.2    52  LEU52       0.2260
     58  O          6.5020  -17.8420   29.0060 O.2    52  LEU52      -0.2867
     59  CB         3.2890  -17.3780   29.2040 C.3    52  LEU52       0.0270
     60  CG         2.1700  -16.8310   28.3030 C.3    52  LEU52       0.0019
     61  CD1        1.0850  -16.1950   29.1520 C.3    52  LEU52       0.0001
     62  CD2        2.7260  -15.8060   27.3030 C.3    52  LEU52       0.0001
     63  N          5.4180  -11.7510   23.8870 N.3    61  VAL61      -0.1245
     64  CA         5.1670  -11.0990   25.1830 C.3    61  VAL61       0.1561
     65  C          5.8910  -11.8510   26.2990 C.2    61  VAL61       0.2260
     66  O          6.2540  -13.0260   26.1670 O.2    61  VAL61      -0.2867
     67  CB         3.6650  -10.9870   25.5050 C.3    61  VAL61       0.0252
     68  CG1        2.9840  -10.0180   24.5320 C.3    61  VAL61       0.0019
     69  CG2        2.9800  -12.3640   25.5030 C.3    61  VAL61       0.0019
     70  N          2.1910   -8.9450   32.8130 N.3    79  PHE79      -0.1227
     71  CA         3.0930   -8.9480   31.6700 C.3    79  PHE79       0.1736
     72  C          3.9160   -7.6700   31.6500 C.2    79  PHE79       0.2595
     73  O          3.4760   -6.6240   32.1350 O.2    79  PHE79      -0.2718
     74  CB         2.3430   -9.0250   30.3370 C.3    79  PHE79       0.0547
     75  CG         1.5800  -10.2960   30.1160 C.ar   79  PHE79      -0.0202
     76  CD1        0.3010  -10.4540   30.6360 C.ar   79  PHE79      -0.0042
     77  CD2        2.1160  -11.3130   29.3420 C.ar   79  PHE79      -0.0042
     78  CE1       -0.4160  -11.6180   30.4040 C.ar   79  PHE79      -0.0003
     79  CE2        1.4010  -12.4880   29.1020 C.ar   79  PHE79      -0.0003
     80  CZ         0.1360  -12.6370   29.6320 C.ar   79  PHE79      -0.0000
     81  N          5.0970   -7.7470   31.0430 N.am   80  GLU80      -0.1965
     82  CA         5.8000   -6.5220   30.6810 C.3    80  GLU80       0.1733
     83  C          4.9460   -5.7630   29.6810 C.2    80  GLU80       0.2616
     84  O          4.4400   -6.3430   28.7230 O.2    80  GLU80      -0.2715
     85  CB         7.1730   -6.8260   30.0730 C.3    80  GLU80       0.0429
     86  CG         8.1410   -7.5130   31.0400 C.3    80  GLU80       0.1163
     87  CD         9.5300   -7.6860   30.4490 C.2    80  GLU80       0.3649
     88  OE1        9.6780   -7.6130   29.2070 O.co2  80  GLU80      -0.2457
     89  OE2       10.4770   -7.8960   31.2290 O.co2  80  GLU80      -0.2457
     90  N          4.7700   -4.4710   29.9160 N.am   81  LEU81      -0.1963
     91  CA         3.8790   -3.6760   29.0840 C.3    81  LEU81       0.1728
     92  C          4.4520   -3.5170   27.6770 C.2    81  LEU81       0.2616
     93  O          5.6320   -3.2130   27.5100 O.2    81  LEU81      -0.2715
     94  CB         3.6730   -2.3170   29.7510 C.3    81  LEU81       0.0311
     95  CG         2.8730   -1.2820   28.9810 C.3    81  LEU81       0.0022
     96  CD1        1.4130   -1.6990   28.9540 C.3    81  LEU81       0.0001
     97  CD2        3.0600    0.0930   29.6510 C.3    81  LEU81       0.0001
     98  N          3.6300   -3.7340   26.6570 N.am   82  VAL82      -0.1963
     99  CA         4.0380   -3.4770   25.2810 C.3    82  VAL82       0.1727
    100  C          3.3410   -2.1730   24.9030 C.2    82  VAL82       0.2616
    101  O          2.2020   -2.1650   24.4390 O.2    82  VAL82      -0.2715
    102  CB         3.6920   -4.6420   24.3560 C.3    82  VAL82       0.0290
    103  CG1        4.3700   -4.4630   23.0010 C.3    82  VAL82       0.0023
    104  CG2        4.1350   -5.9680   24.9930 C.3    82  VAL82       0.0023
    105  N          4.0560   -1.0510   25.0850 N.am   83  ASN83      -0.1972
    106  CA         3.3920    0.2170   25.3930 C.3    83  ASN83       0.1688
    107  C          2.5620    0.7650   24.2400 C.2    83  ASN83       0.2292
    108  O          1.5630    1.4520   24.4870 O.2    83  ASN83      -0.2864
    109  CB         4.4110    1.2680   25.8540 C.3    83  ASN83       0.1181
    110  CG         5.3140    1.7500   24.7310 C.2    83  ASN83       0.2629
    111  OD1        6.0810    0.9720   24.1720 O.2    83  ASN83      -0.2716
    112  ND2        5.2400    3.0430   24.4120 N.am   83  ASN83      -0.0877
    113  N          0.7260   -0.7950   22.0020 N.3    85  GLY85      -0.1210
    114  CA        -0.5200   -1.4770   21.7530 C.3    85  GLY85       0.1940
    115  C         -0.5800   -2.1360   20.3880 C.2    85  GLY85       0.2453
    116  O          0.4250   -2.2490   19.6750 O.2    85  GLY85      -0.2732
    117  N         -1.7760   -2.5770   19.9970 N.am   86  PRO86      -0.2728
    118  CA        -1.9100   -3.3710   18.7650 C.3    86  PRO86       0.1401
    119  C         -1.4460   -2.5920   17.5460 C.2    86  PRO86       0.2269
    120  O         -1.6750   -1.3840   17.4270 O.2    86  PRO86      -0.2865
    121  CB        -3.4160   -3.6670   18.6890 C.3    86  PRO86       0.0296
    122  CG        -3.9350   -3.4150   20.0360 C.3    86  PRO86       0.0237
    123  CD        -3.0670   -2.3710   20.6730 C.3    86  PRO86       0.0939
    124  N         -3.5060   -9.0100   18.0180 N.3   129  ASN129     -0.1240
    125  CA        -2.6330   -9.7440   18.9260 C.3   129  ASN129      0.1653
    126  C         -1.1660   -9.4890   18.6420 C.2   129  ASN129      0.2266
    127  O         -0.3050  -10.1930   19.1700 O.2   129  ASN129     -0.2867
    128  CB        -2.9400  -11.2480   18.8750 C.3   129  ASN129      0.1155
    129  CG        -4.1800  -11.5870   19.6580 C.2   129  ASN129      0.2627
    130  OD1       -4.6130  -10.7930   20.4950 O.2   129  ASN129     -0.2716
    131  ND2       -4.7700  -12.7450   19.3920 N.am  129  ASN129     -0.0877
    132  N          1.4860   -6.6600   19.2080 N.3   131  LEU131     -0.1245
    133  CA         1.6240   -5.4410   19.9920 C.3   131  LEU131      0.1561
    134  C          2.9530   -4.7800   19.6740 C.2   131  LEU131      0.2260
    135  O          3.9710   -5.4610   19.5340 O.2   131  LEU131     -0.2867
    136  CB         1.5430   -5.7560   21.4830 C.3   131  LEU131      0.0270
    137  CG         0.3340   -6.5740   21.9090 C.3   131  LEU131      0.0019
    138  CD1        0.4220   -6.8040   23.3960 C.3   131  LEU131      0.0001
    139  CD2       -0.9670   -5.8530   21.5220 C.3   131  LEU131      0.0001
    140  N          1.1770  -11.6710   21.1880 N.3   141  ALA141     -0.1231
    141  CA         0.4610  -11.7340   22.4530 C.3   141  ALA141      0.1694
    142  C         -0.6960  -12.7340   22.3990 C.2   141  ALA141      0.2592
    143  O         -1.0680  -13.2560   21.3420 O.2   141  ALA141     -0.2718
    144  CB        -0.0800  -10.3390   22.8380 C.3   141  ALA141      0.0304
    145  N         -1.2780  -12.9600   23.5770 N.am  142  ASP142     -0.1960
    146  CA        -2.4940  -13.7470   23.8050 C.3   142  ASP142      0.1840
    147  C         -2.3540  -15.2000   23.3800 C.2   142  ASP142      0.2622
    148  O         -2.8730  -15.6200   22.3400 O.2   142  ASP142     -0.2715
    149  CB        -3.7160  -13.1490   23.1100 C.3   142  ASP142      0.1450
    150  CG        -5.0320  -13.7170   23.6650 C.2   142  ASP142      0.3671
    151  OD1       -4.9830  -14.6300   24.5280 O.co2 142  ASP142     -0.2456
    152  OD2       -6.1160  -13.2530   23.2470 O.co2 142  ASP142     -0.2456
    153  N         -1.6970  -15.9810   24.2150 N.am  143  PHE143     -0.1974
    154  CA        -1.5650  -17.4180   24.0150 C.3   143  PHE143      0.1639
    155  C         -2.7240  -18.1980   24.6250 C.2   143  PHE143      0.2290
    156  O         -2.5680  -19.3840   24.9550 O.2   143  PHE143     -0.2864
    157  CB        -0.2190  -17.8720   24.5740 C.3   143  PHE143      0.0560
    158  CG         0.9490  -17.3690   23.7670 C.ar  143  PHE143     -0.0200
    159  CD1        1.2880  -16.0150   23.7710 C.ar  143  PHE143     -0.0042
    160  CD2        1.6900  -18.2400   22.9870 C.ar  143  PHE143     -0.0042
    161  CE1        2.3460  -15.5490   23.0060 C.ar  143  PHE143     -0.0003
    162  CE2        2.7530  -17.7940   22.2290 C.ar  143  PHE143     -0.0003
    163  CZ         3.0910  -16.4460   22.2340 C.ar  143  PHE143     -0.0000
@<TRIPOS>BOND
     1   120   119    2
     2   119   118    1
     3   124   125    1
     4   126   125    1
     5   126   127    2
     6   121   118    1
     7   121   122    1
     8   118   117    1
     9   128   125    1
    10   128   129    1
    11   132   133    1
    12   131   129   am
    13   135   134    2
    14   129   130    2
    15   134   133    1
    16   116   115    2
    17   133   136    1
    18   117   115   am
    19   117   123    1
    20   122   123    1
    21   115   114    1
    22   140   141    1
    23   143   142    2
    24   136   137    1
    25   139   137    1
    26   114   113    1
    27   137   138    1
    28   162   163   ar
    29   162   160   ar
    30   163   161   ar
    31   148   147    2
    32   142   141    1
    33   142   145   am
    34   141   144    1
    35   160   158   ar
    36   103   102    1
    37   161   159   ar
    38   149   150    1
    39   149   146    1
    40   152   150   ar
    41   147   146    1
    42   147   153   am
    43   145   146    1
    44   150   151   ar
    45   158   159   ar
    46   158   157    1
    47    63    64    1
    48   154   153    1
    49   154   157    1
    50   154   155    1
    51   111   110    2
    52   107   108    2
    53   107   106    1
    54   102   104    1
    55   102    99    1
    56   112   110   am
    57   101   100    2
    58    68    67    1
    59   155   156    2
    60   110   109    1
    61   100   105   am
    62   100    99    1
    63   105   106    1
    64    64    67    1
    65    64    65    1
    66    99    98    1
    67   106   109    1
    68    69    67    1
    69     4     3    2
    70    22    20   ar
    71    22    23   ar
    72    24    23    1
    73    10    11    1
    74    10     9    1
    75    66    65    2
    76    20    18   ar
    77    23    21   ar
    78    11    12    2
    79    98    92   am
    80     3     9   am
    81     3     2    1
    82    13    14    1
    83    62    60    1
    84    93    92    2
    85    45    44    1
    86    18    17    1
    87    18    19   ar
    88    92    91    1
    89     2     5    1
    90     2     1    1
    91    21    19   ar
    92     5     6    1
    93     5     7    1
    94    54    52   ar
    95    17    14    1
    96    60    61    1
    97    60    59    1
    98    14    15    1
    99    51    52    1
   100    51    50    1
   101    52    53   ar
   102    55    56    1
   103    44    43    1
   104    56    59    1
   105    56    57    1
   106    31    29    1
   107    84    83    2
   108    50    47    1
   109    47    46    1
   110    47    48    1
   111     6     8    1
   112    96    95    1
   113    95    97    1
   114    95    94    1
   115    58    57    2
   116    91    94    1
   117    91    90    1
   118    79    77   ar
   119    79    80   ar
   120    49    48    2
   121    29    30    1
   122    29    26    1
   123    88    87   ar
   124    77    75   ar
   125    15    16    2
   126    80    78   ar
   127    83    90   am
   128    83    82    1
   129    43    42    1
   130    25    26    1
   131    28    27    2
   132    85    82    1
   133    85    86    1
   134    75    74    1
   135    75    76   ar
   136    36    33    1
   137    26    27    1
   138    74    71    1
   139    78    76   ar
   140    87    86    1
   141    87    89   ar
   142    42    41    1
   143    82    81    1
   144    81    72   am
   145    41    38    1
   146    72    71    1
   147    72    73    2
   148    71    70    1
   149    33    32    1
   150    33    34    1
   151    38    37    1
   152    38    39    1
   153    34    35    2
   154    39    40    2
