@<TRIPOS>MOLECULE
tmp/5yv9A00.pdb
 178 170 0 0 0
SMALL
GASTEIGER

@<TRIPOS>ATOM
      1  N          7.2250   -1.1400  -28.7200 N.3    12  ILE12      -0.1231
      2  CA         6.5520   -0.9100  -27.4480 C.3    12  ILE12       0.1692
      3  C          6.9000   -1.9470  -26.3830 C.2    12  ILE12       0.2592
      4  O          6.7480   -1.6530  -25.1840 O.2    12  ILE12      -0.2718
      5  CB         5.0260   -0.8380  -27.6410 C.3    12  ILE12       0.0266
      6  CG1        4.4860   -2.1250  -28.2530 C.3    12  ILE12       0.0019
      7  CG2        4.6820    0.3380  -28.5300 C.3    12  ILE12       0.0020
      8  CD1        2.9900   -2.0770  -28.4670 C.3    12  ILE12       0.0001
      9  N          7.3680   -3.1370  -26.7640 N.am   13  GLY13      -0.1957
     10  CA         7.8360   -4.1430  -25.8330 C.3    13  GLY13       0.1869
     11  C          8.9940   -4.9070  -26.4440 C.2    13  GLY13       0.2309
     12  O          9.2710   -4.8140  -27.6440 O.2    13  GLY13      -0.2863
     13  N         11.8350  -13.3530  -27.0940 N.3    17  TYR17      -0.1241
     14  CA        11.1510  -13.7480  -28.3220 C.3    17  TYR17       0.1605
     15  C         11.5310  -12.8490  -29.5000 C.2    17  TYR17       0.2264
     16  O         11.4800  -13.2820  -30.6560 O.2    17  TYR17      -0.2867
     17  CB         9.6380  -13.7050  -28.0840 C.3    17  TYR17       0.0534
     18  CG         9.2420  -12.3610  -27.5540 C.ar   17  TYR17      -0.0201
     19  CD1        8.9350  -11.3270  -28.4240 C.ar   17  TYR17      -0.0009
     20  CD2        9.2500  -12.0990  -26.1950 C.ar   17  TYR17      -0.0009
     21  CE1        8.6280  -10.0810  -27.9640 C.ar   17  TYR17       0.0417
     22  CE2        8.9450  -10.8430  -25.7150 C.ar   17  TYR17       0.0417
     23  CZ         8.6290   -9.8380  -26.6120 C.ar   17  TYR17       0.1957
     24  OH         8.3090   -8.5790  -26.1760 O.3    17  TYR17      -0.2866
     25  N          7.8830   -6.3900  -29.6890 N.3    20  VAL20      -0.1245
     26  CA         6.5320   -5.9760  -30.0540 C.3    20  VAL20       0.1561
     27  C          6.5950   -4.5310  -30.5280 C.2    20  VAL20       0.2260
     28  O          7.1880   -3.6700  -29.8630 O.2    20  VAL20      -0.2867
     29  CB         5.5330   -6.1250  -28.8930 C.3    20  VAL20       0.0252
     30  CG1        4.1340   -5.6210  -29.3280 C.3    20  VAL20       0.0019
     31  CG2        5.4810   -7.5710  -28.4070 C.3    20  VAL20       0.0019
     32  N         -0.9180   -4.3780  -31.7790 N.3    33  ALA33      -0.1245
     33  CA         0.3860   -4.7840  -31.2680 C.3    33  ALA33       0.1562
     34  C          0.9550   -5.8860  -32.1600 C.2    33  ALA33       0.2260
     35  O          0.3380   -6.9440  -32.3230 O.2    33  ALA33      -0.2867
     36  CB         0.2790   -5.2660  -29.8240 C.3    33  ALA33       0.0290
     37  N          3.8270   -8.5730  -32.6780 N.3    35  LYS35      -0.1245
     38  CA         4.9090   -9.3930  -32.1370 C.3    35  LYS35       0.1561
     39  C          5.7710   -9.9180  -33.2800 C.2    35  LYS35       0.2260
     40  O          5.2830  -10.6810  -34.1200 O.2    35  LYS35      -0.2867
     41  CB         4.3450  -10.5680  -31.3370 C.3    35  LYS35       0.0271
     42  CG         5.3700  -11.2840  -30.4850 C.3    35  LYS35       0.0035
     43  CD         4.8380  -12.6020  -29.9350 C.3    35  LYS35       0.0206
     44  CE         5.8560  -13.2600  -28.9960 C.3    35  LYS35       0.1093
     45  NZ         5.2360  -14.3760  -28.2180 N.3    35  LYS35      -0.1314
     46  N          2.1320  -21.9220  -29.4730 N.3    48  GLU48      -0.1245
     47  CA         1.4660  -20.7840  -28.8550 C.3    48  GLU48       0.1567
     48  C          0.2980  -20.3030  -29.7070 C.2    48  GLU48       0.2260
     49  O         -0.7870  -20.0180  -29.1870 O.2    48  GLU48      -0.2867
     50  CB         2.4550  -19.6470  -28.6300 C.3    48  GLU48       0.0388
     51  CG         1.8230  -18.5690  -27.8180 C.3    48  GLU48       0.1160
     52  CD         2.4910  -17.2260  -27.9070 C.2    48  GLU48       0.3649
     53  OE1        3.4670  -17.0320  -28.6560 O.co2  48  GLU48      -0.2457
     54  OE2        2.0010  -16.3420  -27.1920 O.co2  48  GLU48      -0.2457
     55  N         -3.3810  -19.7810  -28.5340 N.3    52  LEU52      -0.1245
     56  CA        -3.9840  -18.4570  -28.6050 C.3    52  LEU52       0.1561
     57  C         -5.2800  -18.4820  -29.4030 C.2    52  LEU52       0.2260
     58  O         -6.2800  -17.8810  -28.9950 O.2    52  LEU52      -0.2867
     59  CB        -2.9860  -17.4760  -29.2080 C.3    52  LEU52       0.0270
     60  CG        -1.8700  -17.0780  -28.2420 C.3    52  LEU52       0.0019
     61  CD1       -0.8600  -16.1620  -28.9100 C.3    52  LEU52       0.0001
     62  CD2       -2.4700  -16.4010  -27.0250 C.3    52  LEU52       0.0001
     63  N         -5.2700  -11.7470  -23.8610 N.3    61  VAL61      -0.1245
     64  CA        -5.0210  -11.0330  -25.1220 C.3    61  VAL61       0.1561
     65  C         -5.6630  -11.7830  -26.2830 C.2    61  VAL61       0.2260
     66  O         -6.0190  -12.9620  -26.1880 O.2    61  VAL61      -0.2867
     67  CB        -3.5210  -10.8110  -25.3900 C.3    61  VAL61       0.0252
     68  CG1       -2.9360   -9.9420  -24.3410 C.3    61  VAL61       0.0019
     69  CG2       -2.7640  -12.1340  -25.4530 C.3    61  VAL61       0.0019
     70  N         -1.7000   -8.8570  -32.5440 N.3    79  PHE79      -0.1227
     71  CA        -2.5830   -8.8660  -31.3890 C.3    79  PHE79       0.1736
     72  C         -3.3790   -7.5720  -31.3360 C.2    79  PHE79       0.2595
     73  O         -2.9480   -6.5340  -31.8530 O.2    79  PHE79      -0.2718
     74  CB        -1.8040   -9.0040  -30.0840 C.3    79  PHE79       0.0547
     75  CG        -1.2350  -10.3650  -29.8470 C.ar   79  PHE79      -0.0202
     76  CD1        0.0310  -10.6950  -30.3170 C.ar   79  PHE79      -0.0042
     77  CD2       -1.9430  -11.3060  -29.1080 C.ar   79  PHE79      -0.0042
     78  CE1        0.5730  -11.9580  -30.0730 C.ar   79  PHE79      -0.0003
     79  CE2       -1.4210  -12.5700  -28.8620 C.ar   79  PHE79      -0.0003
     80  CZ        -0.1610  -12.8960  -29.3510 C.ar   79  PHE79      -0.0000
     81  N         -4.5480   -7.6460  -30.7050 N.am   80  GLU80      -0.1965
     82  CA        -5.2720   -6.4360  -30.3480 C.3    80  GLU80       0.1733
     83  C         -4.4470   -5.6340  -29.3590 C.2    80  GLU80       0.2616
     84  O         -3.9170   -6.1880  -28.3940 O.2    80  GLU80      -0.2715
     85  CB        -6.6260   -6.7820  -29.7370 C.3    80  GLU80       0.0429
     86  CG        -7.5790   -7.4630  -30.7030 C.3    80  GLU80       0.1163
     87  CD        -8.9910   -7.5630  -30.1510 C.2    80  GLU80       0.3649
     88  OE1       -9.1320   -7.5920  -28.9060 O.co2  80  GLU80      -0.2457
     89  OE2       -9.9530   -7.5970  -30.9580 O.co2  80  GLU80      -0.2457
     90  N         -4.3240   -4.3320  -29.6140 N.am   81  LEU81      -0.1963
     91  CA        -3.5170   -3.4510  -28.7800 C.3    81  LEU81       0.1728
     92  C         -4.1510   -3.2810  -27.4040 C.2    81  LEU81       0.2616
     93  O         -5.3080   -2.8730  -27.2890 O.2    81  LEU81      -0.2715
     94  CB        -3.3670   -2.0970  -29.4600 C.3    81  LEU81       0.0311
     95  CG        -2.4580   -1.1260  -28.7160 C.3    81  LEU81       0.0022
     96  CD1       -1.0390   -1.6630  -28.7450 C.3    81  LEU81       0.0001
     97  CD2       -2.5320    0.2600  -29.3240 C.3    81  LEU81       0.0001
     98  N         -3.3990   -3.5880  -26.3560 N.am   82  VAL82      -0.1963
     99  CA        -3.8110   -3.3060  -24.9880 C.3    82  VAL82       0.1727
    100  C         -3.0500   -2.0510  -24.5700 C.2    82  VAL82       0.2616
    101  O         -1.8960   -2.1170  -24.1350 O.2    82  VAL82      -0.2715
    102  CB        -3.5560   -4.4970  -24.0660 C.3    82  VAL82       0.0290
    103  CG1       -4.4020   -4.3750  -22.7860 C.3    82  VAL82       0.0023
    104  CG2       -3.8960   -5.7840  -24.8140 C.3    82  VAL82       0.0023
    105  N         -3.7290   -0.9030  -24.6760 N.am   83  ASN83      -0.1958
    106  CA        -3.0890    0.3540  -25.0440 C.3    83  ASN83       0.1819
    107  C         -2.2900    1.0180  -23.9290 C.2    83  ASN83       0.2621
    108  O         -1.4850    1.9070  -24.2140 O.2    83  ASN83      -0.2715
    109  CB        -4.1490    1.3270  -25.5700 C.3    83  ASN83       0.1195
    110  CG        -5.1010    1.7980  -24.4940 C.2    83  ASN83       0.2630
    111  OD1       -5.8840    1.0160  -23.9670 O.2    83  ASN83      -0.2716
    112  ND2       -5.0380    3.0780  -24.1610 N.am   83  ASN83      -0.0877
    113  N         -2.4950    0.6380  -22.6760 N.am   84  GLN84      -0.1963
    114  CA        -1.7810    1.2670  -21.5740 C.3    84  GLN84       0.1733
    115  C         -0.5520    0.4820  -21.1290 C.2    84  GLN84       0.2617
    116  O          0.2020    0.9700  -20.2830 O.2    84  GLN84      -0.2715
    117  CB        -2.7310    1.4810  -20.3880 C.3    84  GLN84       0.0408
    118  CG        -4.0600    2.1290  -20.8050 C.3    84  GLN84       0.0908
    119  CD        -4.8590    2.6490  -19.6260 C.2    84  GLN84       0.2608
    120  OE1       -4.3520    3.4170  -18.8080 O.2    84  GLN84      -0.2717
    121  NE2       -6.1150    2.2220  -19.5290 N.am   84  GLN84      -0.0878
    122  N         -0.3340   -0.7150  -21.6640 N.am   85  GLY85      -0.1941
    123  CA         0.8870   -1.4370  -21.4190 C.3    85  GLY85       0.1998
    124  C          0.9140   -2.1640  -20.0920 C.2    85  GLY85       0.2480
    125  O         -0.1000   -2.2990  -19.3930 O.2    85  GLY85      -0.2729
    126  N          2.0990   -2.6530  -19.7280 N.am   86  PRO86      -0.2726
    127  CA         2.2170   -3.4830  -18.5280 C.3    86  PRO86       0.1402
    128  C          1.7930   -2.7130  -17.2980 C.2    86  PRO86       0.2269
    129  O          1.9150   -1.4900  -17.2230 O.2    86  PRO86      -0.2865
    130  CB         3.7060   -3.8400  -18.4730 C.3    86  PRO86       0.0296
    131  CG         4.2150   -3.5680  -19.8510 C.3    86  PRO86       0.0237
    132  CD         3.3780   -2.4950  -20.4350 C.3    86  PRO86       0.0939
    133  N          4.7500   -7.8850  -15.7010 N.3   128  SER128     -0.1202
    134  CA         5.0130   -7.2670  -16.9930 C.3   128  SER128      0.2020
    135  C          4.3060   -7.9840  -18.1400 C.2   128  SER128      0.2618
    136  O          4.2580   -7.4450  -19.2540 O.2   128  SER128     -0.2717
    137  CB         6.5260   -7.1530  -17.2460 C.3   128  SER128      0.2103
    138  OG         7.1640   -8.3960  -17.1180 O.3   128  SER128     -0.2182
    139  N          3.7150   -9.1440  -17.8790 N.am  129  ASN129     -0.1974
    140  CA         2.8420   -9.8160  -18.8300 C.3   129  ASN129      0.1688
    141  C          1.3560   -9.5220  -18.5830 C.2   129  ASN129      0.2292
    142  O          0.4900  -10.1080  -19.2510 O.2   129  ASN129     -0.2864
    143  CB         3.0970  -11.3260  -18.8060 C.3   129  ASN129      0.1181
    144  CG         4.4280  -11.7040  -19.4070 C.2   129  ASN129      0.2629
    145  OD1        5.0220  -10.9410  -20.1570 O.2   129  ASN129     -0.2716
    146  ND2        4.9000  -12.8960  -19.0840 N.am  129  ASN129     -0.0877
    147  N         -1.1760   -6.8250  -19.1810 N.3   131  LEU131     -0.1245
    148  CA        -1.3580   -5.5930  -19.9340 C.3   131  LEU131      0.1561
    149  C         -2.6540   -4.9020  -19.5420 C.2   131  LEU131      0.2260
    150  O         -3.6900   -5.5560  -19.3910 O.2   131  LEU131     -0.2867
    151  CB        -1.3510   -5.8940  -21.4280 C.3   131  LEU131      0.0270
    152  CG        -0.0780   -6.6040  -21.8710 C.3   131  LEU131      0.0019
    153  CD1       -0.1350   -6.8530  -23.3600 C.3   131  LEU131      0.0001
    154  CD2        1.1630   -5.7670  -21.4870 C.3   131  LEU131      0.0001
    155  N         -1.0530  -11.6940  -21.1520 N.3   141  ALA141     -0.1231
    156  CA        -0.2740  -11.8030  -22.3770 C.3   141  ALA141      0.1694
    157  C          0.9000  -12.7810  -22.2090 C.2   141  ALA141      0.2592
    158  O          1.1940  -13.2690  -21.1140 O.2   141  ALA141     -0.2718
    159  CB         0.2360  -10.4220  -22.7920 C.3   141  ALA141      0.0304
    160  N          1.5960  -13.0210  -23.3340 N.am  142  ASP142     -0.1960
    161  CA         2.7740  -13.8800  -23.4920 C.3   142  ASP142      0.1840
    162  C          2.4490  -15.3190  -23.1460 C.2   142  ASP142      0.2622
    163  O          2.7190  -15.7710  -22.0330 O.2   142  ASP142     -0.2715
    164  CB         3.9630  -13.3990  -22.6590 C.3   142  ASP142      0.1450
    165  CG         5.3000  -13.9930  -23.1390 C.2   142  ASP142      0.3671
    166  OD1        5.2900  -15.0510  -23.8060 O.co2 142  ASP142     -0.2456
    167  OD2        6.3720  -13.4010  -22.8600 O.co2 142  ASP142     -0.2456
    168  N          1.8650  -16.0440  -24.0950 N.am  143  PHE143     -0.1974
    169  CA         1.6360  -17.4750  -23.9550 C.3   143  PHE143      0.1639
    170  C          2.7880  -18.2920  -24.5310 C.2   143  PHE143      0.2290
    171  O          2.6010  -19.4710  -24.8350 O.2   143  PHE143     -0.2864
    172  CB         0.2910  -17.8580  -24.5920 C.3   143  PHE143      0.0560
    173  CG        -0.8900  -17.3410  -23.8150 C.ar  143  PHE143     -0.0200
    174  CD1       -1.1780  -15.9820  -23.7880 C.ar  143  PHE143     -0.0042
    175  CD2       -1.6670  -18.2020  -23.0430 C.ar  143  PHE143     -0.0042
    176  CE1       -2.2370  -15.4940  -23.0230 C.ar  143  PHE143     -0.0003
    177  CE2       -2.7230  -17.7230  -22.2810 C.ar  143  PHE143     -0.0003
    178  CZ        -3.0180  -16.3790  -22.2770 C.ar  143  PHE143     -0.0000
@<TRIPOS>BOND
     1    40    39    2
     2    39    38    1
     3    37    38    1
     4    70    71    1
     5    35    34    2
     6    34    33    1
     7    38    41    1
     8    73    72    2
     9    32    33    1
    10    71    72    1
    11    71    74    1
    12    41    42    1
    13    72    81   am
    14    33    36    1
    15    89    87   ar
    16    81    82    1
    17    86    87    1
    18    86    85    1
    19    16    15    2
    20    27    26    1
    21    27    28    2
    22    42    43    1
    23    82    85    1
    24    82    83    1
    25    76    78   ar
    26    76    75   ar
    27    87    88   ar
    28    74    75    1
    29    78    80   ar
    30    26    25    1
    31    26    29    1
    32    43    44    1
    33    75    77   ar
    34    48    49    2
    35    48    47    1
    36    90    83   am
    37    90    91    1
    38    15    14    1
    39    46    47    1
    40    94    91    1
    41    94    95    1
    42    57    58    2
    43    57    56    1
    44    83    84    2
    45    80    79   ar
    46    30    29    1
    47    97    95    1
    48    59    56    1
    49    59    60    1
    50    77    79   ar
    51    44    45    1
    52    61    60    1
    53    29    31    1
    54    47    50    1
    55    91    92    1
    56    96    95    1
    57     1     2    1
    58    53    52   ar
    59    50    51    1
    60    56    55    1
    61     7     5    1
    62     8     6    1
    63    19    21   ar
    64    19    18   ar
    65    14    17    1
    66    14    13    1
    67     6     5    1
    68    60    62    1
    69    17    18    1
    70    21    23   ar
    71    52    51    1
    72    52    54   ar
    73    12    11    2
    74     5     2    1
    75    18    20   ar
    76     2     3    1
    77    92    93    2
    78    92    98   am
    79     9     3   am
    80     9    10    1
    81    23    24    1
    82    23    22   ar
    83    11    10    1
    84     3     4    2
    85    98    99    1
    86    65    66    2
    87    65    64    1
    88    20    22   ar
    89   109   106    1
    90   109   110    1
    91    69    67    1
    92    67    64    1
    93    67    68    1
    94    64    63    1
    95   106   105    1
    96   106   107    1
    97    99   100    1
    98    99   102    1
    99   171   170    2
   100   104   102    1
   101   105   100   am
   102   172   169    1
   103   172   173    1
   104   100   101    2
   105   170   169    1
   106   110   112   am
   107   110   111    2
   108   108   107    2
   109   168   169    1
   110   168   162   am
   111   102   103    1
   112   107   113   am
   113   173   174   ar
   114   173   175   ar
   115   166   165   ar
   116   174   176   ar
   117   161   160    1
   118   161   162    1
   119   161   164    1
   120   153   152    1
   121   160   157   am
   122   162   163    2
   123   165   167   ar
   124   165   164    1
   125   175   177   ar
   126   176   178   ar
   127   159   156    1
   128   113   114    1
   129   156   157    1
   130   156   155    1
   131   177   178   ar
   132   157   158    2
   133   152   154    1
   134   152   151    1
   135   122   123    1
   136   122   115   am
   137   114   115    1
   138   114   117    1
   139   151   148    1
   140   123   124    1
   141   115   116    2
   142   118   117    1
   143   118   119    1
   144   132   131    1
   145   132   126    1
   146   145   144    2
   147   124   126   am
   148   124   125    2
   149   148   149    1
   150   148   147    1
   151   131   130    1
   152   126   127    1
   153   119   121   am
   154   119   120    2
   155   149   150    2
   156   144   146   am
   157   144   143    1
   158   136   135    2
   159   142   141    2
   160   140   143    1
   161   140   141    1
   162   140   139    1
   163   127   130    1
   164   127   128    1
   165   135   139   am
   166   135   134    1
   167   128   129    2
   168   137   138    1
   169   137   134    1
   170   134   133    1
