@<TRIPOS>MOLECULE
tmp/5yvaA00.pdb
 149 140 0 0 0
SMALL
GASTEIGER

@<TRIPOS>ATOM
      1  N         -6.7210   -1.6860   29.0190 N.3    12  ILE12      -0.1231
      2  CA        -5.9590   -1.3740   27.8180 C.3    12  ILE12       0.1692
      3  C         -6.1670   -2.3970   26.7030 C.2    12  ILE12       0.2592
      4  O         -5.7720   -2.1280   25.5530 O.2    12  ILE12      -0.2718
      5  CB        -4.4570   -1.2460   28.1410 C.3    12  ILE12       0.0266
      6  CG1       -3.9660   -2.5000   28.8840 C.3    12  ILE12       0.0019
      7  CG2       -4.1890   -0.0080   28.9630 C.3    12  ILE12       0.0020
      8  CD1       -2.4670   -2.5100   29.0910 C.3    12  ILE12       0.0001
      9  N         -6.7780   -3.5470   26.9950 N.am   13  GLY13      -0.1957
     10  CA        -7.0500   -4.5640   25.9950 C.3    13  GLY13       0.1869
     11  C         -7.9710   -5.6340   26.5490 C.2    13  GLY13       0.2309
     12  O         -8.1760   -5.7410   27.7630 O.2    13  GLY13      -0.2863
     13  N         -7.1270   -7.0450   30.1220 N.3    20  VAL20      -0.1245
     14  CA        -5.7900   -6.5700   30.4400 C.3    20  VAL20       0.1561
     15  C         -5.9150   -5.1450   30.9560 C.2    20  VAL20       0.2260
     16  O         -6.5550   -4.3000   30.3190 O.2    20  VAL20      -0.2867
     17  CB        -4.8540   -6.6420   29.2270 C.3    20  VAL20       0.0252
     18  CG1       -3.4310   -6.2380   29.6390 C.3    20  VAL20       0.0019
     19  CG2       -4.8860   -8.0260   28.6280 C.3    20  VAL20       0.0019
     20  N          1.4940   -4.6550   32.2910 N.3    33  ALA33      -0.1245
     21  CA         0.1790   -5.1080   31.8600 C.3    33  ALA33       0.1562
     22  C         -0.2790   -6.2700   32.7390 C.2    33  ALA33       0.2260
     23  O          0.4980   -7.1820   33.0370 O.2    33  ALA33      -0.2867
     24  CB         0.1930   -5.5270   30.3930 C.3    33  ALA33       0.0290
     25  N         -3.2260   -9.1330   33.0820 N.3    35  LYS35      -0.1245
     26  CA        -4.3780   -9.9080   32.6470 C.3    35  LYS35       0.1561
     27  C         -5.1500  -10.3130   33.8940 C.2    35  LYS35       0.2260
     28  O         -4.5670  -10.8340   34.8500 O.2    35  LYS35      -0.2867
     29  CB        -3.9400  -11.1340   31.8370 C.3    35  LYS35       0.0271
     30  CG        -4.9800  -11.6440   30.8160 C.3    35  LYS35       0.0035
     31  CD        -4.3990  -12.7160   29.8880 C.3    35  LYS35       0.0206
     32  CE        -5.4260  -13.1910   28.8410 C.3    35  LYS35       0.1093
     33  NZ        -4.9410  -14.2870   27.9230 N.3    35  LYS35      -0.1314
     34  N         -1.7410  -22.1780   29.7220 N.3    48  GLU48      -0.1245
     35  CA        -1.2140  -20.9310   29.1740 C.3    48  GLU48       0.1567
     36  C          0.0080  -20.4710   29.9580 C.2    48  GLU48       0.2260
     37  O          1.0410  -20.1080   29.3750 O.2    48  GLU48      -0.2867
     38  CB        -2.3130  -19.8590   29.1800 C.3    48  GLU48       0.0388
     39  CG        -1.9090  -18.4660   28.6810 C.3    48  GLU48       0.1160
     40  CD        -3.0690  -17.4650   28.7220 C.2    48  GLU48       0.3649
     41  OE1       -4.1670  -17.8520   29.1820 O.co2  48  GLU48      -0.2457
     42  OE2       -2.8930  -16.2960   28.3000 O.co2  48  GLU48      -0.2457
     43  N          3.7870  -19.9230   28.7410 N.3    52  LEU52      -0.1245
     44  CA         4.4320  -18.6210   28.8780 C.3    52  LEU52       0.1561
     45  C          5.7840  -18.7470   29.5770 C.2    52  LEU52       0.2260
     46  O          6.8020  -18.2430   29.0830 O.2    52  LEU52      -0.2867
     47  CB         3.5040  -17.6530   29.6170 C.3    52  LEU52       0.0270
     48  CG         2.4220  -17.0540   28.7000 C.3    52  LEU52       0.0019
     49  CD1        1.3740  -16.3050   29.4890 C.3    52  LEU52       0.0001
     50  CD2        3.0420  -16.1450   27.6310 C.3    52  LEU52       0.0001
     51  N          5.7750  -11.8270   24.1140 N.3    61  VAL61      -0.1245
     52  CA         5.5680  -11.1340   25.3980 C.3    61  VAL61       0.1561
     53  C          6.1980  -11.9320   26.5460 C.2    61  VAL61       0.2260
     54  O          6.3810  -13.1500   26.4670 O.2    61  VAL61      -0.2867
     55  CB         4.0790  -10.8870   25.6860 C.3    61  VAL61       0.0252
     56  CG1        3.4330  -10.0790   24.5660 C.3    61  VAL61       0.0019
     57  CG2        3.3500  -12.2320   25.9040 C.3    61  VAL61       0.0019
     58  N          2.3920   -9.0500   32.8370 N.3    79  PHE79      -0.1227
     59  CA         3.2990   -9.0370   31.7020 C.3    79  PHE79       0.1736
     60  C          4.0630   -7.7220   31.6720 C.2    79  PHE79       0.2595
     61  O          3.5710   -6.6850   32.1250 O.2    79  PHE79      -0.2718
     62  CB         2.5540   -9.1950   30.3780 C.3    79  PHE79       0.0547
     63  CG         1.8130  -10.4830   30.2350 C.ar   79  PHE79      -0.0202
     64  CD1        0.5400  -10.6290   30.7590 C.ar   79  PHE79      -0.0042
     65  CD2        2.3700  -11.5380   29.5310 C.ar   79  PHE79      -0.0042
     66  CE1       -0.1580  -11.8270   30.6190 C.ar   79  PHE79      -0.0003
     67  CE2        1.6770  -12.7380   29.3710 C.ar   79  PHE79      -0.0003
     68  CZ         0.4100  -12.8820   29.9140 C.ar   79  PHE79      -0.0000
     69  N          5.2750   -7.7750   31.1440 N.am   80  GLU80      -0.1965
     70  CA         5.9540   -6.5530   30.7540 C.3    80  GLU80       0.1733
     71  C          5.0920   -5.8100   29.7520 C.2    80  GLU80       0.2616
     72  O          4.5810   -6.4070   28.8050 O.2    80  GLU80      -0.2715
     73  CB         7.3120   -6.8670   30.1290 C.3    80  GLU80       0.0429
     74  CG         8.3080   -7.5170   31.0570 C.3    80  GLU80       0.1163
     75  CD         9.7300   -7.4090   30.5330 C.2    80  GLU80       0.3649
     76  OE1        9.8900   -7.3070   29.2900 O.co2  80  GLU80      -0.2457
     77  OE2       10.6780   -7.3980   31.3630 O.co2  80  GLU80      -0.2457
     78  N          4.9230   -4.5110   29.9700 N.am   81  LEU81      -0.1963
     79  CA         4.1340   -3.6770   29.0770 C.3    81  LEU81       0.1728
     80  C          4.7590   -3.6250   27.6710 C.2    81  LEU81       0.2616
     81  O          5.9760   -3.7250   27.5020 O.2    81  LEU81      -0.2715
     82  CB         4.0090   -2.2890   29.6940 C.3    81  LEU81       0.0311
     83  CG         2.9530   -1.3200   29.1860 C.3    81  LEU81       0.0022
     84  CD1        1.5580   -1.8880   29.4300 C.3    81  LEU81       0.0001
     85  CD2        3.1140    0.0280   29.8680 C.3    81  LEU81       0.0001
     86  N          3.9050   -3.5390   26.6480 N.am   82  VAL82      -0.1963
     87  CA         4.3300   -3.3530   25.2550 C.3    82  VAL82       0.1727
     88  C          3.5770   -2.1200   24.7600 C.2    82  VAL82       0.2616
     89  O          2.4700   -2.2240   24.2230 O.2    82  VAL82      -0.2715
     90  CB         4.0420   -4.5710   24.3740 C.3    82  VAL82       0.0290
     91  CG1        4.8460   -4.4970   23.0800 C.3    82  VAL82       0.0023
     92  CG2        4.3430   -5.8700   25.1340 C.3    82  VAL82       0.0023
     93  N          4.2060   -0.9450   24.8900 N.am   83  ASN83      -0.1972
     94  CA         3.4720    0.2780   25.2140 C.3    83  ASN83       0.1688
     95  C          2.6550    0.8300   24.0500 C.2    83  ASN83       0.2292
     96  O          1.6760    1.5540   24.2750 O.2    83  ASN83      -0.2864
     97  CB         4.4450    1.3490   25.7280 C.3    83  ASN83       0.1181
     98  CG         5.4420    1.7890   24.6800 C.2    83  ASN83       0.2629
     99  OD1        6.1670    0.9660   24.1270 O.2    83  ASN83      -0.2716
    100  ND2        5.4870    3.0930   24.4010 N.am   83  ASN83      -0.0877
    101  N          0.8870   -0.8370   21.8170 N.3    85  GLY85      -0.1210
    102  CA        -0.3540   -1.5450   21.6090 C.3    85  GLY85       0.1940
    103  C         -0.4150   -2.2480   20.2730 C.2    85  GLY85       0.2453
    104  O          0.5980   -2.4230   19.5790 O.2    85  GLY85      -0.2732
    105  N         -1.6170   -2.6780   19.8930 N.am   86  PRO86      -0.2728
    106  CA        -1.7610   -3.4750   18.6710 C.3    86  PRO86       0.1401
    107  C         -1.2020   -2.7280   17.4850 C.2    86  PRO86       0.2269
    108  O         -1.2030   -1.5000   17.4380 O.2    86  PRO86      -0.2865
    109  CB        -3.2750   -3.6730   18.5410 C.3    86  PRO86       0.0296
    110  CG        -3.7650   -3.5830   19.9120 C.3    86  PRO86       0.0237
    111  CD        -2.8870   -2.5590   20.6200 C.3    86  PRO86       0.0939
    112  N         -4.4920   -7.7650   16.3260 N.3   128  SER128     -0.1217
    113  CA        -4.6280   -7.2380   17.6750 C.3   128  SER128      0.1889
    114  C         -3.8460   -8.0380   18.7130 C.2   128  SER128      0.2288
    115  O         -3.7580   -7.6090   19.8710 O.2   128  SER128     -0.2866
    116  CB        -6.1070   -7.1630   18.0630 C.3   128  SER128      0.2089
    117  OG        -6.7330   -8.4270   18.0000 O.3   128  SER128     -0.2183
    118  N          1.6990   -6.7670   19.2430 N.3   131  LEU131     -0.1245
    119  CA         1.8750   -5.5430   20.0030 C.3   131  LEU131      0.1561
    120  C          3.2070   -4.9000   19.6580 C.2   131  LEU131      0.2260
    121  O          4.2160   -5.5950   19.5110 O.2   131  LEU131     -0.2867
    122  CB         1.8180   -5.8400   21.4980 C.3   131  LEU131      0.0270
    123  CG         0.6250   -6.6810   21.9340 C.3   131  LEU131      0.0019
    124  CD1        0.7430   -6.9550   23.4120 C.3   131  LEU131      0.0001
    125  CD2       -0.6970   -5.9680   21.6150 C.3   131  LEU131      0.0001
    126  N          1.4180  -11.8580   21.4680 N.3   141  ALA141     -0.1231
    127  CA         0.7040  -11.8850   22.7290 C.3   141  ALA141      0.1694
    128  C         -0.4210  -12.9070   22.6360 C.2   141  ALA141      0.2592
    129  O         -0.7550  -13.3890   21.5500 O.2   141  ALA141     -0.2718
    130  CB         0.1460  -10.4890   23.0580 C.3   141  ALA141      0.0304
    131  N         -0.9930  -13.2380   23.8020 N.am  142  ASP142     -0.1960
    132  CA        -2.2080  -14.0440   23.9640 C.3   142  ASP142      0.1840
    133  C         -2.0410  -15.5120   23.5720 C.2   142  ASP142      0.2622
    134  O         -2.4190  -15.9340   22.4780 O.2   142  ASP142     -0.2715
    135  CB        -3.3750  -13.4380   23.1830 C.3   142  ASP142      0.1450
    136  CG        -4.7150  -14.0270   23.5980 C.2   142  ASP142      0.3671
    137  OD1       -4.7860  -14.6120   24.7070 O.co2 142  ASP142     -0.2456
    138  OD2       -5.6890  -13.9180   22.8100 O.co2 142  ASP142     -0.2456
    139  N         -1.5020  -16.3090   24.4840 N.am  143  PHE143     -0.1974
    140  CA        -1.3630  -17.7420   24.2900 C.3   143  PHE143      0.1639
    141  C         -2.5140  -18.5170   24.9210 C.2   143  PHE143      0.2290
    142  O         -2.3580  -19.6800   25.2820 O.2   143  PHE143     -0.2864
    143  CB        -0.0150  -18.1980   24.8330 C.3   143  PHE143      0.0560
    144  CG         1.1370  -17.6550   24.0560 C.ar  143  PHE143     -0.0200
    145  CD1        1.5930  -16.3640   24.2790 C.ar  143  PHE143     -0.0042
    146  CD2        1.7440  -18.4210   23.0650 C.ar  143  PHE143     -0.0042
    147  CE1        2.6400  -15.8420   23.5310 C.ar  143  PHE143     -0.0003
    148  CE2        2.8030  -17.9200   22.3190 C.ar  143  PHE143     -0.0003
    149  CZ         3.2540  -16.6230   22.5540 C.ar  143  PHE143     -0.0000
@<TRIPOS>BOND
     1   112   113    1
     2   108   107    2
     3   107   106    1
     4   113   116    1
     5   113   114    1
     6   117   116    1
     7   109   106    1
     8   109   110    1
     9   106   105    1
    10   114   115    2
    11   118   119    1
    12   121   120    2
    13   104   103    2
    14   120   119    1
    15   105   103   am
    16   105   111    1
    17   110   111    1
    18   119   122    1
    19   103   102    1
    20   126   127    1
    21   122   123    1
    22   129   128    2
    23   102   101    1
    24   125   123    1
    25   123   124    1
    26   148   149   ar
    27   148   146   ar
    28   134   133    2
    29   149   147   ar
    30   128   127    1
    31   128   131   am
    32   127   130    1
    33   138   136   ar
    34   146   144   ar
    35    91    90    1
    36   135   136    1
    37   135   132    1
    38   147   145   ar
    39   133   132    1
    40   133   139   am
    41   136   137   ar
    42   131   132    1
    43    95    96    2
    44    95    94    1
    45   144   145   ar
    46   144   143    1
    47    51    52    1
    48    99    98    2
    49    89    88    2
    50   140   139    1
    51   140   143    1
    52   140   141    1
    53    90    92    1
    54    90    87    1
    55   100    98   am
    56    56    55    1
    57    98    97    1
    58    88    93   am
    59    88    87    1
    60    93    94    1
    61   141   142    2
    62    94    97    1
    63    87    86    1
    64    52    55    1
    65    52    53    1
    66     4     3    2
    67    55    57    1
    68    10    11    1
    69    10     9    1
    70    54    53    2
    71    11    12    2
    72    86    80   am
    73     3     9   am
    74     3     2    1
    75    81    80    2
    76    50    48    1
    77    80    79    1
    78     2     5    1
    79     2     1    1
    80    33    32    1
    81     5     6    1
    82     5     7    1
    83    42    40   ar
    84    19    17    1
    85    39    40    1
    86    39    38    1
    87    48    49    1
    88    48    47    1
    89    40    41   ar
    90    43    44    1
    91    72    71    2
    92    32    31    1
    93    44    45    1
    94    44    47    1
    95     6     8    1
    96    79    82    1
    97    79    78    1
    98    46    45    2
    99    35    38    1
   100    35    34    1
   101    35    36    1
   102    83    84    1
   103    83    82    1
   104    83    85    1
   105    17    18    1
   106    17    14    1
   107    76    75   ar
   108    67    65   ar
   109    67    68   ar
   110    37    36    2
   111    65    63   ar
   112    71    78   am
   113    71    70    1
   114    31    30    1
   115    68    66   ar
   116    13    14    1
   117    73    70    1
   118    73    74    1
   119    63    62    1
   120    63    64   ar
   121    16    15    2
   122    62    59    1
   123    24    21    1
   124    14    15    1
   125    75    74    1
   126    75    77   ar
   127    66    64   ar
   128    70    69    1
   129    30    29    1
   130    69    60   am
   131    60    59    1
   132    60    61    2
   133    59    58    1
   134    29    26    1
   135    21    20    1
   136    21    22    1
   137    26    25    1
   138    26    27    1
   139    22    23    2
   140    27    28    2
