@<TRIPOS>MOLECULE
tmp/5yvbA00.pdb
 154 146 0 0 0
SMALL
GASTEIGER

@<TRIPOS>ATOM
      1  N          6.9760   -1.2500  -28.4760 N.3    12  ILE12      -0.1231
      2  CA         6.2140   -0.9350  -27.2750 C.3    12  ILE12       0.1692
      3  C          6.4130   -1.9490  -26.1580 C.2    12  ILE12       0.2593
      4  O          6.0440   -1.6570  -25.0110 O.2    12  ILE12      -0.2718
      5  CB         4.7080   -0.7950  -27.5820 C.3    12  ILE12       0.0266
      6  CG1        4.1980   -2.0520  -28.2940 C.3    12  ILE12       0.0019
      7  CG2        4.4360    0.4800  -28.3850 C.3    12  ILE12       0.0020
      8  CD1        2.6840   -2.0820  -28.4850 C.3    12  ILE12       0.0001
      9  N          6.9600   -3.1280  -26.4330 N.am   13  GLY13      -0.1942
     10  CA         7.1000   -4.0880  -25.3540 C.3    13  GLY13       0.2014
     11  C          8.0160   -5.2320  -25.7310 C.2    13  GLY13       0.2639
     12  O          8.4910   -5.3340  -26.8650 O.2    13  GLY13      -0.2714
     13  N          8.2680   -6.0860  -24.7380 N.am   14  LYS14      -0.1963
     14  CA         8.9800   -7.3460  -24.9190 C.3    14  LYS14       0.1728
     15  C          7.9780   -8.4900  -24.9860 C.2    14  LYS14       0.2616
     16  O          7.0900   -8.6000  -24.1320 O.2    14  LYS14      -0.2715
     17  CB         9.9700   -7.6020  -23.7810 C.3    14  LYS14       0.0311
     18  CG        11.1580   -6.6760  -23.7890 C.3    14  LYS14       0.0038
     19  CD        11.7120   -6.5430  -25.1940 C.3    14  LYS14       0.0206
     20  CE        12.9460   -5.6610  -25.2170 C.3    14  LYS14       0.1093
     21  NZ        13.5390   -5.5990  -26.5790 N.3    14  LYS14      -0.1314
     22  N          8.1140   -9.3250  -26.0120 N.am   15  GLY15      -0.1955
     23  CA         7.3950  -10.5740  -26.0840 C.3    15  GLY15       0.1869
     24  C          8.3340  -11.7330  -25.8080 C.2    15  GLY15       0.2309
     25  O          9.5540  -11.5930  -25.7870 O.2    15  GLY15      -0.2863
     26  N          7.6050   -6.4770  -29.5920 N.3    20  VAL20      -0.1245
     27  CA         6.2330   -6.0700  -29.8650 C.3    20  VAL20       0.1561
     28  C          6.2630   -4.6230  -30.3350 C.2    20  VAL20       0.2260
     29  O          6.7660   -3.7420  -29.6250 O.2    20  VAL20      -0.2867
     30  CB         5.3280   -6.2340  -28.6350 C.3    20  VAL20       0.0252
     31  CG1        3.8830   -5.9000  -28.9950 C.3    20  VAL20       0.0019
     32  CG2        5.4310   -7.6400  -28.0850 C.3    20  VAL20       0.0019
     33  N         -1.1430   -4.2210  -32.0000 N.3    33  ALA33      -0.1245
     34  CA         0.1450   -4.6200  -31.4480 C.3    33  ALA33       0.1562
     35  C          0.6590   -5.7940  -32.2690 C.2    33  ALA33       0.2260
     36  O         -0.0500   -6.7930  -32.4410 O.2    33  ALA33      -0.2867
     37  CB         0.0260   -4.9880  -29.9730 C.3    33  ALA33       0.0290
     38  N          3.6430   -8.5760  -32.7770 N.3    35  LYS35      -0.1245
     39  CA         4.8040   -9.3080  -32.2940 C.3    35  LYS35       0.1561
     40  C          5.5820   -9.8200  -33.5000 C.2    35  LYS35       0.2260
     41  O          5.0200  -10.4920  -34.3710 O.2    35  LYS35      -0.2867
     42  CB         4.3680  -10.4560  -31.3850 C.3    35  LYS35       0.0271
     43  CG         5.5020  -11.1920  -30.7060 C.3    35  LYS35       0.0035
     44  CD         4.9470  -12.3250  -29.8550 C.3    35  LYS35       0.0206
     45  CE         6.0340  -13.2720  -29.4010 C.3    35  LYS35       0.1093
     46  NZ         5.4750  -14.5290  -28.8020 N.3    35  LYS35      -0.1314
     47  N          1.4630  -21.6680  -29.5480 N.3    48  GLU48      -0.1245
     48  CA         0.9680  -20.4050  -29.0100 C.3    48  GLU48       0.1567
     49  C         -0.1270  -19.8190  -29.8950 C.2    48  GLU48       0.2260
     50  O         -1.1670  -19.3670  -29.4010 O.2    48  GLU48      -0.2867
     51  CB         2.1180  -19.4070  -28.8610 C.3    48  GLU48       0.0388
     52  CG         1.6620  -18.0360  -28.3980 C.3    48  GLU48       0.1160
     53  CD         2.7290  -16.9550  -28.5400 C.2    48  GLU48       0.3649
     54  OE1        3.8350  -17.2490  -29.0390 O.co2  48  GLU48      -0.2457
     55  OE2        2.4550  -15.8030  -28.1500 O.co2  48  GLU48      -0.2457
     56  N         -5.7470  -11.1560  -23.8100 N.3    61  VAL61      -0.1245
     57  CA        -5.5130  -10.4390  -25.0680 C.3    61  VAL61       0.1561
     58  C         -5.9460  -11.3030  -26.2430 C.2    61  VAL61       0.2260
     59  O         -5.8750  -12.5370  -26.1900 O.2    61  VAL61      -0.2867
     60  CB        -4.0400  -10.0240  -25.2270 C.3    61  VAL61       0.0252
     61  CG1       -3.6260   -9.1250  -24.1000 C.3    61  VAL61       0.0019
     62  CG2       -3.1270  -11.2680  -25.3120 C.3    61  VAL61       0.0019
     63  N         -1.9550   -8.6080  -32.7230 N.3    79  PHE79      -0.1227
     64  CA        -2.8010   -8.6240  -31.5440 C.3    79  PHE79       0.1736
     65  C         -3.5800   -7.3230  -31.4450 C.2    79  PHE79       0.2595
     66  O         -3.1690   -6.2850  -31.9780 O.2    79  PHE79      -0.2718
     67  CB        -1.9750   -8.7660  -30.2650 C.3    79  PHE79       0.0547
     68  CG        -1.3400  -10.1130  -30.0710 C.ar   79  PHE79      -0.0202
     69  CD1       -2.0000  -11.0990  -29.3570 C.ar   79  PHE79      -0.0042
     70  CD2       -0.0630  -10.3730  -30.5500 C.ar   79  PHE79      -0.0042
     71  CE1       -1.4110  -12.3440  -29.1450 C.ar   79  PHE79      -0.0003
     72  CE2        0.5290  -11.6180  -30.3440 C.ar   79  PHE79      -0.0003
     73  CZ        -0.1470  -12.5940  -29.6350 C.ar   79  PHE79      -0.0000
     74  N         -4.6850   -7.3700  -30.7070 N.am   80  GLU80      -0.1965
     75  CA        -5.3090   -6.1260  -30.2910 C.3    80  GLU80       0.1733
     76  C         -4.3420   -5.3540  -29.4070 C.2    80  GLU80       0.2616
     77  O         -3.6070   -5.9290  -28.5940 O.2    80  GLU80      -0.2715
     78  CB        -6.6160   -6.3720  -29.5360 C.3    80  GLU80       0.0429
     79  CG        -6.4830   -7.2970  -28.3350 C.3    80  GLU80       0.1163
     80  CD        -7.5740   -7.0770  -27.2940 C.2    80  GLU80       0.3649
     81  OE1       -8.1990   -5.9990  -27.2940 O.co2  80  GLU80      -0.2457
     82  OE2       -7.8010   -7.9790  -26.4710 O.co2  80  GLU80      -0.2457
     83  N         -4.3300   -4.0450  -29.5960 N.am   81  LEU81      -0.1963
     84  CA        -3.5380   -3.1600  -28.7630 C.3    81  LEU81       0.1728
     85  C         -4.2330   -3.0020  -27.4200 C.2    81  LEU81       0.2616
     86  O         -5.4500   -2.8120  -27.3610 O.2    81  LEU81      -0.2715
     87  CB        -3.3740   -1.8080  -29.4680 C.3    81  LEU81       0.0311
     88  CG        -2.6590   -0.6670  -28.7480 C.3    81  LEU81       0.0022
     89  CD1       -1.1850   -0.9860  -28.5430 C.3    81  LEU81       0.0001
     90  CD2       -2.8460    0.6510  -29.5390 C.3    81  LEU81       0.0001
     91  N         -3.4750   -3.1190  -26.3430 N.am   82  VAL82      -0.1963
     92  CA        -3.9730   -2.8450  -25.0050 C.3    82  VAL82       0.1727
     93  C         -3.2910   -1.5420  -24.5770 C.2    82  VAL82       0.2616
     94  O         -2.1440   -1.5480  -24.1160 O.2    82  VAL82      -0.2715
     95  CB        -3.7020   -4.0210  -24.0550 C.3    82  VAL82       0.0290
     96  CG1       -4.4800   -3.8730  -22.7680 C.3    82  VAL82       0.0023
     97  CG2       -4.0790   -5.3420  -24.7520 C.3    82  VAL82       0.0023
     98  N         -3.9990   -0.4100  -24.7460 N.am   83  ASN83      -0.1958
     99  CA        -3.3280    0.8670  -25.0030 C.3    83  ASN83       0.1819
    100  C         -2.5530    1.4060  -23.8070 C.2    83  ASN83       0.2621
    101  O         -1.5680    2.1250  -24.0020 O.2    83  ASN83      -0.2715
    102  CB        -4.3380    1.9270  -25.4760 C.3    83  ASN83       0.1195
    103  CG        -5.2700    2.3940  -24.3660 C.2    83  ASN83       0.2630
    104  OD1       -6.0260    1.6090  -23.8030 O.2    83  ASN83      -0.2716
    105  ND2       -5.2140    3.6800  -24.0500 N.am   83  ASN83      -0.0877
    106  N         -2.9610    1.1050  -22.5860 N.am   84  GLN84      -0.1963
    107  CA        -2.2750    1.6880  -21.4390 C.3    84  GLN84       0.1733
    108  C         -1.0610    0.8930  -20.9620 C.2    84  GLN84       0.2617
    109  O         -0.3350    1.3770  -20.0880 O.2    84  GLN84      -0.2715
    110  CB        -3.2580    1.8860  -20.2830 C.3    84  GLN84       0.0408
    111  CG        -4.4680    2.7120  -20.6860 C.3    84  GLN84       0.0908
    112  CD        -5.2040    3.2710  -19.4930 C.2    84  GLN84       0.2608
    113  OE1       -4.6520    4.0570  -18.7280 O.2    84  GLN84      -0.2717
    114  NE2       -6.4560    2.8660  -19.3250 N.am   84  GLN84      -0.0878
    115  N         -0.7990   -0.2880  -21.5140 N.am   85  GLY85      -0.1941
    116  CA         0.4290   -0.9790  -21.2090 C.3    85  GLY85       0.1998
    117  C          0.4140   -1.6910  -19.8700 C.2    85  GLY85       0.2480
    118  O         -0.6300   -1.8440  -19.2260 O.2    85  GLY85      -0.2729
    119  N          1.5890   -2.1300  -19.4200 N.am   86  PRO86      -0.2726
    120  CA         1.6440   -2.9740  -18.2270 C.3    86  PRO86       0.1402
    121  C          1.1240   -2.2320  -17.0120 C.2    86  PRO86       0.2269
    122  O          1.2520   -1.0140  -16.8970 O.2    86  PRO86      -0.2865
    123  CB         3.1360   -3.3080  -18.0860 C.3    86  PRO86       0.0296
    124  CG         3.7140   -3.0660  -19.4460 C.3    86  PRO86       0.0237
    125  CD         2.9190   -1.9280  -20.0170 C.3    86  PRO86       0.0939
    126  N          3.2170   -8.6760  -17.9670 N.3   129  ASN129     -0.1240
    127  CA         2.3070   -9.3740  -18.8700 C.3   129  ASN129      0.1653
    128  C          0.8400   -9.0960  -18.5600 C.2   129  ASN129      0.2266
    129  O         -0.0410   -9.7490  -19.1320 O.2   129  ASN129     -0.2867
    130  CB         2.5750  -10.8910  -18.8330 C.3   129  ASN129      0.1155
    131  CG         3.8190  -11.2770  -19.6080 C.2   129  ASN129      0.2627
    132  OD1        4.2160  -10.5850  -20.5410 O.2   129  ASN129     -0.2716
    133  ND2        4.4420  -12.3810  -19.2240 N.am  129  ASN129     -0.0877
    134  N         -1.6910   -6.2880  -18.9890 N.3   131  LEU131     -0.1245
    135  CA        -1.8130   -5.0470  -19.7400 C.3   131  LEU131      0.1561
    136  C         -3.1520   -4.3810  -19.4430 C.2   131  LEU131      0.2260
    137  O         -4.1770   -5.0550  -19.3310 O.2   131  LEU131     -0.2867
    138  CB        -1.6810   -5.3410  -21.2370 C.3   131  LEU131      0.0270
    139  CG        -0.4110   -6.1030  -21.6090 C.3   131  LEU131      0.0019
    140  CD1       -0.3670   -6.3880  -23.1020 C.3   131  LEU131      0.0001
    141  CD2        0.8650   -5.3420  -21.1490 C.3   131  LEU131      0.0001
    142  N         -1.3790  -11.2420  -21.2010 N.3   141  ALA141     -0.1231
    143  CA        -0.6780  -11.3650  -22.4680 C.3   141  ALA141      0.1694
    144  C          0.4760  -12.3560  -22.3680 C.2   141  ALA141      0.2592
    145  O          0.8620  -12.8060  -21.2870 O.2   141  ALA141     -0.2718
    146  CB        -0.1580  -10.0030  -22.9430 C.3   141  ALA141      0.0304
    147  N          1.0230  -12.6840  -23.5400 N.am  142  ASP142     -0.1974
    148  CA         2.2360  -13.4800  -23.7100 C.3   142  ASP142      0.1709
    149  C          2.0390  -14.9450  -23.3350 C.2   142  ASP142      0.2293
    150  O          2.3450  -15.3640  -22.2170 O.2   142  ASP142     -0.2864
    151  CB         3.4030  -12.8940  -22.9150 C.3   142  ASP142      0.1436
    152  CG         4.7480  -13.4350  -23.3880 C.2   142  ASP142      0.3671
    153  OD1        4.7460  -14.4060  -24.1780 O.co2 142  ASP142     -0.2456
    154  OD2        5.7960  -12.8960  -22.9720 O.co2 142  ASP142     -0.2456
@<TRIPOS>BOND
     1    41    40    2
     2    40    39    1
     3    38    39    1
     4    63    64    1
     5    36    35    2
     6    39    42    1
     7    35    34    1
     8    33    34    1
     9    66    65    2
    10    64    65    1
    11    64    67    1
    12    34    37    1
    13    65    74   am
    14    42    43    1
    15    74    75    1
    16    43    44    1
    17    70    72   ar
    18    70    68   ar
    19    72    73   ar
    20    28    27    1
    21    28    29    2
    22    75    78    1
    23    75    76    1
    24    67    68    1
    25    68    69   ar
    26    49    50    2
    27    49    48    1
    28    27    26    1
    29    27    30    1
    30    44    45    1
    31    73    71   ar
    32    83    76   am
    33    83    84    1
    34    47    48    1
    35    90    88    1
    36    78    79    1
    37    87    84    1
    38    87    88    1
    39    76    77    2
    40    45    46    1
    41    69    71   ar
    42    54    53   ar
    43    48    51    1
    44    31    30    1
    45    51    52    1
    46    84    85    1
    47    88    89    1
    48    30    32    1
    49    53    52    1
    50    53    55   ar
    51     8     6    1
    52     1     2    1
    53     7     5    1
    54    79    80    1
    55     6     5    1
    56     5     2    1
    57    85    86    2
    58    85    91   am
    59    80    81   ar
    60    80    82   ar
    61     2     3    1
    62    12    11    2
    63    21    20    1
    64     9     3   am
    65     9    10    1
    66    91    92    1
    67    58    59    2
    68    58    57    1
    69     3     4    2
    70    23    22    1
    71    23    24    1
    72    22    15   am
    73    24    25    2
    74    11    10    1
    75    11    13   am
    76   102    99    1
    77   102   103    1
    78    62    60    1
    79    60    57    1
    80    60    61    1
    81    20    19    1
    82    19    18    1
    83    57    56    1
    84    92    93    1
    85    92    95    1
    86    99    98    1
    87    99   100    1
    88    15    14    1
    89    15    16    2
    90    14    13    1
    91    14    17    1
    92    97    95    1
    93    98    93   am
    94    93    94    2
    95   103   105   am
    96   103   104    2
    97   153   152   ar
    98    95    96    1
    99   101   100    2
   100   100   106   am
   101    18    17    1
   102   148   147    1
   103   148   149    1
   104   148   151    1
   105   147   144   am
   106   152   154   ar
   107   152   151    1
   108   149   150    2
   109   140   139    1
   110   146   143    1
   111   106   107    1
   112   143   144    1
   113   143   142    1
   114   144   145    2
   115   139   138    1
   116   139   141    1
   117   115   116    1
   118   115   108   am
   119   107   108    1
   120   107   110    1
   121   138   135    1
   122   116   117    1
   123   108   109    2
   124   111   110    1
   125   111   112    1
   126   132   131    2
   127   125   124    1
   128   125   119    1
   129   117   119   am
   130   117   118    2
   131   135   136    1
   132   135   134    1
   133   131   133   am
   134   131   130    1
   135   112   114   am
   136   112   113    2
   137   124   123    1
   138   136   137    2
   139   119   120    1
   140   129   128    2
   141   127   130    1
   142   127   128    1
   143   127   126    1
   144   120   123    1
   145   120   121    1
   146   121   122    2
