@<TRIPOS>MOLECULE
tmp/5yvcA00.pdb
 162 154 0 0 0
SMALL
GASTEIGER

@<TRIPOS>ATOM
      1  N         -7.0760   -1.2350   28.5390 N.3    12  ILE12      -0.1231
      2  CA        -6.2810   -1.0560   27.3290 C.3    12  ILE12       0.1692
      3  C         -6.4600   -2.2240   26.3640 C.2    12  ILE12       0.2592
      4  O         -5.6970   -2.3550   25.4010 O.2    12  ILE12      -0.2718
      5  CB        -4.7870   -0.8670   27.6560 C.3    12  ILE12       0.0266
      6  CG1       -4.2550   -2.0560   28.4510 C.3    12  ILE12       0.0019
      7  CG2       -4.5450    0.4390   28.4040 C.3    12  ILE12       0.0020
      8  CD1       -2.7650   -2.0040   28.6570 C.3    12  ILE12       0.0001
      9  N         -7.4530   -3.0810   26.5950 N.am   13  GLY13      -0.1957
     10  CA        -7.6680   -4.1500   25.6350 C.3    13  GLY13       0.1869
     11  C         -8.3820   -5.3990   26.1090 C.2    13  GLY13       0.2309
     12  O         -8.1610   -5.8740   27.2260 O.2    13  GLY13      -0.2863
     13  N         -8.5080   -9.0720   24.7730 N.3    15  GLY15      -0.1225
     14  CA        -8.1190  -10.1450   23.8800 C.3    15  GLY15       0.1811
     15  C         -9.0470  -11.3330   24.0340 C.2    15  GLY15       0.2280
     16  O        -10.2650  -11.1620   24.1500 O.2    15  GLY15      -0.2866
     17  N         -7.5110   -6.3480   29.9050 N.3    20  VAL20      -0.1245
     18  CA        -6.1860   -5.8300   30.2220 C.3    20  VAL20       0.1561
     19  C         -6.3270   -4.3950   30.7070 C.2    20  VAL20       0.2260
     20  O         -6.9750   -3.5710   30.0470 O.2    20  VAL20      -0.2867
     21  CB        -5.2420   -5.8870   29.0080 C.3    20  VAL20       0.0252
     22  CG1       -3.8240   -5.4950   29.4240 C.3    20  VAL20       0.0019
     23  CG2       -5.2770   -7.2680   28.3590 C.3    20  VAL20       0.0019
     24  N          1.1940   -3.9730   31.7600 N.3    33  ALA33      -0.1245
     25  CA        -0.1150   -4.4080   31.2890 C.3    33  ALA33       0.1562
     26  C         -0.5510   -5.5900   32.1420 C.2    33  ALA33       0.2260
     27  O          0.1660   -6.5920   32.2300 O.2    33  ALA33      -0.2867
     28  CB        -0.0780   -4.7850   29.8080 C.3    33  ALA33       0.0290
     29  N         -3.4050   -8.4330   32.8610 N.3    35  LYS35      -0.1245
     30  CA        -4.5680   -9.1980   32.4260 C.3    35  LYS35       0.1561
     31  C         -5.3230   -9.6560   33.6670 C.2    35  LYS35       0.2260
     32  O         -4.7370  -10.2740   34.5620 O.2    35  LYS35      -0.2867
     33  CB        -4.1370  -10.3900   31.5740 C.3    35  LYS35       0.0271
     34  CG        -5.2630  -11.0900   30.8180 C.3    35  LYS35       0.0035
     35  CD        -4.7100  -12.2670   30.0190 C.3    35  LYS35       0.0206
     36  CE        -5.7760  -12.9550   29.1700 C.3    35  LYS35       0.1093
     37  NZ        -5.1820  -14.0250   28.3060 N.3    35  LYS35      -0.1314
     38  N         -1.5150  -21.4770   29.5170 N.3    48  GLU48      -0.1245
     39  CA        -0.9970  -20.2410   28.9270 C.3    48  GLU48       0.1567
     40  C          0.1560  -19.6840   29.7570 C.2    48  GLU48       0.2260
     41  O          1.1880  -19.2650   29.2180 O.2    48  GLU48      -0.2867
     42  CB        -2.1120  -19.1930   28.7930 C.3    48  GLU48       0.0388
     43  CG        -1.6190  -17.8300   28.2490 C.3    48  GLU48       0.1160
     44  CD        -2.6610  -16.7060   28.3150 C.2    48  GLU48       0.3649
     45  OE1       -3.7990  -16.9530   28.7650 O.co2  48  GLU48      -0.2457
     46  OE2       -2.3400  -15.5660   27.9110 O.co2  48  GLU48      -0.2457
     47  N          5.4870  -10.9580   23.5240 N.3    61  VAL61      -0.1245
     48  CA         5.2730  -10.2350   24.7780 C.3    61  VAL61       0.1561
     49  C          5.8610  -11.0390   25.9260 C.2    61  VAL61       0.2260
     50  O          5.9710  -12.2690   25.8660 O.2    61  VAL61      -0.2867
     51  CB         3.7850   -9.9540   25.0460 C.3    61  VAL61       0.0252
     52  CG1        3.2180   -9.0680   23.9670 C.3    61  VAL61       0.0019
     53  CG2        3.0040  -11.2850   25.1650 C.3    61  VAL61       0.0019
     54  N          2.1410   -8.3410   32.4340 N.3    79  PHE79      -0.1227
     55  CA         3.0110   -8.3360   31.2680 C.3    79  PHE79       0.1736
     56  C          3.7860   -7.0260   31.1950 C.2    79  PHE79       0.2595
     57  O          3.3970   -6.0110   31.7810 O.2    79  PHE79      -0.2718
     58  CB         2.2260   -8.4950   29.9630 C.3    79  PHE79       0.0547
     59  CG         1.4630   -9.7850   29.8290 C.ar   79  PHE79      -0.0202
     60  CD1        0.2080   -9.9330   30.4030 C.ar   79  PHE79      -0.0042
     61  CD2        1.9760  -10.8280   29.0660 C.ar   79  PHE79      -0.0042
     62  CE1       -0.5060  -11.1150   30.2510 C.ar   79  PHE79      -0.0003
     63  CE2        1.2670  -12.0250   28.9040 C.ar   79  PHE79      -0.0003
     64  CZ         0.0290  -12.1690   29.4960 C.ar   79  PHE79      -0.0000
     65  N          4.8810   -7.0530   30.4390 N.am   80  GLU80      -0.1965
     66  CA         5.5850   -5.8230   30.1110 C.3    80  GLU80       0.1733
     67  C          4.7340   -5.0000   29.1610 C.2    80  GLU80       0.2616
     68  O          4.2100   -5.5180   28.1730 O.2    80  GLU80      -0.2715
     69  CB         6.9460   -6.1170   29.4830 C.3    80  GLU80       0.0429
     70  CG         8.0490   -6.4380   30.4880 C.3    80  GLU80       0.1163
     71  CD         9.3980   -6.6890   29.8350 C.2    80  GLU80       0.3649
     72  OE1        9.4750   -6.6880   28.5870 O.co2  80  GLU80      -0.2457
     73  OE2       10.3840   -6.8860   30.5750 O.co2  80  GLU80      -0.2457
     74  N          4.5780   -3.7160   29.4770 N.am   81  LEU81      -0.1963
     75  CA         3.7580   -2.8370   28.6590 C.3    81  LEU81       0.1728
     76  C          4.3690   -2.6700   27.2750 C.2    81  LEU81       0.2616
     77  O          5.5740   -2.4590   27.1300 O.2    81  LEU81      -0.2715
     78  CB         3.6120   -1.4700   29.3430 C.3    81  LEU81       0.0311
     79  CG         2.7560   -0.4400   28.6140 C.3    81  LEU81       0.0022
     80  CD1        1.2980   -0.8750   28.5460 C.3    81  LEU81       0.0001
     81  CD2        2.9020    0.9410   29.2920 C.3    81  LEU81       0.0001
     82  N          3.5240   -2.7590   26.2550 N.am   82  VAL82      -0.1963
     83  CA         3.9120   -2.4950   24.8750 C.3    82  VAL82       0.1727
     84  C          3.2530   -1.1760   24.4910 C.2    82  VAL82       0.2616
     85  O          2.0940   -1.1520   24.0560 O.2    82  VAL82      -0.2715
     86  CB         3.4980   -3.6340   23.9400 C.3    82  VAL82       0.0290
     87  CG1        4.2290   -3.5220   22.6050 C.3    82  VAL82       0.0023
     88  CG2        3.7630   -4.9780   24.6140 C.3    82  VAL82       0.0023
     89  N          4.0050   -0.0800   24.6180 N.am   83  ASN83      -0.1958
     90  CA         3.3940    1.2410   24.7710 C.3    83  ASN83       0.1819
     91  C          2.5490    1.6860   23.5760 C.2    83  ASN83       0.2621
     92  O          1.6330    2.4970   23.7540 O.2    83  ASN83      -0.2715
     93  CB         4.4710    2.2910   25.0500 C.3    83  ASN83       0.1195
     94  CG         5.3700    2.5300   23.8600 C.2    83  ASN83       0.2630
     95  OD1        5.7970    1.5870   23.1970 O.2    83  ASN83      -0.2716
     96  ND2        5.6510    3.8000   23.5700 N.am   83  ASN83      -0.0877
     97  N          2.8290    1.2140   22.3600 N.am   84  GLN84      -0.1963
     98  CA         2.1360    1.7990   21.2140 C.3    84  GLN84       0.1733
     99  C          0.9020    1.0270   20.7550 C.2    84  GLN84       0.2617
    100  O          0.1400    1.5520   19.9340 O.2    84  GLN84      -0.2715
    101  CB         3.1000    1.9940   20.0390 C.3    84  GLN84       0.0408
    102  CG         4.1530    3.0670   20.3360 C.3    84  GLN84       0.0908
    103  CD         4.9550    3.4390   19.1190 C.2    84  GLN84       0.2608
    104  OE1        4.4750    4.1630   18.2510 O.2    84  GLN84      -0.2717
    105  NE2        6.1830    2.9360   19.0400 N.am   84  GLN84      -0.0878
    106  N          0.6620   -0.1750   21.2660 N.am   85  GLY85      -0.1941
    107  CA        -0.5870   -0.8550   21.0080 C.3    85  GLY85       0.1998
    108  C         -0.6530   -1.5370   19.6580 C.2    85  GLY85       0.2480
    109  O          0.3370   -1.6030   18.9180 O.2    85  GLY85      -0.2729
    110  N         -1.8340   -2.0590   19.3080 N.am   86  PRO86      -0.2726
    111  CA        -1.9410   -2.9010   18.1110 C.3    86  PRO86       0.1402
    112  C         -1.4850   -2.1710   16.8600 C.2    86  PRO86       0.2269
    113  O         -1.6730   -0.9610   16.7140 O.2    86  PRO86      -0.2865
    114  CB        -3.4350   -3.2440   18.0430 C.3    86  PRO86       0.0296
    115  CG        -3.9140   -3.1450   19.4540 C.3    86  PRO86       0.0237
    116  CD        -3.1040   -1.9920   20.0530 C.3    86  PRO86       0.0939
    117  N         -4.7200   -7.2950   15.7160 N.3   128  SER128     -0.1202
    118  CA        -4.9710   -6.7670   17.0540 C.3   128  SER128      0.2020
    119  C         -4.1370   -7.4760   18.1170 C.2   128  SER128      0.2618
    120  O         -3.9930   -6.9450   19.2180 O.2   128  SER128     -0.2717
    121  CB        -6.4610   -6.8400   17.4070 C.3   128  SER128      0.2103
    122  OG        -6.9230   -8.1750   17.4590 O.3   128  SER128     -0.2182
    123  N         -3.5540   -8.6350   17.8070 N.am  129  ASN129     -0.1974
    124  CA        -2.6360   -9.3090   18.7210 C.3   129  ASN129      0.1688
    125  C         -1.1700   -9.0400   18.3940 C.2   129  ASN129      0.2292
    126  O         -0.2880   -9.7350   18.9140 O.2   129  ASN129     -0.2864
    127  CB        -2.9010  -10.8170   18.7270 C.3   129  ASN129      0.1181
    128  CG        -4.1630  -11.1700   19.4810 C.2   129  ASN129      0.2629
    129  OD1       -4.5960  -10.4260   20.3530 O.2   129  ASN129     -0.2716
    130  ND2       -4.7540  -12.3110   19.1580 N.am  129  ASN129     -0.0877
    131  N          1.4240   -6.1530   18.8170 N.3   131  LEU131     -0.1245
    132  CA         1.5880   -4.9030   19.5490 C.3   131  LEU131      0.1561
    133  C          2.8910   -4.2310   19.1490 C.2   131  LEU131      0.2260
    134  O          3.9280   -4.8920   19.0210 O.2   131  LEU131     -0.2867
    135  CB         1.5740   -5.1560   21.0550 C.3   131  LEU131      0.0270
    136  CG         0.3650   -5.9110   21.5950 C.3   131  LEU131      0.0019
    137  CD1        0.5210   -6.1140   23.0950 C.3   131  LEU131      0.0001
    138  CD2       -0.9270   -5.1490   21.2740 C.3   131  LEU131      0.0001
    139  N          1.1920  -11.0930   20.9430 N.3   141  ALA141     -0.1231
    140  CA         0.5030  -11.1600   22.2240 C.3   141  ALA141      0.1694
    141  C         -0.6100  -12.2040   22.1920 C.2   141  ALA141      0.2592
    142  O         -0.9720  -12.7380   21.1420 O.2   141  ALA141     -0.2718
    143  CB        -0.0820   -9.7920   22.6020 C.3   141  ALA141      0.0304
    144  N         -1.1530  -12.4690   23.3800 N.am  142  ASP142     -0.1960
    145  CA        -2.3760  -13.2420   23.5800 C.3   142  ASP142      0.1840
    146  C         -2.1960  -14.7020   23.2020 C.2   142  ASP142      0.2622
    147  O         -2.5680  -15.1310   22.1060 O.2   142  ASP142     -0.2715
    148  CB        -3.5550  -12.6500   22.8060 C.3   142  ASP142      0.1450
    149  CG        -4.8930  -13.1870   23.2980 C.2   142  ASP142      0.3671
    150  OD1       -4.8770  -14.0660   24.1830 O.co2 142  ASP142     -0.2456
    151  OD2       -5.9490  -12.7310   22.8050 O.co2 142  ASP142     -0.2456
    152  N         -1.6450  -15.4640   24.1360 N.am  143  PHE143     -0.1974
    153  CA        -1.4530  -16.9010   24.0230 C.3   143  PHE143      0.1639
    154  C         -2.5940  -17.6820   24.6630 C.2   143  PHE143      0.2290
    155  O         -2.4000  -18.8240   25.0900 O.2   143  PHE143     -0.2864
    156  CB        -0.0950  -17.2650   24.6320 C.3   143  PHE143      0.0560
    157  CG         1.0630  -16.8160   23.7880 C.ar  143  PHE143     -0.0200
    158  CD1        1.3910  -15.4660   23.6980 C.ar  143  PHE143     -0.0042
    159  CD2        1.7920  -17.7350   23.0360 C.ar  143  PHE143     -0.0042
    160  CE1        2.4340  -15.0330   22.8860 C.ar  143  PHE143     -0.0003
    161  CE2        2.8430  -17.3220   22.2210 C.ar  143  PHE143     -0.0003
    162  CZ         3.1650  -15.9630   22.1420 C.ar  143  PHE143     -0.0000
@<TRIPOS>BOND
     1   117   118    1
     2   113   112    2
     3   112   111    1
     4   118   121    1
     5   118   119    1
     6   121   122    1
     7   123   119   am
     8   123   124    1
     9   114   111    1
    10   114   115    1
    11   111   110    1
    12   119   120    2
    13   104   103    2
    14   125   124    1
    15   125   126    2
    16   124   127    1
    17   127   128    1
    18   131   132    1
    19   109   108    2
    20   134   133    2
    21   105   103   am
    22   103   102    1
    23   133   132    1
    24   130   128   am
    25   110   108   am
    26   110   116    1
    27   115   116    1
    28   128   129    2
    29   132   135    1
    30   108   107    1
    31   100    99    2
    32   101   102    1
    33   101    98    1
    34    99    98    1
    35    99   106   am
    36   139   140    1
    37   107   106    1
    38   135   136    1
    39   142   141    2
    40    98    97    1
    41   138   136    1
    42   136   137    1
    43   147   146    2
    44   162   161   ar
    45   162   160   ar
    46   141   140    1
    47   141   144   am
    48   161   159   ar
    49   140   143    1
    50    97    91   am
    51    87    86    1
    52   151   149   ar
    53   148   149    1
    54   148   145    1
    55   160   158   ar
    56   159   157   ar
    57    95    94    2
    58   146   145    1
    59   146   152   am
    60   149   150   ar
    61   144   145    1
    62    47    48    1
    63    96    94   am
    64    91    92    2
    65    91    90    1
    66   158   157   ar
    67   157   156    1
    68    94    93    1
    69    14    15    1
    70    14    13    1
    71    86    88    1
    72    86    83    1
    73    52    51    1
    74   153   152    1
    75   153   156    1
    76   153   154    1
    77    15    16    2
    78    85    84    2
    79    84    89   am
    80    84    83    1
    81    89    90    1
    82   154   155    2
    83    90    93    1
    84    48    51    1
    85    48    49    1
    86    83    82    1
    87    51    53    1
    88     4     3    2
    89    10    11    1
    90    10     9    1
    91    50    49    2
    92    11    12    2
    93    82    76   am
    94     3     9   am
    95     3     2    1
    96    77    76    2
    97    76    75    1
    98     2     5    1
    99     2     1    1
   100     5     7    1
   101     5     6    1
   102    46    44   ar
   103    68    67    2
   104    43    44    1
   105    43    42    1
   106    37    36    1
   107    44    45   ar
   108    23    21    1
   109     6     8    1
   110    80    79    1
   111    72    71   ar
   112    79    81    1
   113    79    78    1
   114    75    78    1
   115    75    74    1
   116    42    39    1
   117    63    61   ar
   118    63    64   ar
   119    39    38    1
   120    39    40    1
   121    21    22    1
   122    21    18    1
   123    61    59   ar
   124    67    74   am
   125    67    66    1
   126    36    35    1
   127    41    40    2
   128    69    66    1
   129    69    70    1
   130    64    62   ar
   131    28    25    1
   132    59    58    1
   133    59    60   ar
   134    71    70    1
   135    71    73   ar
   136    17    18    1
   137    58    55    1
   138    35    34    1
   139    20    19    2
   140    66    65    1
   141    18    19    1
   142    62    60   ar
   143    65    56   am
   144    34    33    1
   145    56    55    1
   146    56    57    2
   147    55    54    1
   148    25    24    1
   149    25    26    1
   150    33    30    1
   151    26    27    2
   152    30    29    1
   153    30    31    1
   154    31    32    2
