@<TRIPOS>MOLECULE
tmp/5yveA01.pdb
 97 94 0 0 0
SMALL
GASTEIGER

@<TRIPOS>ATOM
      1  N        -15.5630    5.0090  -42.1740 N.3   218  VAL218     -0.1245
      2  CA       -14.2890    5.0280  -42.8840 C.3   218  VAL218      0.1561
      3  C        -14.3950    6.0710  -43.9880 C.2   218  VAL218      0.2260
      4  O        -15.1520    5.8910  -44.9510 O.2   218  VAL218     -0.2867
      5  CB       -13.9320    3.6510  -43.4620 C.3   218  VAL218      0.0252
      6  CG1      -12.5910    3.7070  -44.1850 C.3   218  VAL218      0.0019
      7  CG2      -13.9110    2.6030  -42.3630 C.3   218  VAL218      0.0019
      8  N        -16.1260    5.2980  -47.5130 N.3   245  LEU245     -0.1231
      9  CA       -15.8030    3.9700  -48.0240 C.3   245  LEU245      0.1693
     10  C        -16.6290    2.8700  -47.3730 C.2   245  LEU245      0.2592
     11  O        -16.9560    1.8770  -48.0380 O.2   245  LEU245     -0.2718
     12  CB       -14.3080    3.6850  -47.8470 C.3   245  LEU245      0.0284
     13  CG       -13.3430    4.3700  -48.8260 C.3   245  LEU245      0.0019
     14  CD1      -13.4900    5.8740  -48.8330 C.3   245  LEU245      0.0001
     15  CD2      -11.9200    4.0300  -48.4680 C.3   245  LEU245      0.0001
     16  N        -16.9960    3.0180  -46.0980 N.am  246  ASP246     -0.1960
     17  CA       -17.9910    2.1230  -45.5100 C.3   246  ASP246      0.1840
     18  C        -19.4050    2.4890  -45.9540 C.2   246  ASP246      0.2623
     19  O        -20.3520    2.4800  -45.1620 O.2   246  ASP246     -0.2715
     20  CB       -17.8550    2.0970  -43.9860 C.3   246  ASP246      0.1450
     21  CG       -18.2390    3.3870  -43.3310 C.2   246  ASP246      0.3671
     22  OD1      -17.4640    4.3640  -43.4050 O.co2 246  ASP246     -0.2456
     23  OD2      -19.3210    3.4250  -42.7140 O.co2 246  ASP246     -0.2456
     24  N        -19.5450    2.8110  -47.2440 N.am  247  SER247     -0.1936
     25  CA       -20.8310    3.1310  -47.8430 C.3   247  SER247      0.2055
     26  C        -21.8460    2.0400  -47.5410 C.2   247  SER247      0.2643
     27  O        -21.5170    0.8520  -47.5050 O.2   247  SER247     -0.2714
     28  CB       -20.6750    3.3060  -49.3560 C.3   247  SER247      0.2130
     29  OG       -19.7040    2.4120  -49.8770 O.3   247  SER247     -0.2179
     30  N        -23.0870    2.4540  -47.3220 N.am  248  VAL248     -0.1963
     31  CA       -24.1150    1.5860  -46.7660 C.3   248  VAL248      0.1727
     32  C        -24.9840    1.1210  -47.9290 C.2   248  VAL248      0.2616
     33  O        -25.7580    1.8950  -48.5010 O.2   248  VAL248     -0.2715
     34  CB       -24.9240    2.3030  -45.6780 C.3   248  VAL248      0.0290
     35  CG1      -26.3130    1.6900  -45.5180 C.3   248  VAL248      0.0023
     36  CG2      -24.1600    2.3000  -44.3600 C.3   248  VAL248      0.0023
     37  N        -24.8260   -0.1450  -48.3070 N.am  249  SER249     -0.1950
     38  CA       -25.7460   -0.7610  -49.2480 C.3   249  SER249      0.1924
     39  C        -27.1000   -0.9680  -48.5790 C.2   249  SER249      0.2314
     40  O        -27.1970   -1.1240  -47.3590 O.2   249  SER249     -0.2863
     41  CB       -25.1910   -2.0940  -49.7490 C.3   249  SER249      0.2116
     42  OG       -25.1480   -3.0740  -48.7690 O.3   249  SER249     -0.2180
     43  N        -25.3940   -6.6560  -41.9130 N.3   254  VAL254     -0.1231
     44  CA       -24.2590   -6.4740  -41.0170 C.3   254  VAL254      0.1692
     45  C        -24.3300   -5.0540  -40.4700 C.2   254  VAL254      0.2593
     46  O        -24.7150   -4.1230  -41.1860 O.2   254  VAL254     -0.2718
     47  CB       -22.9160   -6.7370  -41.7350 C.3   254  VAL254      0.0266
     48  CG1      -22.8660   -5.9990  -43.0670 C.3   254  VAL254      0.0020
     49  CG2      -21.7340   -6.3570  -40.8470 C.3   254  VAL254      0.0020
     50  N        -23.9900   -4.8940  -39.1960 N.am  255  SER255     -0.1939
     51  CA       -24.0570   -3.5870  -38.5450 C.3   255  SER255      0.2040
     52  C        -23.1130   -2.6030  -39.2230 C.2   255  SER255      0.2485
     53  O        -21.9110   -2.8820  -39.3280 O.2   255  SER255     -0.2729
     54  CB       -23.7040   -3.7170  -37.0670 C.3   255  SER255      0.2129
     55  OG       -23.6970   -2.5550  -36.4010 O.3   255  SER255     -0.2179
     56  N        -23.5960   -1.4480  -39.6860 N.am  256  PRO256     -0.2715
     57  CA       -22.6880   -0.4640  -40.2820 C.3   256  PRO256      0.1536
     58  C        -21.8320    0.2190  -39.2290 C.2   256  PRO256      0.2599
     59  O        -22.0020   -0.0200  -38.0300 O.2   256  PRO256     -0.2715
     60  CB       -23.6520    0.5100  -40.9630 C.3   256  PRO256      0.0310
     61  CG       -24.8120    0.5370  -40.0220 C.3   256  PRO256      0.0237
     62  CD       -24.9630   -0.9100  -39.5590 C.3   256  PRO256      0.0939
     63  N        -20.9060    1.0610  -39.6610 N.am  257  GLY257     -0.1941
     64  CA       -20.0390    1.7450  -38.7300 C.3   257  GLY257      0.2014
     65  C        -18.7220    1.0310  -38.5270 C.2   257  GLY257      0.2638
     66  O        -18.3950    0.0370  -39.1820 O.2   257  GLY257     -0.2714
     67  N        -17.9530    1.5510  -37.5740 N.am  258  TYR258     -0.1973
     68  CA       -16.5790    1.1030  -37.3850 C.3   258  TYR258      0.1639
     69  C        -16.2490    1.1120  -35.9000 C.2   258  TYR258      0.2290
     70  O        -16.3410    2.1590  -35.2500 O.2   258  TYR258     -0.2864
     71  CB       -15.6230    2.0010  -38.1710 C.3   258  TYR258      0.0560
     72  CG       -14.1660    1.6540  -38.0200 C.ar  258  TYR258     -0.0198
     73  CD1      -13.6180    0.5660  -38.6860 C.ar  258  TYR258     -0.0009
     74  CD2      -13.3320    2.4240  -37.2260 C.ar  258  TYR258     -0.0009
     75  CE1      -12.2810    0.2500  -38.5550 C.ar  258  TYR258      0.0417
     76  CE2      -11.9960    2.1180  -37.0880 C.ar  258  TYR258      0.0417
     77  CZ       -11.4760    1.0310  -37.7540 C.ar  258  TYR258      0.1957
     78  OH       -10.1410    0.7280  -37.6140 O.3   258  TYR258     -0.2866
     79  N        -12.2880    6.3570  -39.1590 N.3   284  ARG284     -0.1245
     80  CA       -11.0220    5.9860  -39.7710 C.3   284  ARG284      0.1563
     81  C        -10.8240    6.7770  -41.0570 C.2   284  ARG284      0.2260
     82  O        -11.7600    6.9620  -41.8390 O.2   284  ARG284     -0.2867
     83  CB       -10.9760    4.4860  -40.0690 C.3   284  ARG284      0.0307
     84  CG        -9.6760    4.0460  -40.7240 C.3   284  ARG284      0.0489
     85  CD        -9.5590    2.5370  -40.8470 C.3   284  ARG284      0.2205
     86  NE        -9.1250    2.1520  -42.1880 N.pl3 284  ARG284     -0.0865
     87  CZ        -8.8310    0.9090  -42.5530 C.cat 284  ARG284      0.5346
     88  NH1       -8.9130   -0.0810  -41.6750 N.pl3 284  ARG284      0.1354
     89  NH2       -8.4450    0.6570  -43.7970 N.pl3 284  ARG284      0.1354
     90  N         -8.5390    7.1140  -44.5680 N.3   286  ASP286     -0.1239
     91  CA        -7.7000    6.3530  -45.4910 C.3   286  ASP286      0.1674
     92  C         -7.2190    7.2940  -46.5910 C.2   286  ASP286      0.2266
     93  O         -7.9430    7.5520  -47.5580 O.2   286  ASP286     -0.2867
     94  CB        -8.4640    5.1660  -46.0720 C.3   286  ASP286      0.1410
     95  CG        -8.6810    4.0580  -45.0590 C.2   286  ASP286      0.3668
     96  OD1       -8.7650    4.3590  -43.8500 O.co2 286  ASP286     -0.2456
     97  OD2       -8.7690    2.8820  -45.4730 O.co2 286  ASP286     -0.2456
@<TRIPOS>BOND
     1    29    28    1
     2    41    38    1
     3    41    42    1
     4    28    25    1
     5    38    39    1
     6    38    37    1
     7    14    13    1
     8    13    15    1
     9    13    12    1
    10    39    40    2
    11    33    32    2
    12    37    32   am
    13    11    10    2
    14     9    12    1
    15     9     8    1
    16     9    10    1
    17    32    31    1
    18    25    26    1
    19    25    24    1
    20    93    92    2
    21    26    27    2
    22    26    30   am
    23    10    16   am
    24    30    31    1
    25    24    18   am
    26    31    34    1
    27    92    91    1
    28    16    17    1
    29    94    91    1
    30    94    95    1
    31    18    17    1
    32    18    19    2
    33    34    35    1
    34    34    36    1
    35    17    20    1
    36    91    90    1
    37    97    95   ar
    38    95    96   ar
    39     4     3    2
    40     6     5    1
    41     3     2    1
    42    20    21    1
    43    89    87    1
    44     5     2    1
    45     5     7    1
    46    22    21   ar
    47    21    23   ar
    48    48    47    1
    49     2     1    1
    50    87    86    2
    51    87    88    1
    52    86    85    1
    53    43    44    1
    54    82    81    2
    55    47    44    1
    56    47    49    1
    57    46    45    2
    58    81    80    1
    59    44    45    1
    60    60    57    1
    61    60    61    1
    62    85    84    1
    63    84    83    1
    64    45    50   am
    65    57    56    1
    66    57    58    1
    67    83    80    1
    68    61    62    1
    69    80    79    1
    70    56    62    1
    71    56    52   am
    72    63    58   am
    73    63    64    1
    74    53    52    2
    75    58    59    2
    76    52    51    1
    77    50    51    1
    78    66    65    2
    79    64    65    1
    80    73    75   ar
    81    73    72   ar
    82    75    77   ar
    83    51    54    1
    84    65    67   am
    85    71    72    1
    86    71    68    1
    87    72    74   ar
    88    77    78    1
    89    77    76   ar
    90    67    68    1
    91    68    69    1
    92    74    76   ar
    93    54    55    1
    94    69    70    2
