@<TRIPOS>MOLECULE
tmp/5yvlC00.pdb
 144 142 0 0 0
SMALL
GASTEIGER

@<TRIPOS>ATOM
      1  N        -42.8400    1.0530   52.2410 N.3    21  ASP21      -0.1225
      2  CA       -41.9430   -0.0220   51.8250 C.3    21  ASP21       0.1805
      3  C        -41.5720    0.0330   50.3380 C.2    21  ASP21       0.2598
      4  O        -40.9440   -0.9010   49.8210 O.2    21  ASP21      -0.2718
      5  CB       -42.5290   -1.3910   52.1590 C.3    21  ASP21       0.1424
      6  CG       -42.5240   -1.6880   53.6570 C.2    21  ASP21       0.3668
      7  OD1      -41.7630   -1.0160   54.4100 O.co2  21  ASP21      -0.2456
      8  OD2      -43.2750   -2.6110   54.0890 O.co2  21  ASP21      -0.2456
      9  N        -41.8660    1.1220   49.6440 N.am   22  ASP22      -0.1960
     10  CA       -41.3190    1.2600   48.3010 C.3    22  ASP22       0.1840
     11  C        -39.8500    1.6990   48.3920 C.2    22  ASP22       0.2622
     12  O        -39.3880    2.1250   49.4440 O.2    22  ASP22      -0.2715
     13  CB       -42.0820    2.2750   47.4860 C.3    22  ASP22       0.1450
     14  CG       -41.8760    2.0980   46.0030 C.2    22  ASP22       0.3671
     15  OD1      -41.1770    1.1270   45.6010 O.co2  22  ASP22      -0.2456
     16  OD2      -42.3410    2.9790   45.2490 O.co2  22  ASP22      -0.2456
     17  N        -39.1000    1.4840   47.3080 N.am   23  TYR23      -0.1974
     18  CA       -37.6500    1.7500   47.3110 C.3    23  TYR23       0.1639
     19  C        -37.1430    1.9920   45.8980 C.2    23  TYR23       0.2290
     20  O        -37.7990    1.6360   44.9250 O.2    23  TYR23      -0.2864
     21  CB       -36.8900    0.6080   47.9570 C.3    23  TYR23       0.0560
     22  CG       -37.1150   -0.7130   47.3090 C.ar   23  TYR23      -0.0198
     23  CD1      -38.2240   -1.4810   47.6450 C.ar   23  TYR23      -0.0009
     24  CD2      -36.2100   -1.2290   46.3850 C.ar   23  TYR23      -0.0009
     25  CE1      -38.4490   -2.7360   47.0590 C.ar   23  TYR23       0.0417
     26  CE2      -36.4090   -2.4900   45.7890 C.ar   23  TYR23       0.0417
     27  CZ       -37.5370   -3.2370   46.1330 C.ar   23  TYR23       0.1957
     28  OH       -37.7620   -4.4720   45.5590 O.3    23  TYR23      -0.2866
     29  N        -28.2470   -4.7450   44.9340 N.3    50  ASN50      -0.1240
     30  CA       -28.6340   -3.3870   44.5980 C.3    50  ASN50       0.1653
     31  C        -28.4620   -2.5030   45.8130 C.2    50  ASN50       0.2266
     32  O        -28.1700   -2.9870   46.9080 O.2    50  ASN50      -0.2867
     33  CB       -30.0560   -3.3910   44.0360 C.3    50  ASN50       0.1155
     34  CG       -30.9800   -4.1990   44.8680 C.2    50  ASN50       0.2627
     35  OD1      -30.7380   -4.4550   46.0670 O.2    50  ASN50      -0.2716
     36  ND2      -31.9420   -4.7940   44.1940 N.am   50  ASN50      -0.0877
     37  N        -35.1690    3.8020   50.6430 N.3    54  GLY54      -0.1210
     38  CA       -36.4520    3.1810   50.9280 C.3    54  GLY54       0.1956
     39  C        -37.1800    3.9760   51.9830 C.2    54  GLY54       0.2612
     40  O        -36.5620    4.5870   52.8630 O.2    54  GLY54      -0.2717
     41  N        -38.5120    4.0090   51.8430 N.am   55  TYR55      -0.1962
     42  CA       -39.4150    4.6960   52.7610 C.3    55  TYR55       0.1771
     43  C        -39.8460    3.7420   53.8690 C.2    55  TYR55       0.2619
     44  O        -40.2760    2.6240   53.5960 O.2    55  TYR55      -0.2715
     45  CB       -40.6160    5.2670   52.0100 C.3    55  TYR55       0.0574
     46  CG       -41.7260    5.7460   52.9100 C.ar   55  TYR55      -0.0198
     47  CD1      -41.4760    6.5870   53.9640 C.ar   55  TYR55      -0.0009
     48  CD2      -43.0520    5.3950   52.6520 C.ar   55  TYR55      -0.0009
     49  CE1      -42.5180    7.0300   54.7670 C.ar   55  TYR55       0.0417
     50  CE2      -44.0960    5.8410   53.4560 C.ar   55  TYR55       0.0417
     51  CZ       -43.8270    6.6390   54.5110 C.ar   55  TYR55       0.1957
     52  OH       -44.8500    7.0860   55.3090 O.3    55  TYR55      -0.2866
     53  N        -39.6060    4.1370   55.1130 N.am   56  VAL56      -0.1977
     54  CA       -39.9960    3.3530   56.2710 C.3    56  VAL56       0.1596
     55  C        -41.1120    4.1170   56.9840 C.2    56  VAL56       0.2287
     56  O        -40.8610    5.1390   57.6310 O.2    56  VAL56      -0.2864
     57  CB       -38.8270    3.0980   57.2170 C.3    56  VAL56       0.0276
     58  CG1      -39.3100    2.2100   58.3770 C.3    56  VAL56       0.0022
     59  CG2      -37.6550    2.5260   56.4720 C.3    56  VAL56       0.0022
     60  N        -41.1620   -4.3760   57.4480 N.3    62  PHE62      -0.1227
     61  CA       -39.7640   -4.7380   57.6110 C.3    62  PHE62       0.1736
     62  C        -39.1150   -4.2190   58.8660 C.2    62  PHE62       0.2595
     63  O        -37.9730   -4.6030   59.1290 O.2    62  PHE62      -0.2718
     64  CB       -38.9620   -4.3040   56.3960 C.3    62  PHE62       0.0547
     65  CG       -39.4250   -4.9550   55.1500 C.ar   62  PHE62      -0.0202
     66  CD1      -39.3970   -6.3250   55.0430 C.ar   62  PHE62      -0.0042
     67  CD2      -39.8400   -4.2130   54.0800 C.ar   62  PHE62      -0.0042
     68  CE1      -39.8260   -6.9730   53.8870 C.ar   62  PHE62      -0.0003
     69  CE2      -40.2380   -4.8260   52.9030 C.ar   62  PHE62      -0.0003
     70  CZ       -40.2440   -6.2210   52.8100 C.ar   62  PHE62      -0.0000
     71  N        -39.7440   -3.3030   59.6000 N.am   63  TYR63      -0.1976
     72  CA       -39.1040   -2.8230   60.7990 C.3    63  TYR63       0.1639
     73  C        -40.0880   -2.6960   61.9480 C.2    63  TYR63       0.2290
     74  O        -41.3080   -2.6450   61.7620 O.2    63  TYR63      -0.2864
     75  CB       -38.4000   -1.4730   60.6130 C.3    63  TYR63       0.0560
     76  CG       -37.6180   -1.3540   59.3270 C.ar   63  TYR63      -0.0198
     77  CD1      -38.2390   -1.4620   58.1070 C.ar   63  TYR63      -0.0009
     78  CD2      -36.2320   -1.4380   59.3500 C.ar   63  TYR63      -0.0009
     79  CE1      -37.5440   -1.3990   56.9440 C.ar   63  TYR63       0.0417
     80  CE2      -35.4890   -1.4320   58.1680 C.ar   63  TYR63       0.0417
     81  CZ       -36.1570   -1.4090   56.9670 C.ar   63  TYR63       0.1957
     82  OH       -35.4490   -1.3960   55.7840 O.3    63  TYR63      -0.2866
     83  N        -34.4550    5.6260   54.5640 N.3    73  ILE73      -0.1245
     84  CA       -33.1620    5.0520   54.8940 C.3    73  ILE73       0.1561
     85  C        -32.5040    4.7380   53.5520 C.2    73  ILE73       0.2260
     86  O        -33.1550    4.7730   52.5100 O.2    73  ILE73      -0.2867
     87  CB       -33.2990    3.7880   55.7770 C.3    73  ILE73       0.0252
     88  CG1      -34.2620    2.7610   55.1400 C.3    73  ILE73       0.0019
     89  CG2      -33.8650    4.1280   57.1550 C.3    73  ILE73       0.0019
     90  CD1      -33.6770    1.8910   53.9930 C.3    73  ILE73       0.0001
     91  N        -30.3110    1.6780   51.6300 N.3    75  TYR75      -0.1241
     92  CA       -30.1270    0.2590   51.8740 C.3    75  TYR75       0.1605
     93  C        -29.1260   -0.2510   50.8600 C.2    75  TYR75       0.2264
     94  O        -28.9300    0.3650   49.8090 O.2    75  TYR75      -0.2867
     95  CB       -31.4340   -0.5450   51.7650 C.3    75  TYR75       0.0534
     96  CG       -31.8090   -0.7400   50.3190 C.ar   75  TYR75      -0.0201
     97  CD1      -32.4960    0.2530   49.6150 C.ar   75  TYR75      -0.0009
     98  CD2      -31.4320   -1.8880   49.6520 C.ar   75  TYR75      -0.0009
     99  CE1      -32.7650    0.1110   48.2850 C.ar   75  TYR75       0.0417
    100  CE2      -31.7030   -2.0520   48.3100 C.ar   75  TYR75       0.0417
    101  CZ       -32.3700   -1.0470   47.6400 C.ar   75  TYR75       0.1957
    102  OH       -32.6430   -1.2160   46.3270 O.3    75  TYR75      -0.2866
    103  N        -28.2490   -4.2140   49.4160 N.3    77  TYR77      -0.1241
    104  CA       -28.6050   -5.6280   49.4370 C.3    77  TYR77       0.1605
    105  C        -27.6530   -6.3560   48.5140 C.2    77  TYR77       0.2264
    106  O        -27.5050   -5.9530   47.3530 O.2    77  TYR77      -0.2867
    107  CB       -30.0720   -5.8700   48.9700 C.3    77  TYR77       0.0534
    108  CG       -30.2900   -7.3440   48.7510 C.ar   77  TYR77      -0.0201
    109  CD1      -30.3270   -8.2220   49.8110 C.ar   77  TYR77      -0.0009
    110  CD2      -30.3570   -7.8610   47.4790 C.ar   77  TYR77      -0.0009
    111  CE1      -30.4520   -9.6040   49.5900 C.ar   77  TYR77       0.0417
    112  CE2      -30.4970   -9.2170   47.2580 C.ar   77  TYR77       0.0417
    113  CZ       -30.5410  -10.0750   48.2910 C.ar   77  TYR77       0.1957
    114  OH       -30.6700  -11.4170   48.0070 O.3    77  TYR77      -0.2866
    115  N        -32.7270   -5.4000   58.7500 N.3   112  PHE112     -0.1241
    116  CA       -34.1040   -5.6920   58.3170 C.3   112  PHE112      0.1605
    117  C        -34.7430   -6.6960   59.2460 C.2   112  PHE112      0.2264
    118  O        -34.0760   -7.5610   59.7980 O.2   112  PHE112     -0.2867
    119  CB       -34.2210   -6.2920   56.9130 C.3   112  PHE112      0.0534
    120  CG       -33.8980   -5.3610   55.8120 C.ar  112  PHE112     -0.0203
    121  CD1      -32.7210   -4.6670   55.7980 C.ar  112  PHE112     -0.0042
    122  CD2      -34.8400   -5.0690   54.8550 C.ar  112  PHE112     -0.0042
    123  CE1      -32.4450   -3.7860   54.7850 C.ar  112  PHE112     -0.0003
    124  CE2      -34.5810   -4.1600   53.8510 C.ar  112  PHE112     -0.0003
    125  CZ       -33.3720   -3.5140   53.8220 C.ar  112  PHE112     -0.0000
    126  N        -36.2110  -12.2870   56.6300 N.3   121  LEU121     -0.1245
    127  CA       -35.2560  -11.1850   56.6110 C.3   121  LEU121      0.1561
    128  C        -34.4170  -11.1670   57.8840 C.2   121  LEU121      0.2260
    129  O        -33.6670  -10.2320   58.1370 O.2   121  LEU121     -0.2867
    130  CB       -35.9740   -9.8500   56.4410 C.3   121  LEU121      0.0270
    131  CG       -36.6070   -9.6060   55.0750 C.3   121  LEU121      0.0019
    132  CD1      -36.4530   -8.1560   54.6540 C.3   121  LEU121      0.0001
    133  CD2      -35.9890  -10.5270   54.0430 C.3   121  LEU121      0.0001
    134  N        -29.8990  -12.7440   56.4370 N.3   184  PHE184     -0.1241
    135  CA       -30.2530  -11.9860   55.2250 C.3   184  PHE184      0.1605
    136  C        -29.2020  -10.9260   54.8760 C.2   184  PHE184      0.2264
    137  O        -28.7400  -10.2370   55.7590 O.2   184  PHE184     -0.2867
    138  CB       -31.5890  -11.3190   55.4800 C.3   184  PHE184      0.0534
    139  CG       -32.0060  -10.3910   54.4230 C.ar  184  PHE184     -0.0203
    140  CD1      -32.4050  -10.8540   53.1890 C.ar  184  PHE184     -0.0042
    141  CD2      -32.0460   -9.0430   54.6750 C.ar  184  PHE184     -0.0042
    142  CE1      -32.7880   -9.9800   52.2030 C.ar  184  PHE184     -0.0003
    143  CE2      -32.4660   -8.1750   53.7050 C.ar  184  PHE184     -0.0003
    144  CZ       -32.8260   -8.6380   52.4650 C.ar  184  PHE184     -0.0000
@<TRIPOS>BOND
     1    33    30    1
     2    33    34    1
     3    36    34   am
     4    30    29    1
     5    30    31    1
     6    34    35    2
     7    20    19    2
     8    16    14   ar
     9    28    27    1
    10    15    14   ar
    11    26    27   ar
    12    26    24   ar
    13    31    32    2
    14    19    18    1
    15    14    13    1
    16    27    25   ar
    17   102   101    1
    18    24    22   ar
    19    25    23   ar
    20   112   110   ar
    21   112   113   ar
    22    17    18    1
    23    17    11   am
    24    22    23   ar
    25    22    21    1
    26    18    21    1
    27   106   105    2
    28   110   108   ar
    29    13    10    1
    30   101    99   ar
    31   101   100   ar
    32   114   113    1
    33    99    97   ar
    34   113   111   ar
    35    10    11    1
    36    10     9    1
    37   100    98   ar
    38    11    12    2
    39   105   104    1
    40   108   107    1
    41   108   109   ar
    42   107   104    1
    43   103   104    1
    44   111   109   ar
    45    97    96   ar
    46     9     3   am
    47    98    96   ar
    48    94    93    2
    49     4     3    2
    50    96    95    1
    51     3     2    1
    52    37    38    1
    53    93    92    1
    54    38    39    1
    55    91    92    1
    56    95    92    1
    57     2     5    1
    58     2     1    1
    59    41    39   am
    60    41    42    1
    61    39    40    2
    62    45    42    1
    63    45    46    1
    64     5     6    1
    65   142   144   ar
    66   142   140   ar
    67   144   143   ar
    68    86    85    2
    69    48    46   ar
    70    48    50   ar
    71    42    43    1
    72    70    69   ar
    73    70    68   ar
    74    69    67   ar
    75    46    47   ar
    76   140   139   ar
    77    50    51   ar
    78    85    84    1
    79    44    43    2
    80     6     8   ar
    81     6     7   ar
    82   143   141   ar
    83   125   124   ar
    84   125   123   ar
    85   124   122   ar
    86    43    53   am
    87    68    66   ar
    88    47    49   ar
    89    90    88    1
    90   133   131    1
    91    67    65   ar
    92   139   141   ar
    93   139   138    1
    94    51    49   ar
    95    51    52    1
    96    83    84    1
    97   132   131    1
    98   123   121   ar
    99   122   120   ar
   100   136   135    1
   101   136   137    2
   102    84    87    1
   103    66    65   ar
   104   131   130    1
   105    53    54    1
   106    88    87    1
   107    65    64    1
   108   135   138    1
   109   135   134    1
   110    87    89    1
   111    82    81    1
   112   121   120   ar
   113   120   119    1
   114    54    55    1
   115    54    57    1
   116    64    61    1
   117   130   127    1
   118    59    57    1
   119   127   126    1
   120   127   128    1
   121   119   116    1
   122    79    81   ar
   123    79    77   ar
   124    81    80   ar
   125    55    56    2
   126    57    58    1
   127    60    61    1
   128    61    62    1
   129   128   129    2
   130    77    76   ar
   131    80    78   ar
   132   116   115    1
   133   116   117    1
   134    62    63    2
   135    62    71   am
   136   117   118    2
   137    76    78   ar
   138    76    75    1
   139    71    72    1
   140    75    72    1
   141    72    73    1
   142    74    73    2
