@<TRIPOS>MOLECULE
tmp/5yvoA01.pdb
 84 78 0 0 0
SMALL
GASTEIGER

@<TRIPOS>ATOM
      1  N        -17.4470   30.4580   33.5670 N.3   106  TYR106     -0.1241
      2  CA       -17.1110   29.3560   34.4570 C.3   106  TYR106      0.1605
      3  C        -18.0280   28.1650   34.2150 C.2   106  TYR106      0.2264
      4  O        -17.5820   27.0200   34.1670 O.2   106  TYR106     -0.2867
      5  CB       -17.1620   29.7520   35.9380 C.3   106  TYR106      0.0534
      6  CG       -16.9800   28.5570   36.8250 C.ar  106  TYR106     -0.0201
      7  CD1      -15.7510   27.9140   36.8880 C.ar  106  TYR106     -0.0009
      8  CD2      -18.0760   27.9090   37.3740 C.ar  106  TYR106     -0.0009
      9  CE1      -15.5810   26.7540   37.6090 C.ar  106  TYR106      0.0417
     10  CE2      -17.9220   26.7370   38.0970 C.ar  106  TYR106      0.0417
     11  CZ       -16.6790   26.1530   38.1930 C.ar  106  TYR106      0.1957
     12  OH       -16.5340   24.9740   38.8850 O.3   106  TYR106     -0.2866
     13  N        -17.0590   24.4480   33.1800 N.3   110  CYS110     -0.1235
     14  CA       -17.4730   23.3030   33.9550 C.3   110  CYS110      0.1677
     15  C        -18.0320   22.1860   33.0680 C.2   110  CYS110      0.2270
     16  O        -17.7000   21.0160   33.2270 O.2   110  CYS110     -0.2867
     17  CB       -18.5060   23.7260   34.9940 C.3   110  CYS110      0.0956
     18  SG       -19.0870   22.3390   35.9740 S.3   110  CYS110     -0.0801
     19  N        -15.1130   20.5560   31.5220 N.3   113  MET113     -0.1230
     20  CA       -14.3880   19.6820   32.4390 C.3   113  MET113      0.1702
     21  C        -15.1270   18.3540   32.6450 C.2   113  MET113      0.2592
     22  O        -14.5050   17.3080   32.7740 O.2   113  MET113     -0.2718
     23  CB       -14.1530   20.3640   33.7840 C.3   113  MET113      0.0401
     24  CG       -13.1370   21.4820   33.7170 C.3   113  MET113      0.0596
     25  SD       -12.7980   22.2320   35.3260 S.3   113  MET113     -0.1393
     26  CE       -14.0310   23.5090   35.4130 C.3   113  MET113      0.0692
     27  N        -16.4480   18.3890   32.6360 N.am  114  ILE114     -0.1980
     28  CA       -17.2070   17.1470   32.7190 C.3   114  ILE114      0.1595
     29  C        -16.9930   16.2950   31.4710 C.2   114  ILE114      0.2287
     30  O        -16.8630   15.0790   31.5660 O.2   114  ILE114     -0.2864
     31  CB       -18.7100   17.4090   32.9540 C.3   114  ILE114      0.0276
     32  CG1      -18.9070   18.1020   34.3030 C.3   114  ILE114      0.0022
     33  CG2      -19.4980   16.1010   32.9190 C.3   114  ILE114      0.0022
     34  CD1      -20.2660   18.7310   34.4820 C.3   114  ILE114      0.0001
     35  N        -13.9080   14.4480   32.0360 N.3   117  LEU117     -0.1245
     36  CA       -14.0680   13.3060   32.9460 C.3   117  LEU117      0.1561
     37  C        -14.6160   12.1040   32.1830 C.2   117  LEU117      0.2260
     38  O        -14.3850   10.9610   32.5700 O.2   117  LEU117     -0.2867
     39  CB       -15.0050   13.6180   34.1140 C.3   117  LEU117      0.0270
     40  CG       -14.5810   14.6340   35.1790 C.3   117  LEU117      0.0019
     41  CD1      -15.7340   14.9530   36.1200 C.3   117  LEU117      0.0001
     42  CD2      -13.3870   14.1160   35.9690 C.3   117  LEU117      0.0001
     43  N        -16.5190    8.6780   38.3810 N.3   150  LYS150     -0.1245
     44  CA       -16.1440   10.0720   38.1710 C.3   150  LYS150      0.1561
     45  C        -17.3740   10.9150   37.8550 C.2   150  LYS150      0.2260
     46  O        -17.5120   12.0300   38.3590 O.2   150  LYS150     -0.2867
     47  CB       -15.1170   10.2010   37.0530 C.3   150  LYS150      0.0271
     48  CG       -13.7660    9.5800   37.3920 C.3   150  LYS150      0.0035
     49  CD       -13.0640    8.9970   36.1800 C.3   150  LYS150      0.0206
     50  CE       -12.1470    9.9790   35.4930 C.3   150  LYS150      0.1093
     51  NZ       -11.1610    9.2880   34.6060 N.3   150  LYS150     -0.1314
     52  N        -19.7840   11.3680   40.8580 N.3   153  GLU153     -0.1231
     53  CA       -19.3780   12.3390   41.8570 C.3   153  GLU153      0.1699
     54  C        -19.8790   13.7320   41.4860 C.2   153  GLU153      0.2592
     55  O        -20.3090   14.5030   42.3510 O.2   153  GLU153     -0.2718
     56  CB       -17.8570   12.3570   42.0330 C.3   153  GLU153      0.0402
     57  CG       -17.2830   11.1090   42.6850 C.3   153  GLU153      0.1161
     58  CD       -15.7660   11.0400   42.5660 C.2   153  GLU153      0.3649
     59  OE1      -15.1670   12.0280   42.0710 O.co2 153  GLU153     -0.2457
     60  OE2      -15.1770   10.0010   42.9500 O.co2 153  GLU153     -0.2457
     61  N        -19.8700   14.0420   40.1910 N.am  154  VAL154     -0.1980
     62  CA       -20.3830   15.3250   39.7350 C.3   154  VAL154      0.1595
     63  C        -21.8590   15.4840   40.0970 C.2   154  VAL154      0.2287
     64  O        -22.2650   16.4990   40.6550 O.2   154  VAL154     -0.2864
     65  CB       -20.2140   15.4990   38.2160 C.3   154  VAL154      0.0276
     66  CG1      -20.7860   16.8320   37.7870 C.3   154  VAL154      0.0022
     67  CG2      -18.7470   15.4010   37.8340 C.3   154  VAL154      0.0022
     68  N        -22.5060   16.0560   43.9650 N.3   157  ASN157     -0.1225
     69  CA       -22.3380   17.4290   44.4570 C.3   157  ASN157      0.1785
     70  C        -23.4170   18.3720   43.9500 C.2   157  ASN157      0.2597
     71  O        -23.9420   19.2050   44.7070 O.2   157  ASN157     -0.2718
     72  CB       -20.9780   17.9820   44.0830 C.3   157  ASN157      0.1169
     73  CG       -20.7780   19.4100   44.5830 C.2   157  ASN157      0.2627
     74  OD1      -20.7570   20.3580   43.7970 O.2   157  ASN157     -0.2716
     75  ND2      -20.6700   19.5680   45.9020 N.am  157  ASN157     -0.0877
     76  N        -23.7590   18.2620   42.6680 N.am  158  LYS158     -0.1980
     77  CA       -24.6590   19.2240   42.0610 C.3   158  LYS158      0.1596
     78  C        -26.0950   18.9710   42.4570 C.2   158  LYS158      0.2287
     79  O        -26.9000   19.9070   42.5370 O.2   158  LYS158     -0.2864
     80  CB       -24.5430   19.1780   40.5420 C.3   158  LYS158      0.0298
     81  CG       -23.2760   19.8150   40.0040 C.3   158  LYS158      0.0038
     82  CD       -23.3440   19.8660   38.4810 C.3   158  LYS158      0.0206
     83  CE       -22.2670   20.7620   37.8840 C.3   158  LYS158      0.1093
     84  NZ       -22.7200   21.3790   36.6030 N.3   158  LYS158     -0.1314
@<TRIPOS>BOND
     1    29    30    2
     2    29    28    1
     3    19    20    1
     4    35    36    1
     5    37    38    2
     6    37    36    1
     7    20    21    1
     8    20    23    1
     9    27    21   am
    10    27    28    1
    11    21    22    2
    12    28    31    1
    13    33    31    1
    14    36    39    1
    15    31    32    1
    16    15    16    2
    17    15    14    1
    18    13    14    1
    19     1     2    1
    20    24    23    1
    21    24    25    1
    22    14    17    1
    23    39    40    1
    24     4     3    2
    25     3     2    1
    26    32    34    1
    27     2     5    1
    28    51    50    1
    29    17    18    1
    30    40    42    1
    31    40    41    1
    32    25    26    1
    33    50    49    1
    34     5     6    1
    35    49    48    1
    36    84    83    1
    37     6     7   ar
    38     6     8   ar
    39     7     9   ar
    40    47    48    1
    41    47    44    1
    42     8    10   ar
    43     9    11   ar
    44    66    65    1
    45    67    65    1
    46    45    44    1
    47    45    46    2
    48    83    82    1
    49    10    11   ar
    50    44    43    1
    51    11    12    1
    52    65    62    1
    53    82    81    1
    54    62    63    1
    55    62    61    1
    56    81    80    1
    57    63    64    2
    58    61    54   am
    59    80    77    1
    60    52    53    1
    61    54    53    1
    62    54    55    2
    63    53    56    1
    64    56    57    1
    65    77    78    1
    66    77    76    1
    67    59    58   ar
    68    78    79    2
    69    58    57    1
    70    58    60   ar
    71    76    70   am
    72    74    73    2
    73    70    69    1
    74    70    71    2
    75    68    69    1
    76    72    69    1
    77    72    73    1
    78    73    75   am
