@<TRIPOS>MOLECULE
tmp/5yvoA00.pdb
 199 194 0 0 0
SMALL
GASTEIGER

@<TRIPOS>ATOM
      1  N        -23.4890    9.0570    9.8270 N.3    27  MET27      -0.1245
      2  CA       -23.7840    7.6350    9.6190 C.3    27  MET27       0.1570
      3  C        -24.7250    7.2380   10.7360 C.2    27  MET27       0.2261
      4  O        -24.5550    7.6890   11.8720 O.2    27  MET27      -0.2867
      5  CB       -22.5010    6.7970    9.6630 C.3    27  MET27       0.0387
      6  CG       -22.6390    5.3880    9.0950 C.3    27  MET27       0.0595
      7  SD       -23.2710    4.1930   10.2910 S.3    27  MET27      -0.1393
      8  CE       -21.8050    3.8670   11.2470 C.3    27  MET27       0.0692
      9  N        -25.5400    4.9270   12.7000 N.3    29  PHE29      -0.1227
     10  CA       -25.1580    4.1900   13.8920 C.3    29  PHE29       0.1736
     11  C        -23.9070    4.7560   14.5580 C.2    29  PHE29       0.2596
     12  O        -23.4030    4.1920   15.5270 O.2    29  PHE29      -0.2718
     13  CB       -24.9740    2.7080   13.5520 C.3    29  PHE29       0.0547
     14  CG       -26.1940    2.0840   12.9330 C.ar   29  PHE29      -0.0202
     15  CD1      -27.3250    1.8410   13.6930 C.ar   29  PHE29      -0.0042
     16  CD2      -26.2300    1.7920   11.5790 C.ar   29  PHE29      -0.0042
     17  CE1      -28.4570    1.3060   13.1270 C.ar   29  PHE29      -0.0003
     18  CE2      -27.3670    1.2750   11.0040 C.ar   29  PHE29      -0.0003
     19  CZ       -28.4900    1.0500   11.7750 C.ar   29  PHE29      -0.0000
     20  N        -23.4550    5.9200   14.0950 N.am   30  CYS30      -0.1957
     21  CA       -22.2110    6.5190   14.5800 C.3    30  CYS30       0.1828
     22  C        -22.4560    7.4150   15.8100 C.2    30  CYS30       0.2467
     23  O        -23.1310    8.4320   15.6850 O.2    30  CYS30      -0.2730
     24  CB       -21.6310    7.3670   13.4540 C.3    30  CYS30       0.0996
     25  SG       -20.1530    8.2730   13.8600 S.3    30  CYS30      -0.0797
     26  N        -21.9090    7.0580   16.9960 N.am   31  PRO31      -0.2715
     27  CA       -22.2220    7.8900   18.1600 C.3    31  PRO31       0.1536
     28  C        -21.6070    9.2950   18.1030 C.2    31  PRO31       0.2598
     29  O        -22.1780   10.2510   18.6280 O.2    31  PRO31      -0.2715
     30  CB       -21.6410    7.0900   19.3410 C.3    31  PRO31       0.0310
     31  CG       -20.6000    6.2140   18.7370 C.3    31  PRO31       0.0237
     32  CD       -21.1520    5.8510   17.3770 C.3    31  PRO31       0.0939
     33  N        -20.4410    9.4210   17.4900 N.am   32  PHE32      -0.1974
     34  CA       -19.8530   10.7370   17.3520 C.3    32  PHE32       0.1639
     35  C        -20.7550   11.6430   16.5420 C.2    32  PHE32       0.2290
     36  O        -20.9810   12.7780   16.9340 O.2    32  PHE32      -0.2864
     37  CB       -18.4610   10.6730   16.7450 C.3    32  PHE32       0.0560
     38  CG       -17.4070   10.2410   17.7180 C.ar   32  PHE32      -0.0200
     39  CD1      -17.1200   11.0040   18.8360 C.ar   32  PHE32      -0.0042
     40  CD2      -16.7490    9.0370   17.5510 C.ar   32  PHE32      -0.0042
     41  CE1      -16.1580   10.6000   19.7390 C.ar   32  PHE32      -0.0003
     42  CE2      -15.7940    8.6210   18.4610 C.ar   32  PHE32      -0.0003
     43  CZ       -15.4560    9.4310   19.5190 C.ar   32  PHE32      -0.0000
     44  N        -18.9310    4.1270    5.8410 N.3    54  LEU54      -0.1231
     45  CA       -17.6390    4.2700    6.4930 C.3    54  LEU54       0.1693
     46  C        -16.7280    3.0640    6.2400 C.2    54  LEU54       0.2591
     47  O        -15.5300    3.1390    6.4830 O.2    54  LEU54      -0.2718
     48  CB       -17.8190    4.4940    7.9950 C.3    54  LEU54       0.0284
     49  CG       -18.5870    5.7760    8.3610 C.3    54  LEU54       0.0019
     50  CD1      -18.8190    5.8840    9.8630 C.3    54  LEU54       0.0001
     51  CD2      -17.8450    7.0060    7.8480 C.3    54  LEU54       0.0001
     52  N        -17.2910    1.9770    5.7280 N.am   55  LYS55      -0.1980
     53  CA       -16.4950    0.8060    5.3380 C.3    55  LYS55       0.1596
     54  C        -16.1260    0.8050    3.8610 C.2    55  LYS55       0.2287
     55  O        -15.4090   -0.0870    3.3930 O.2    55  LYS55      -0.2864
     56  CB       -17.2400   -0.4770    5.6800 C.3    55  LYS55       0.0298
     57  CG       -17.3060   -0.7570    7.1720 C.3    55  LYS55       0.0038
     58  CD       -15.9110   -1.0260    7.7140 C.3    55  LYS55       0.0206
     59  CE       -15.9500   -1.4880    9.1650 C.3    55  LYS55       0.1093
     60  NZ       -14.5810   -1.5410    9.7450 N.3    55  LYS55      -0.1314
     61  N        -15.6850    4.1850    1.6850 N.3    57  LYS57      -0.1245
     62  CA       -15.9130    5.6300    1.6340 C.3    57  LYS57       0.1561
     63  C        -15.7740    6.1570    0.2170 C.2    57  LYS57       0.2260
     64  O        -14.9600    5.6650   -0.5460 O.2    57  LYS57      -0.2867
     65  CB       -14.9330    6.3630    2.5320 C.3    57  LYS57       0.0271
     66  CG       -15.1160    6.0980    4.0140 C.3    57  LYS57       0.0035
     67  CD       -13.9530    6.6600    4.8130 C.3    57  LYS57       0.0206
     68  CE       -14.0460    6.2030    6.2520 C.3    57  LYS57       0.1093
     69  NZ       -12.9700    6.7160    7.1390 N.3    57  LYS57      -0.1314
     70  N        -13.5660   11.2760    8.5870 N.3    69  LEU69      -0.1231
     71  CA       -14.4500   10.8600    9.6650 C.3    69  LEU69       0.1693
     72  C        -15.7460   11.6550    9.6340 C.2    69  LEU69       0.2591
     73  O        -15.7610   12.7920    9.1930 O.2    69  LEU69      -0.2718
     74  CB       -13.7730   11.0760   11.0080 C.3    69  LEU69       0.0284
     75  CG       -12.4090   10.4130   11.2310 C.3    69  LEU69       0.0019
     76  CD1      -11.8590   10.7440   12.6120 C.3    69  LEU69       0.0001
     77  CD2      -12.4980    8.9060   11.0420 C.3    69  LEU69       0.0001
     78  N        -16.8430   11.0410   10.0540 N.am   70  VAL70      -0.1980
     79  CA       -18.0510   11.7960   10.3720 C.3    70  VAL70       0.1595
     80  C        -18.1090   12.0420   11.8800 C.2    70  VAL70       0.2287
     81  O        -17.4920   11.2960   12.6430 O.2    70  VAL70      -0.2864
     82  CB       -19.3230   11.0920    9.8610 C.3    70  VAL70       0.0276
     83  CG1      -19.2910   10.9950    8.3350 C.3    70  VAL70       0.0022
     84  CG2      -19.5000    9.7210   10.4800 C.3    70  VAL70       0.0022
     85  N        -15.3590    6.6200   25.3400 N.3   122  PRO122     -0.2116
     86  CA       -15.5040    6.1780   23.9440 C.3   122  PRO122      0.1372
     87  C        -14.4830    5.1170   23.5020 C.2   122  PRO122      0.2244
     88  O        -14.8620    4.1520   22.8500 O.2   122  PRO122     -0.2868
     89  CB       -15.3110    7.4690   23.1560 C.3   122  PRO122      0.0268
     90  CG       -15.8210    8.5310   24.0840 C.3   122  PRO122      0.0207
     91  CD       -15.3230    8.0940   25.4330 C.3   122  PRO122      0.0892
     92  N        -15.5310    1.7510   25.0560 N.3   125  VAL125     -0.1231
     93  CA       -16.6180    1.1280   24.3310 C.3   125  VAL125      0.1692
     94  C        -16.0550    0.4220   23.1050 C.2   125  VAL125      0.2592
     95  O        -16.4920   -0.6770   22.7520 O.2   125  VAL125     -0.2718
     96  CB       -17.6700    2.1620   23.9010 C.3   125  VAL125      0.0266
     97  CG1      -18.7420    1.4940   23.0540 C.3   125  VAL125      0.0020
     98  CG2      -18.2970    2.8080   25.1270 C.3   125  VAL125      0.0020
     99  N        -15.0310    1.0250   22.5200 N.am  126  GLY126     -0.1957
    100  CA       -14.2310    0.3910   21.4840 C.3   126  GLY126      0.1869
    101  C        -13.6710   -0.9530   21.8890 C.2   126  GLY126      0.2309
    102  O        -13.9270   -1.9520   21.2210 O.2   126  GLY126     -0.2863
    103  N        -16.5660   -3.7220   22.5130 N.3   129  ILE129     -0.1245
    104  CA       -17.0750   -4.4630   21.3810 C.3   129  ILE129      0.1561
    105  C        -16.0210   -5.3920   20.7810 C.2   129  ILE129      0.2260
    106  O        -16.3870   -6.3570   20.1310 O.2   129  ILE129     -0.2867
    107  CB       -17.7100   -3.5770   20.3010 C.3   129  ILE129      0.0252
    108  CG1      -16.6810   -2.6200   19.6880 C.3   129  ILE129      0.0019
    109  CG2      -18.9230   -2.8730   20.8870 C.3   129  ILE129      0.0019
    110  CD1      -17.2310   -1.7480   18.5750 C.3   129  ILE129      0.0001
    111  N        -22.8980    7.1790   23.9480 N.3   178  TRP178     -0.1241
    112  CA       -22.2150    6.0130   24.4580 C.3   178  TRP178      0.1605
    113  C        -23.0450    5.3020   25.5150 C.2   178  TRP178      0.2264
    114  O        -23.0100    4.0750   25.5970 O.2   178  TRP178     -0.2867
    115  CB       -20.8250    6.3750   24.9880 C.3   178  TRP178      0.0550
    116  CG       -19.9160    6.6320   23.8590 C.ar  178  TRP178      0.0003
    117  CD1      -19.1900    5.7060   23.1490 C.ar  178  TRP178      0.0946
    118  CD2      -19.8440    7.8410   23.1210 C.ar  178  TRP178      0.0152
    119  NE1      -18.6270    6.2920   22.0500 N.ar  178  TRP178     -0.2442
    120  CE2      -19.0100    7.6050   22.0060 C.ar  178  TRP178      0.0810
    121  CE3      -20.3990    9.1040   23.2920 C.ar  178  TRP178      0.0012
    122  CZ2      -18.6710    8.6080   21.1000 C.ar  178  TRP178      0.0191
    123  CZ3      -20.1110   10.0860   22.3560 C.ar  178  TRP178      0.0001
    124  CH2      -19.2150    9.8420   21.3020 C.ar  178  TRP178      0.0015
    125  N        -25.6870    3.0940   23.8480 N.3   181  ARG181     -0.1245
    126  CA       -25.1930    1.8170   23.3740 C.3   181  ARG181      0.1563
    127  C        -24.8660    0.8270   24.5060 C.2   181  ARG181      0.2260
    128  O        -24.8500   -0.3760   24.2670 O.2   181  ARG181     -0.2867
    129  CB       -23.9960    2.0350   22.4660 C.3   181  ARG181      0.0307
    130  CG       -24.4300    2.6270   21.1150 C.3   181  ARG181      0.0489
    131  CD       -23.3940    3.5250   20.4760 C.3   181  ARG181      0.2205
    132  NE       -23.8700    4.0200   19.1770 N.pl3 181  ARG181     -0.0865
    133  CZ       -24.7260    5.0300   19.0150 C.cat 181  ARG181      0.5346
    134  NH1      -25.1920    5.6930   20.0670 N.pl3 181  ARG181      0.1354
    135  NH2      -25.1090    5.3920   17.7920 N.pl3 181  ARG181      0.1354
    136  N        -24.7260   -3.4080   24.5760 N.3   185  MET185     -0.1245
    137  CA       -23.3990   -3.9440   24.8220 C.3   185  MET185      0.1570
    138  C        -23.3760   -4.8060   26.0900 C.2   185  MET185      0.2261
    139  O        -22.3270   -5.3220   26.4620 O.2   185  MET185     -0.2867
    140  CB       -22.3800   -2.8060   24.9440 C.3   185  MET185      0.0387
    141  CG       -22.0790   -2.0880   23.6380 C.3   185  MET185      0.0595
    142  SD       -21.2010   -0.5420   23.9280 S.3   185  MET185     -0.1393
    143  CE       -19.5870   -1.1320   24.3900 C.3   185  MET185      0.0692
    144  N        -29.2830   -1.6230   16.4440 N.3   220  TRP220     -0.1241
    145  CA       -27.8930   -1.4450   16.8150 C.3   220  TRP220      0.1605
    146  C        -27.1200   -2.7680   16.7390 C.2   220  TRP220      0.2264
    147  O        -25.9750   -2.8150   16.2780 O.2   220  TRP220     -0.2867
    148  CB       -27.7840   -0.8440   18.2080 C.3   220  TRP220      0.0550
    149  CG       -26.4400   -0.9540   18.7410 C.ar  220  TRP220      0.0003
    150  CD1      -25.9840   -1.9050   19.6170 C.ar  220  TRP220      0.0946
    151  CD2      -25.2940   -0.2230   18.3180 C.ar  220  TRP220      0.0152
    152  NE1      -24.6440   -1.7600   19.8090 N.ar  220  TRP220     -0.2442
    153  CE2      -24.1960   -0.7240   19.0370 C.ar  220  TRP220      0.0810
    154  CE3      -25.0960    0.8420   17.4420 C.ar  220  TRP220      0.0012
    155  CZ2      -22.9140   -0.2220   18.8840 C.ar  220  TRP220      0.0191
    156  CZ3      -23.8170    1.3460   17.2980 C.ar  220  TRP220      0.0001
    157  CH2      -22.7510    0.8260   18.0260 C.ar  220  TRP220      0.0015
    158  N        -26.3630   -3.6340   13.1010 N.3   223  PHE223     -0.1227
    159  CA       -25.2360   -2.8670   12.6300 C.3   223  PHE223      0.1736
    160  C        -23.9360   -3.4520   13.1650 C.2   223  PHE223      0.2595
    161  O        -22.9690   -3.6430   12.4240 O.2   223  PHE223     -0.2718
    162  CB       -25.3610   -1.3890   13.0370 C.3   223  PHE223      0.0547
    163  CG       -24.0430   -0.6650   13.0450 C.ar  223  PHE223     -0.0202
    164  CD1      -23.4410   -0.2850   11.8530 C.ar  223  PHE223     -0.0042
    165  CD2      -23.3730   -0.4240   14.2300 C.ar  223  PHE223     -0.0042
    166  CE1      -22.2060    0.3180   11.8490 C.ar  223  PHE223     -0.0003
    167  CE2      -22.1370    0.1900   14.2240 C.ar  223  PHE223     -0.0003
    168  CZ       -21.5610    0.5710   13.0280 C.ar  223  PHE223     -0.0000
    169  N        -23.8990   -3.7170   14.4690 N.am  224  LEU224     -0.1980
    170  CA       -22.6470   -4.0610   15.1350 C.3   224  LEU224      0.1596
    171  C        -22.0410   -5.3510   14.5700 C.2   224  LEU224      0.2287
    172  O        -20.8240   -5.4440   14.3550 O.2   224  LEU224     -0.2864
    173  CB       -22.8580   -4.1820   16.6560 C.3   224  LEU224      0.0297
    174  CG       -21.6300   -4.5950   17.4660 C.3   224  LEU224      0.0022
    175  CD1      -20.4870   -3.5940   17.3070 C.3   224  LEU224      0.0001
    176  CD2      -21.9980   -4.7600   18.9380 C.3   224  LEU224      0.0001
    177  N        -20.5770   -4.5020   11.2900 N.3   227  TYR227     -0.1241
    178  CA       -19.4320   -3.6410   11.5410 C.3   227  TYR227      0.1605
    179  C        -18.2180   -4.4730   11.9310 C.2   227  TYR227      0.2264
    180  O        -17.1170   -4.2700   11.4190 O.2   227  TYR227     -0.2867
    181  CB       -19.7530   -2.6430   12.6550 C.3   227  TYR227      0.0534
    182  CG       -18.5610   -1.8300   13.1030 C.ar  227  TYR227     -0.0201
    183  CD1      -18.0020   -0.8640   12.2740 C.ar  227  TYR227     -0.0009
    184  CD2      -17.9970   -2.0210   14.3570 C.ar  227  TYR227     -0.0009
    185  CE1      -16.9200   -0.1140   12.6790 C.ar  227  TYR227      0.0417
    186  CE2      -16.9250   -1.2530   14.7790 C.ar  227  TYR227      0.0417
    187  CZ       -16.4070   -0.2890   13.9410 C.ar  227  TYR227      0.1957
    188  OH       -15.3430    0.4790   14.3570 O.3   227  TYR227     -0.2866
    189  N        -22.7980   -2.6410    6.5170 N.3   234  ALA234     -0.1231
    190  CA       -23.0780   -2.3350    7.9290 C.3   234  ALA234      0.1694
    191  C        -23.7880   -1.0160    8.1050 C.2   234  ALA234      0.2592
    192  O        -24.7970   -0.9330    8.8060 O.2   234  ALA234     -0.2718
    193  CB       -21.7970   -2.3430    8.7510 C.3   234  ALA234      0.0304
    194  N        -23.2780    0.0230    7.4490 N.am  235  CYS235     -0.1970
    195  CA       -23.8370    1.3690    7.6280 C.3   235  CYS235      0.1712
    196  C        -25.2760    1.4880    7.1290 C.2   235  CYS235      0.2296
    197  O        -26.0440    2.3310    7.6090 O.2   235  CYS235     -0.2864
    198  CB       -22.9270    2.3840    6.9380 C.3   235  CYS235      0.0983
    199  SG       -21.3010    2.4660    7.7020 S.3   235  CYS235     -0.0798
@<TRIPOS>BOND
     1    64    63    2
     2    63    62    1
     3    62    61    1
     4    62    65    1
     5    65    66    1
     6    55    54    2
     7    54    53    1
     8    66    67    1
     9    67    68    1
    10    53    56    1
    11    53    52    1
    12    56    57    1
    13    52    46   am
    14    44    45    1
    15    46    47    2
    16    46    45    1
    17    68    69    1
    18    45    48    1
    19   189   190    1
    20   198   195    1
    21   198   199    1
    22   196   197    2
    23   196   195    1
    24    57    58    1
    25   194   195    1
    26   194   191   am
    27    58    59    1
    28    51    49    1
    29   190   191    1
    30   190   193    1
    31    48    49    1
    32   191   192    2
    33    83    82    1
    34    49    50    1
    35    70    71    1
    36     6     5    1
    37     6     7    1
    38    59    60    1
    39    73    72    2
    40     2     5    1
    41     2     1    1
    42     2     3    1
    43    72    71    1
    44    72    78   am
    45    71    74    1
    46    82    79    1
    47    82    84    1
    48    78    79    1
    49     7     8    1
    50    79    80    1
    51     3     4    2
    52    18    16   ar
    53    18    19   ar
    54    74    75    1
    55    77    75    1
    56    75    76    1
    57   177   178    1
    58   180   179    2
    59   178   179    1
    60   178   181    1
    61    16    14   ar
    62    19    17   ar
    63   166   164   ar
    64   166   168   ar
    65   164   163   ar
    66    80    81    2
    67   183   185   ar
    68   183   182   ar
    69   161   160    2
    70   159   162    1
    71   159   158    1
    72   159   160    1
    73   181   182    1
    74   185   187   ar
    75     9    10    1
    76    14    13    1
    77    14    15   ar
    78   168   167   ar
    79   162   163    1
    80   163   165   ar
    81   182   184   ar
    82    17    15   ar
    83   160   169   am
    84    24    25    1
    85    24    21    1
    86    13    10    1
    87    10    11    1
    88   187   188    1
    89   187   186   ar
    90    20    11   am
    91    20    21    1
    92   167   165   ar
    93   172   171    2
    94   184   186   ar
    95   169   170    1
    96    11    12    2
    97   171   170    1
    98    21    22    1
    99   170   173    1
   100    23    22    2
   101    22    26   am
   102   147   146    2
   103   144   145    1
   104    35    36    2
   105    35    34    1
   106   173   174    1
   107   146   145    1
   108    37    34    1
   109    37    38    1
   110   145   148    1
   111    26    32    1
   112    26    27    1
   113   156   154   ar
   114   156   157   ar
   115   175   174    1
   116    34    33    1
   117    32    31    1
   118   154   151   ar
   119   174   176    1
   120    33    28   am
   121    40    38   ar
   122    40    42   ar
   123    38    39   ar
   124   135   133    1
   125   157   155   ar
   126    28    27    1
   127    28    29    2
   128    27    30    1
   129   148   149    1
   130   151   149   ar
   131   151   153   ar
   132    42    43   ar
   133   110   108    1
   134    31    30    1
   135   149   150   ar
   136    39    41   ar
   137   155   153   ar
   138   133   132    2
   139   133   134    1
   140   153   152   ar
   141   132   131    1
   142    43    41   ar
   143   150   152   ar
   144   108   107    1
   145   106   105    2
   146   107   109    1
   147   107   104    1
   148   131   130    1
   149   105   104    1
   150   122   124   ar
   151   122   120   ar
   152   130   129    1
   153   102   101    2
   154   124   123   ar
   155   104   103    1
   156   100   101    1
   157   100    99    1
   158   120   119   ar
   159   120   118   ar
   160   119   117   ar
   161   123   121   ar
   162   129   126    1
   163    99    94   am
   164    95    94    2
   165    88    87    2
   166    97    96    1
   167    94    93    1
   168   118   121   ar
   169   118   116   ar
   170   117   116   ar
   171    89    86    1
   172    89    90    1
   173   126   125    1
   174   126   127    1
   175    87    86    1
   176   141   142    1
   177   141   140    1
   178   116   115    1
   179    96    93    1
   180    96    98    1
   181   142   143    1
   182    86    85    1
   183   111   112    1
   184    90    91    1
   185   128   127    2
   186    93    92    1
   187   112   115    1
   188   112   113    1
   189   136   137    1
   190   137   140    1
   191   137   138    1
   192    85    91    1
   193   113   114    2
   194   138   139    2
