@<TRIPOS>MOLECULE
tmp/5yvpA00.pdb
 181 178 0 0 0
SMALL
GASTEIGER

@<TRIPOS>ATOM
      1  N        -27.6960  -11.8590    3.2430 N.3    21  ASP21      -0.1225
      2  CA       -26.9790  -11.6600    1.9850 C.3    21  ASP21       0.1805
      3  C        -27.7510  -12.1240    0.7590 C.2    21  ASP21       0.2598
      4  O        -27.1810  -12.1600   -0.3380 O.2    21  ASP21      -0.2718
      5  CB       -25.6160  -12.3580    2.0030 C.3    21  ASP21       0.1424
      6  CG       -24.6570  -11.7510    3.0080 C.2    21  ASP21       0.3668
      7  OD1      -25.0250  -10.7450    3.6480 O.co2  21  ASP21      -0.2456
      8  OD2      -23.5390  -12.2960    3.1700 O.co2  21  ASP21      -0.2456
      9  N        -29.0330  -12.4420    0.8950 N.am   22  ASP22      -0.1960
     10  CA       -29.8760  -12.6530   -0.2710 C.3    22  ASP22       0.1840
     11  C        -30.3140  -11.3120   -0.8480 C.2    22  ASP22       0.2622
     12  O        -30.4060  -10.3100   -0.1360 O.2    22  ASP22      -0.2715
     13  CB       -31.0990  -13.4930    0.0980 C.3    22  ASP22       0.1450
     14  CG       -31.7550  -14.1260   -1.1060 C.2    22  ASP22       0.3671
     15  OD1      -31.1540  -14.0890   -2.1980 O.co2  22  ASP22      -0.2456
     16  OD2      -32.8740  -14.6560   -0.9610 O.co2  22  ASP22      -0.2456
     17  N        -30.5640  -11.2980   -2.1570 N.am   23  TYR23      -0.1974
     18  CA       -30.8770  -10.0600   -2.8580 C.3    23  TYR23       0.1639
     19  C        -31.7860  -10.3560   -4.0450 C.2    23  TYR23       0.2290
     20  O        -31.8010  -11.4690   -4.5790 O.2    23  TYR23      -0.2864
     21  CB       -29.6150   -9.3190   -3.3100 C.3    23  TYR23       0.0560
     22  CG       -28.7480  -10.0880   -4.2690 C.ar   23  TYR23      -0.0198
     23  CD1      -27.8850  -11.0740   -3.8110 C.ar   23  TYR23      -0.0009
     24  CD2      -28.7850   -9.8250   -5.6290 C.ar   23  TYR23      -0.0009
     25  CE1      -27.0860  -11.7780   -4.6830 C.ar   23  TYR23       0.0417
     26  CE2      -27.9880  -10.5240   -6.5110 C.ar   23  TYR23       0.0417
     27  CZ       -27.1390  -11.5000   -6.0310 C.ar   23  TYR23       0.1957
     28  OH       -26.3350  -12.2020   -6.8950 O.3    23  TYR23      -0.2866
     29  N        -28.4480  -12.7330  -12.1430 N.3    46  THR46      -0.1203
     30  CA       -27.2500  -12.5730  -11.3300 C.3    46  THR46       0.1994
     31  C        -26.0180  -12.2870  -12.1830 C.2    46  THR46       0.2617
     32  O        -25.0140  -11.7930  -11.6560 O.2    46  THR46      -0.2717
     33  CB       -27.0300  -13.8120  -10.4660 C.3    46  THR46       0.1784
     34  OG1      -27.4340  -14.9780  -11.1970 O.3    46  THR46      -0.2211
     35  CG2      -27.8740  -13.7230   -9.2070 C.3    46  THR46       0.0376
     36  N        -26.0600  -12.6160  -13.4780 N.am   47  TRP47      -0.1975
     37  CA       -24.9130  -12.4390  -14.3570 C.3    47  TRP47       0.1640
     38  C        -24.8510  -11.0650  -15.0150 C.2    47  TRP47       0.2290
     39  O        -23.7650  -10.6430  -15.4250 O.2    47  TRP47      -0.2864
     40  CB       -24.9250  -13.5020  -15.4590 C.3    47  TRP47       0.0576
     41  CG       -25.1360  -14.9010  -14.9680 C.ar   47  TRP47       0.0006
     42  CD1      -26.1560  -15.7480  -15.3070 C.ar   47  TRP47       0.0946
     43  CD2      -24.3080  -15.6210  -14.0490 C.ar   47  TRP47       0.0152
     44  NE1      -26.0080  -16.9490  -14.6570 N.ar   47  TRP47      -0.2442
     45  CE2      -24.8820  -16.8960  -13.8770 C.ar   47  TRP47       0.0810
     46  CE3      -23.1350  -15.3110  -13.3550 C.ar   47  TRP47       0.0012
     47  CZ2      -24.3230  -17.8600  -13.0400 C.ar   47  TRP47       0.0191
     48  CZ3      -22.5820  -16.2680  -12.5250 C.ar   47  TRP47       0.0001
     49  CH2      -23.1760  -17.5270  -12.3740 C.ar   47  TRP47       0.0015
     50  N        -27.3570   -5.0610  -12.7730 N.3    50  ASN50      -0.1240
     51  CA       -28.6410   -5.2130  -12.1020 C.3    50  ASN50       0.1653
     52  C        -28.7110   -4.2560  -10.9240 C.2    50  ASN50       0.2266
     53  O        -27.7160   -3.6410  -10.5310 O.2    50  ASN50      -0.2867
     54  CB       -28.8510   -6.6580  -11.6380 C.3    50  ASN50       0.1155
     55  CG       -27.6710   -7.1930  -10.8460 C.2    50  ASN50       0.2627
     56  OD1      -26.9320   -6.4330  -10.2150 O.2    50  ASN50      -0.2716
     57  ND2      -27.4910   -8.5100  -10.8700 N.am   50  ASN50      -0.0877
     58  N        -31.0670   -5.8390   -0.8530 N.3    54  GLY54      -0.1210
     59  CA       -30.3160   -6.9150   -0.2420 C.3    54  GLY54       0.1956
     60  C        -30.4020   -6.8740    1.2680 C.2    54  GLY54       0.2612
     61  O        -30.3620   -5.7960    1.8660 O.2    54  GLY54      -0.2717
     62  N        -30.5310   -8.0410    1.8930 N.am   55  TYR55      -0.1962
     63  CA       -30.6120   -8.1320    3.3450 C.3    55  TYR55       0.1771
     64  C        -29.2060   -8.1420    3.9340 C.2    55  TYR55       0.2619
     65  O        -28.4280   -9.0680    3.6810 O.2    55  TYR55      -0.2715
     66  CB       -31.3870   -9.3820    3.7580 C.3    55  TYR55       0.0574
     67  CG       -31.4340   -9.6440    5.2530 C.ar   55  TYR55      -0.0198
     68  CD1      -31.3870   -8.6020    6.1730 C.ar   55  TYR55      -0.0009
     69  CD2      -31.5140  -10.9410    5.7410 C.ar   55  TYR55      -0.0009
     70  CE1      -31.4210   -8.8470    7.5350 C.ar   55  TYR55       0.0417
     71  CE2      -31.5490  -11.1960    7.1000 C.ar   55  TYR55       0.0417
     72  CZ       -31.5020  -10.1490    7.9910 C.ar   55  TYR55       0.1957
     73  OH       -31.5380  -10.4050    9.3430 O.3    55  TYR55      -0.2866
     74  N        -28.8840   -7.1170    4.7160 N.am   56  VAL56      -0.1977
     75  CA       -27.6030   -7.0280    5.4160 C.3    56  VAL56       0.1596
     76  C        -27.8720   -7.5100    6.8380 C.2    56  VAL56       0.2287
     77  O        -28.2900   -6.7470    7.7120 O.2    56  VAL56      -0.2864
     78  CB       -27.0220   -5.6160    5.3780 C.3    56  VAL56       0.0276
     79  CG1      -25.6620   -5.5870    6.0570 C.3    56  VAL56       0.0022
     80  CG2      -26.9070   -5.1340    3.9450 C.3    56  VAL56       0.0022
     81  N        -20.1270   -9.6510    3.6400 N.3    62  PHE62      -0.1227
     82  CA       -19.6900   -8.5670    2.7750 C.3    62  PHE62       0.1736
     83  C        -19.5520   -7.2180    3.4580 C.2    62  PHE62       0.2595
     84  O        -19.0080   -6.2980    2.8790 O.2    62  PHE62      -0.2718
     85  CB       -20.6400   -8.4050    1.5770 C.3    62  PHE62       0.0547
     86  CG       -21.0070   -9.6920    0.9070 C.ar   62  PHE62      -0.0202
     87  CD1      -20.0410  -10.4750    0.3150 C.ar   62  PHE62      -0.0042
     88  CD2      -22.3060  -10.1330    0.9050 C.ar   62  PHE62      -0.0042
     89  CE1      -20.3700  -11.6730   -0.2760 C.ar   62  PHE62      -0.0003
     90  CE2      -22.6400  -11.3220    0.3100 C.ar   62  PHE62      -0.0003
     91  CZ       -21.6760  -12.0950   -0.2770 C.ar   62  PHE62      -0.0000
     92  N        -20.0740   -7.0720    4.6680 N.am   63  TYR63      -0.1976
     93  CA       -20.0070   -5.7820    5.3450 C.3    63  TYR63       0.1639
     94  C        -19.4350   -5.8510    6.7460 C.2    63  TYR63       0.2290
     95  O        -19.3860   -6.9040    7.3580 O.2    63  TYR63      -0.2864
     96  CB       -21.3980   -5.1270    5.4020 C.3    63  TYR63       0.0560
     97  CG       -22.0990   -5.0690    4.0730 C.ar   63  TYR63      -0.0198
     98  CD1      -22.8070   -6.1560    3.6020 C.ar   63  TYR63      -0.0009
     99  CD2      -22.0100   -3.9470    3.2690 C.ar   63  TYR63      -0.0009
    100  CE1      -23.4330   -6.1190    2.3780 C.ar   63  TYR63       0.0417
    101  CE2      -22.6270   -3.9030    2.0460 C.ar   63  TYR63       0.0417
    102  CZ       -23.3350   -4.9920    1.6030 C.ar   63  TYR63       0.1957
    103  OH       -23.9540   -4.9550    0.3830 O.3    63  TYR63      -0.2866
    104  N        -30.6720   -2.8840    2.2590 N.3    73  ILE73      -0.1245
    105  CA       -30.1210   -1.7790    1.4920 C.3    73  ILE73       0.1561
    106  C        -30.5920   -1.9310    0.0520 C.2    73  ILE73       0.2260
    107  O        -31.0790   -2.9870   -0.3600 O.2    73  ILE73      -0.2867
    108  CB       -28.5770   -1.7210    1.5700 C.3    73  ILE73       0.0252
    109  CG1      -27.9430   -3.0790    1.2340 C.3    73  ILE73       0.0019
    110  CG2      -28.1370   -1.2900    2.9560 C.3    73  ILE73       0.0019
    111  CD1      -27.7480   -3.3760   -0.2480 C.3    73  ILE73       0.0001
    112  N        -29.0170   -1.6960   -3.8100 N.3    75  TYR75      -0.1241
    113  CA       -27.7180   -1.8200   -4.4510 C.3    75  TYR75       0.1605
    114  C        -27.8640   -1.6340   -5.9530 C.2    75  TYR75       0.2264
    115  O        -28.9230   -1.8770   -6.5340 O.2    75  TYR75      -0.2867
    116  CB       -27.0700   -3.1860   -4.1800 C.3    75  TYR75       0.0534
    117  CG       -27.6140   -4.2600   -5.0880 C.ar   75  TYR75      -0.0201
    118  CD1      -28.7960   -4.9170   -4.7780 C.ar   75  TYR75      -0.0009
    119  CD2      -26.9640   -4.6010   -6.2710 C.ar   75  TYR75      -0.0009
    120  CE1      -29.3100   -5.8840   -5.6090 C.ar   75  TYR75       0.0417
    121  CE2      -27.4750   -5.5670   -7.1090 C.ar   75  TYR75       0.0417
    122  CZ       -28.6470   -6.2060   -6.7720 C.ar   75  TYR75       0.1957
    123  OH       -29.1630   -7.1700   -7.6010 O.3    75  TYR75      -0.2866
    124  N        -25.3120   -2.7240   -9.2780 N.3    77  TYR77      -0.1241
    125  CA       -24.0830   -3.3290   -9.7720 C.3    77  TYR77       0.1605
    126  C        -24.0350   -3.2120  -11.2860 C.2    77  TYR77       0.2264
    127  O        -25.0140   -3.5260  -11.9700 O.2    77  TYR77      -0.2867
    128  CB       -23.9550   -4.8010   -9.3750 C.3    77  TYR77       0.0534
    129  CG       -22.7780   -5.4490  -10.0650 C.ar   77  TYR77      -0.0201
    130  CD1      -21.4790   -5.1200   -9.7000 C.ar   77  TYR77      -0.0009
    131  CD2      -22.9570   -6.3500  -11.1070 C.ar   77  TYR77      -0.0009
    132  CE1      -20.3920   -5.6850  -10.3350 C.ar   77  TYR77       0.0417
    133  CE2      -21.8710   -6.9230  -11.7490 C.ar   77  TYR77       0.0417
    134  CZ       -20.5920   -6.5860  -11.3560 C.ar   77  TYR77       0.1957
    135  OH       -19.5020   -7.1440  -11.9820 O.3    77  TYR77      -0.2866
    136  N        -19.3230   -2.2720   -0.5820 N.3   112  LEU112     -0.1245
    137  CA       -19.2590   -3.6980   -0.3340 C.3   112  LEU112      0.1561
    138  C        -17.8340   -4.1210   -0.0650 C.2   112  LEU112      0.2260
    139  O        -16.9160   -3.6260   -0.6860 O.2   112  LEU112     -0.2867
    140  CB       -19.7190   -4.4560   -1.5520 C.3   112  LEU112      0.0270
    141  CG       -21.1510   -4.9250   -1.5660 C.3   112  LEU112      0.0019
    142  CD1      -22.0420   -3.6970   -1.5470 C.3   112  LEU112      0.0001
    143  CD2      -21.3500   -5.7260   -2.8330 C.3   112  LEU112      0.0001
    144  N        -14.4120  -13.9630   -6.5480 N.3   119  LEU119     -0.1245
    145  CA       -15.0390  -12.6750   -6.7650 C.3   119  LEU119      0.1561
    146  C        -14.4820  -11.7060   -5.7780 C.2   119  LEU119      0.2260
    147  O        -14.4860  -11.9750   -4.5970 O.2   119  LEU119     -0.2867
    148  CB       -16.5260  -12.7630   -6.5100 C.3   119  LEU119      0.0270
    149  CG       -17.3850  -13.4660   -7.5350 C.3   119  LEU119      0.0019
    150  CD1      -18.8290  -13.2670   -7.1340 C.3   119  LEU119      0.0001
    151  CD2      -17.1270  -12.9130   -8.9250 C.3   119  LEU119      0.0001
    152  N        -14.6610   -7.8940   -4.0920 N.3   121  PHE121     -0.1241
    153  CA       -15.5510   -6.7610   -3.9050 C.3   121  PHE121      0.1605
    154  C        -14.7430   -5.5380   -3.5220 C.2   121  PHE121      0.2264
    155  O        -15.2900   -4.5040   -3.1920 O.2   121  PHE121     -0.2867
    156  CB       -16.6140   -7.0540   -2.8500 C.3   121  PHE121      0.0534
    157  CG       -17.5000   -8.2020   -3.1990 C.ar  121  PHE121     -0.0203
    158  CD1      -17.9830   -8.3430   -4.4680 C.ar  121  PHE121     -0.0042
    159  CD2      -17.8340   -9.1430   -2.2540 C.ar  121  PHE121     -0.0042
    160  CE1      -18.7950   -9.3990   -4.8020 C.ar  121  PHE121     -0.0003
    161  CE2      -18.6460  -10.2020   -2.5730 C.ar  121  PHE121     -0.0003
    162  CZ       -19.1220  -10.3360   -3.8520 C.ar  121  PHE121     -0.0000
    163  N        -14.1640   -2.5030   -7.4280 N.3   184  PHE184     -0.1241
    164  CA       -15.4560   -3.1570   -7.7180 C.3   184  PHE184      0.1605
    165  C        -16.5900   -2.1820   -8.0240 C.2   184  PHE184      0.2264
    166  O        -16.6920   -1.1410   -7.3760 O.2   184  PHE184     -0.2867
    167  CB       -15.8110   -4.0550   -6.5200 C.3   184  PHE184      0.0534
    168  CG       -17.2170   -4.5910   -6.5130 C.ar  184  PHE184     -0.0203
    169  CD1      -17.6040   -5.6000   -7.3810 C.ar  184  PHE184     -0.0042
    170  CD2      -18.1380   -4.1220   -5.5870 C.ar  184  PHE184     -0.0042
    171  CE1      -18.9010   -6.1030   -7.3490 C.ar  184  PHE184     -0.0003
    172  CE2      -19.4290   -4.6220   -5.5490 C.ar  184  PHE184     -0.0003
    173  CZ       -19.8120   -5.6100   -6.4320 C.ar  184  PHE184     -0.0000
    174  N        -24.0830    0.4730   -2.5390 N.3   188  ASP188     -0.1239
    175  CA       -25.3570    0.4080   -1.8450 C.3   188  ASP188      0.1674
    176  C        -25.8350    1.8040   -1.4670 C.2   188  ASP188      0.2266
    177  O        -25.0440    2.7390   -1.3190 O.2   188  ASP188     -0.2867
    178  CB       -25.2620   -0.4490   -0.5780 C.3   188  ASP188      0.1410
    179  CG       -24.8220   -1.8670   -0.8620 C.2   188  ASP188      0.3668
    180  OD1      -24.9270   -2.3180   -2.0210 O.co2 188  ASP188     -0.2456
    181  OD2      -24.3670   -2.5340    0.0860 O.co2 188  ASP188     -0.2456
@<TRIPOS>BOND
     1    40    41    1
     2    40    37    1
     3    39    38    2
     4    42    41   ar
     5    42    44   ar
     6    38    37    1
     7    41    43   ar
     8    44    45   ar
     9    37    36    1
    10    43    45   ar
    11    43    46   ar
    12    45    47   ar
    13    36    31   am
    14    46    48   ar
    15    47    49   ar
    16    50    51    1
    17    48    49   ar
    18    31    32    2
    19    31    30    1
    20    29    30    1
    21    51    54    1
    22    51    52    1
    23   135   134    1
    24   127   126    2
    25   133   134   ar
    26   133   131   ar
    27    54    55    1
    28   134   132   ar
    29    30    33    1
    30   126   125    1
    31    34    33    1
    32   131   129   ar
    33    52    53    2
    34    57    55   am
    35    55    56    2
    36    33    35    1
    37   132   130   ar
    38   129   130   ar
    39   129   128    1
    40   125   128    1
    41   125   124    1
    42   151   149    1
    43   165   164    1
    44   165   166    2
    45   164   163    1
    46   164   167    1
    47   123   122    1
    48   149   150    1
    49   149   148    1
    50   169   171   ar
    51   169   168   ar
    52   171   173   ar
    53   121   122   ar
    54   121   119   ar
    55    28    27    1
    56   122   120   ar
    57   145   144    1
    58   145   148    1
    59   145   146    1
    60   115   114    2
    61   167   168    1
    62   168   170   ar
    63    26    27   ar
    64    26    24   ar
    65   173   172   ar
    66   119   117   ar
    67    27    25   ar
    68   114   113    1
    69   146   147    2
    70    24    22   ar
    71   120   118   ar
    72   170   172   ar
    73   117   118   ar
    74   117   116    1
    75   160   158   ar
    76   160   162   ar
    77    25    23   ar
    78    20    19    2
    79   158   157   ar
    80   113   116    1
    81   113   112    1
    82    22    23   ar
    83    22    21    1
    84   152   153    1
    85    19    18    1
    86   153   154    1
    87   153   156    1
    88   162   161   ar
    89   154   155    2
    90    21    18    1
    91   157   156    1
    92   157   159   ar
    93    18    17    1
    94   143   141    1
    95   161   159   ar
    96   174   175    1
    97    15    14   ar
    98    17    11   am
    99   180   179   ar
   100   175   176    1
   101   175   178    1
   102   141   140    1
   103   141   142    1
   104   140   137    1
   105   176   177    2
   106    14    16   ar
   107    14    13    1
   108   179   178    1
   109   179   181   ar
   110    58    59    1
   111    11    10    1
   112    11    12    2
   113   139   138    2
   114   136   137    1
   115   107   106    2
   116     4     3    2
   117   137   138    1
   118    91    89   ar
   119    91    90   ar
   120    89    87   ar
   121    10    13    1
   122    10     9    1
   123   111   109    1
   124    59    60    1
   125   106   105    1
   126    90    88   ar
   127    87    86   ar
   128   103   102    1
   129     3     9   am
   130     3     2    1
   131    88    86   ar
   132    86    85    1
   133   109   108    1
   134    60    61    2
   135    60    62   am
   136   105   108    1
   137   105   104    1
   138   108   110    1
   139    85    82    1
   140   102   101   ar
   141   102   100   ar
   142    62    63    1
   143     2     5    1
   144     2     1    1
   145     5     6    1
   146   101    99   ar
   147   100    98   ar
   148    82    83    1
   149    82    81    1
   150    84    83    2
   151     6     8   ar
   152     6     7   ar
   153    99    97   ar
   154    63    66    1
   155    63    64    1
   156    83    92   am
   157    98    97   ar
   158    65    64    2
   159    66    67    1
   160    64    74   am
   161    80    78    1
   162    97    96    1
   163    92    93    1
   164    74    75    1
   165    67    69   ar
   166    67    68   ar
   167    93    96    1
   168    93    94    1
   169    78    75    1
   170    78    79    1
   171    75    76    1
   172    69    71   ar
   173    68    70   ar
   174    94    95    2
   175    76    77    2
   176    71    72   ar
   177    70    72   ar
   178    72    73    1
