@<TRIPOS>MOLECULE
tmp/5yvtA00.pdb
 168 163 0 0 0
SMALL
GASTEIGER

@<TRIPOS>ATOM
      1  N         48.3470  -14.6730   42.5840 N.3    12  ILE12      -0.1245
      2  CA        49.0050  -13.4390   42.1190 C.3    12  ILE12       0.1561
      3  C         48.0340  -12.2460   42.0230 C.2    12  ILE12       0.2260
      4  O         48.4630  -11.0910   41.9370 O.2    12  ILE12      -0.2867
      5  CB        49.7720  -13.6520   40.7820 C.3    12  ILE12       0.0252
      6  CG1       48.8170  -13.9940   39.6230 C.3    12  ILE12       0.0019
      7  CG2       50.8560  -14.7160   40.9540 C.3    12  ILE12       0.0019
      8  CD1       49.3730  -13.7330   38.2340 C.3    12  ILE12       0.0001
      9  N         38.7630   -7.7450   37.4170 N.3    66  LYS66      -0.1245
     10  CA        38.8420   -9.0280   38.0920 C.3    66  LYS66       0.1561
     11  C         40.2000   -9.6920   37.9230 C.2    66  LYS66       0.2260
     12  O         40.6650   -9.8990   36.8010 O.2    66  LYS66      -0.2867
     13  CB        37.7240   -9.9390   37.5780 C.3    66  LYS66       0.0271
     14  CG        37.5020  -11.1980   38.3990 C.3    66  LYS66       0.0035
     15  CD        36.3150  -11.9970   37.8890 C.3    66  LYS66       0.0206
     16  CE        36.6500  -12.8730   36.6930 C.3    66  LYS66       0.1093
     17  NZ        37.8060  -13.7940   36.9220 N.3    66  LYS66      -0.1314
     18  N         42.6200  -13.2380   38.6870 N.3    68  PRO68      -0.2102
     19  CA        42.3140  -14.6670   38.5070 C.3    68  PRO68       0.1504
     20  C         41.7050  -15.3230   39.7530 C.2    68  PRO68       0.2576
     21  O         42.0520  -14.9570   40.8840 O.2    68  PRO68      -0.2718
     22  CB        43.6750  -15.2790   38.1870 C.3    68  PRO68       0.0282
     23  CG        44.6720  -14.3320   38.7630 C.3    68  PRO68       0.0208
     24  CD        44.0680  -12.9710   38.5990 C.3    68  PRO68       0.0893
     25  N         40.8000  -16.2740   39.5240 N.am   69  LEU69      -0.1966
     26  CA        40.1110  -17.0090   40.5890 C.3    69  LEU69       0.1728
     27  C         40.3370  -18.5160   40.4740 C.2    69  LEU69       0.2616
     28  O         40.4380  -19.0490   39.3660 O.2    69  LEU69      -0.2715
     29  CB        38.6090  -16.7140   40.5590 C.3    69  LEU69       0.0311
     30  CG        38.1220  -15.3030   40.9070 C.3    69  LEU69       0.0022
     31  CD1       36.8520  -14.9950   40.1300 C.3    69  LEU69       0.0001
     32  CD2       37.9100  -15.1180   42.4070 C.3    69  LEU69       0.0001
     33  N         40.4000  -19.1850   41.6280 N.am   70  LYS70      -0.1963
     34  CA        40.6000  -20.6390   41.7260 C.3    70  LYS70       0.1728
     35  C         39.4180  -21.4670   41.2090 C.2    70  LYS70       0.2616
     36  O         38.2760  -20.9940   41.1910 O.2    70  LYS70      -0.2715
     37  CB        40.8590  -21.0340   43.1890 C.3    70  LYS70       0.0311
     38  CG        42.3000  -20.8460   43.6800 C.3    70  LYS70       0.0038
     39  CD        42.4610  -21.3240   45.1260 C.3    70  LYS70       0.0206
     40  CE        42.6060  -22.8450   45.2240 C.3    70  LYS70       0.1093
     41  NZ        42.5960  -23.3240   46.6450 N.3    70  LYS70      -0.1314
     42  N         39.7100  -22.7000   40.7840 N.am   71  THR71      -0.1951
     43  CA        38.6920  -23.7440   40.6180 C.3    71  THR71       0.1897
     44  C         38.4620  -24.3630   42.0040 C.2    71  THR71       0.2313
     45  O         39.4230  -24.5040   42.7740 O.2    71  THR71      -0.2863
     46  CB        39.1380  -24.8640   39.6440 C.3    71  THR71       0.1794
     47  OG1       39.9470  -24.3170   38.6000 O.3    71  THR71      -0.2208
     48  CG2       37.9380  -25.5720   39.0130 C.3    71  THR71       0.0378
     49  N         34.0470  -18.1720   38.3660 N.3    79  ASN79      -0.1240
     50  CA        33.9620  -17.6940   36.9830 C.3    79  ASN79       0.1653
     51  C         32.6490  -18.0800   36.2960 C.2    79  ASN79       0.2266
     52  O         32.0780  -17.2690   35.5630 O.2    79  ASN79      -0.2867
     53  CB        35.1690  -18.1680   36.1660 C.3    79  ASN79       0.1155
     54  CG        36.4650  -17.4960   36.5890 C.2    79  ASN79       0.2627
     55  OD1       36.5090  -16.2860   36.8310 O.2    79  ASN79      -0.2716
     56  ND2       37.5320  -18.2790   36.6710 N.am   79  ASN79      -0.0877
     57  N         50.1590  -15.5770   27.9500 N.3   238  LEU238     -0.1231
     58  CA        49.0970  -15.2270   28.9020 C.3   238  LEU238      0.1693
     59  C         49.4100  -14.0380   29.8110 C.2   238  LEU238      0.2592
     60  O         48.4870  -13.3820   30.3130 O.2   238  LEU238     -0.2718
     61  CB        48.7130  -16.4550   29.7440 C.3   238  LEU238      0.0284
     62  CG        48.2690  -17.7410   29.0260 C.3   238  LEU238      0.0019
     63  CD1       48.2820  -18.9280   29.9820 C.3   238  LEU238      0.0001
     64  CD2       46.9040  -17.5910   28.3670 C.3   238  LEU238      0.0001
     65  N         50.7020  -13.7610   30.0020 N.am  239  GLY239     -0.1957
     66  CA        51.1660  -12.6550   30.8450 C.3   239  GLY239      0.1869
     67  C         50.8910  -11.2560   30.3110 C.2   239  GLY239      0.2309
     68  O         50.9780  -10.2800   31.0630 O.2   239  GLY239     -0.2863
     69  N         39.2860   -8.6920   32.7910 N.3   255  GLU255     -0.1231
     70  CA        40.1050   -9.6850   33.4790 C.3   255  GLU255      0.1699
     71  C         41.2850  -10.1290   32.6390 C.2   255  GLU255      0.2593
     72  O         41.3070   -9.9460   31.4210 O.2   255  GLU255     -0.2718
     73  CB        39.2570  -10.9130   33.8500 C.3   255  GLU255      0.0402
     74  CG        38.5970  -11.6010   32.6560 C.3   255  GLU255      0.1161
     75  CD        37.9670  -12.9440   32.9800 C.2   255  GLU255      0.3649
     76  OE1       37.3330  -13.5110   32.0680 O.co2 255  GLU255     -0.2457
     77  OE2       38.1060  -13.4460   34.1180 O.co2 255  GLU255     -0.2457
     78  N         42.2580  -10.7220   33.3130 N.am  256  SER256     -0.1938
     79  CA        43.3440  -11.4250   32.6590 C.3   256  SER256      0.2055
     80  C         42.9190  -12.8720   32.3830 C.2   256  SER256      0.2643
     81  O         42.2730  -13.5100   33.2270 O.2   256  SER256     -0.2714
     82  CB        44.5880  -11.3700   33.5380 C.3   256  SER256      0.2130
     83  OG        44.2550  -11.5550   34.9070 O.3   256  SER256     -0.2179
     84  N         43.2730  -13.3740   31.1980 N.am  257  VAL257     -0.1963
     85  CA        42.9430  -14.7530   30.7920 C.3   257  VAL257      0.1727
     86  C         43.8380  -15.7940   31.4770 C.2   257  VAL257      0.2616
     87  O         43.5630  -16.9940   31.4070 O.2   257  VAL257     -0.2715
     88  CB        42.9540  -14.9620   29.2430 C.3   257  VAL257      0.0290
     89  CG1       42.2600  -13.8180   28.5230 C.3   257  VAL257      0.0023
     90  CG2       44.3700  -15.1150   28.6980 C.3   257  VAL257      0.0023
     91  N         44.9140  -15.3290   32.1130 N.am  258  HIS258     -0.1959
     92  CA        45.8220  -16.2040   32.8490 C.3   258  HIS258      0.1787
     93  C         45.2390  -16.6210   34.1990 C.2   258  HIS258      0.2621
     94  O         44.2990  -15.9920   34.7040 O.2   258  HIS258     -0.2715
     95  CB        47.2240  -15.5830   32.9970 C.3   258  HIS258      0.0785
     96  CG        47.2670  -14.3030   33.7810 C.ar  258  HIS258      0.0821
     97  ND1       46.9110  -14.2230   35.1110 N.ar  258  HIS258     -0.2267
     98  CD2       47.6780  -13.0610   33.4300 C.ar  258  HIS258      0.1154
     99  CE1       47.0720  -12.9830   35.5370 C.ar  258  HIS258      0.1986
    100  NE2       47.5430  -12.2590   34.5380 N.ar  258  HIS258     -0.2212
    101  N         45.8050  -17.6830   34.7680 N.am  259  GLY259     -0.1940
    102  CA        45.3480  -18.2310   36.0390 C.3   259  GLY259      0.2014
    103  C         46.0020  -17.6050   37.2540 C.2   259  GLY259      0.2640
    104  O         46.7210  -16.6050   37.1450 O.2   259  GLY259     -0.2714
    105  N         45.7440  -18.2120   38.4130 N.am  260  THR260     -0.1936
    106  CA        46.1950  -17.7040   39.7160 C.3   260  THR260      0.2028
    107  C         47.7080  -17.7920   39.9000 C.2   260  THR260      0.2642
    108  O         48.2740  -17.0780   40.7350 O.2   260  THR260     -0.2714
    109  CB        45.5030  -18.4400   40.8850 C.3   260  THR260      0.1808
    110  OG1       45.7260  -19.8520   40.7670 O.3   260  THR260     -0.2208
    111  CG2       44.0000  -18.1570   40.9030 C.3   260  THR260      0.0379
    112  N         48.3390  -18.6640   39.1060 N.am  261  ALA261     -0.1963
    113  CA        49.7760  -18.9730   39.1660 C.3   261  ALA261      0.1713
    114  C         50.2700  -19.2360   40.6080 C.2   261  ALA261      0.2458
    115  O         50.9720  -18.3940   41.1870 O.2   261  ALA261     -0.2730
    116  CB        50.5940  -17.8890   38.4650 C.3   261  ALA261      0.0333
    117  N         49.8860  -20.4010   41.1930 N.am  262  PRO262     -0.2716
    118  CA        50.1720  -20.7030   42.6070 C.3   262  PRO262      0.1536
    119  C         51.6560  -20.9450   42.9090 C.2   262  PRO262      0.2599
    120  O         52.1170  -20.6400   44.0350 O.2   262  PRO262     -0.2715
    121  CB        49.3530  -21.9790   42.8770 C.3   262  PRO262      0.0310
    122  CG        48.4290  -22.1270   41.7100 C.3   262  PRO262      0.0237
    123  CD        49.1660  -21.5220   40.5570 C.3   262  PRO262      0.0939
    124  N         52.3790  -21.4880   41.9120 N.am  263  ASP263     -0.1958
    125  CA        53.8270  -21.7380   42.0110 C.3   263  ASP263      0.1840
    126  C         54.6620  -20.4630   42.1930 C.2   263  ASP263      0.2621
    127  O         55.6410  -20.4630   42.9460 O.2   263  ASP263     -0.2715
    128  CB        54.3310  -22.5580   40.8050 C.3   263  ASP263      0.1450
    129  CG        53.9000  -21.9810   39.4440 C.2   263  ASP263      0.3671
    130  OD1       53.1460  -20.9810   39.3840 O.co2 263  ASP263     -0.2456
    131  OD2       54.3220  -22.5500   38.4140 O.co2 263  ASP263     -0.2456
    132  N         54.2630  -19.3920   41.5050 N.am  264  ILE264     -0.1977
    133  CA        54.9110  -18.0720   41.6260 C.3   264  ILE264      0.1596
    134  C         54.0810  -17.0510   42.4280 C.2   264  ILE264      0.2287
    135  O         54.4020  -15.8480   42.4440 O.2   264  ILE264     -0.2864
    136  CB        55.3390  -17.4820   40.2490 C.3   264  ILE264      0.0276
    137  CG1       54.2310  -17.6490   39.1890 C.3   264  ILE264      0.0022
    138  CG2       56.6650  -18.0920   39.7970 C.3   264  ILE264      0.0022
    139  CD1       54.1930  -16.5350   38.1510 C.3   264  ILE264      0.0001
    140  N         56.6370  -11.0400   41.8470 N.3   269  MET269     -0.1230
    141  CA        57.1870  -11.8010   40.7100 C.3   269  MET269      0.1702
    142  C         56.3190  -11.7080   39.4460 C.2   269  MET269      0.2592
    143  O         56.8460  -11.6860   38.3260 O.2   269  MET269     -0.2718
    144  CB        57.4070  -13.2760   41.1030 C.3   269  MET269      0.0401
    145  CG        58.2940  -14.0950   40.1640 C.3   269  MET269      0.0596
    146  SD        60.0390  -14.1880   40.6300 S.3   269  MET269     -0.1393
    147  CE        60.7160  -12.7130   39.8530 C.3   269  MET269      0.0692
    148  N         54.9990  -11.6470   39.6400 N.am  270  ALA270     -0.1966
    149  CA        54.0150  -11.7190   38.5520 C.3   270  ALA270      0.1728
    150  C         54.0010  -10.4970   37.6360 C.2   270  ALA270      0.2616
    151  O         54.2380   -9.3750   38.0810 O.2   270  ALA270     -0.2715
    152  CB        52.6300  -11.9520   39.1240 C.3   270  ALA270      0.0334
    153  N         53.7180  -10.7370   36.3570 N.am  271  ASN271     -0.1972
    154  CA        53.5660   -9.6790   35.3640 C.3   271  ASN271      0.1688
    155  C         52.1490   -9.0970   35.4430 C.2   271  ASN271      0.2292
    156  O         51.1730   -9.8310   35.2400 O.2   271  ASN271     -0.2864
    157  CB        53.8420  -10.2320   33.9610 C.3   271  ASN271      0.1181
    158  CG        53.9570   -9.1460   32.9000 C.2   271  ASN271      0.2629
    159  OD1       53.8450   -7.9470   33.1790 O.2   271  ASN271     -0.2716
    160  ND2       54.1860   -9.5720   31.6640 N.am  271  ASN271     -0.0877
    161  N         58.9530  -13.5480   33.5040 N.3   312  ASP312     -0.1239
    162  CA        58.2630  -14.2490   32.4100 C.3   312  ASP312      0.1674
    163  C         58.5860  -13.6900   31.0200 C.2   312  ASP312      0.2266
    164  O         58.5410  -14.4260   30.0310 O.2   312  ASP312     -0.2867
    165  CB        56.7450  -14.2500   32.6350 C.3   312  ASP312      0.1410
    166  CG        56.1590  -12.8470   32.7000 C.2   312  ASP312      0.3668
    167  OD1       56.5390  -12.0880   33.6200 O.co2 312  ASP312     -0.2456
    168  OD2       55.3230  -12.5090   31.8330 O.co2 312  ASP312     -0.2456
@<TRIPOS>BOND
     1    57    58    1
     2    64    62    1
     3    89    88    1
     4    90    88    1
     5    58    61    1
     6    58    59    1
     7    62    61    1
     8    62    63    1
     9    88    85    1
    10    59    65   am
    11    59    60    2
    12    65    66    1
    13   164   163    2
    14    67    66    1
    15    67    68    2
    16    85    84    1
    17    85    86    1
    18   163   162    1
    19    84    80   am
    20    87    86    2
    21    72    71    2
    22    86    91   am
    23   160   158   am
    24   168   166   ar
    25    76    75   ar
    26    91    92    1
    27    80    79    1
    28    80    81    2
    29   162   165    1
    30   162   161    1
    31   165   166    1
    32    71    78   am
    33    71    70    1
    34    74    75    1
    35    74    73    1
    36    79    78    1
    37    79    82    1
    38   166   167   ar
    39    69    70    1
    40    92    95    1
    41    92    93    1
    42   158   159    2
    43   158   157    1
    44    75    77   ar
    45    95    96    1
    46    98    96   ar
    47    98   100   ar
    48    70    73    1
    49    82    83    1
    50    96    97   ar
    51   157   154    1
    52    93    94    2
    53    93   101   am
    54   100    99   ar
    55   101   102    1
    56    97    99   ar
    57   156   155    2
    58   154   155    1
    59   154   153    1
    60    52    51    2
    61   102   103    1
    62    53    54    1
    63    53    50    1
    64    51    50    1
    65   153   150   am
    66    54    56   am
    67    54    55    2
    68    16    17    1
    69    16    15    1
    70    12    11    2
    71    50    49    1
    72   104   103    2
    73   103   105   am
    74     9    10    1
    75    13    10    1
    76    13    14    1
    77   150   151    2
    78   150   149    1
    79    15    14    1
    80    11    10    1
    81   139   137    1
    82    22    19    1
    83    22    23    1
    84     8     6    1
    85   143   142    2
    86   105   106    1
    87   131   129   ar
    88   116   113    1
    89    19    18    1
    90    19    20    1
    91   149   152    1
    92   149   148    1
    93    24    18    1
    94    24    23    1
    95    47    46    1
    96    48    46    1
    97   112   113    1
    98   112   107   am
    99   113   114    1
   100   137   136    1
   101    28    27    2
   102   130   129   ar
   103   129   128    1
   104   142   148   am
   105   142   141    1
   106    25    20   am
   107    25    26    1
   108     6     5    1
   109    46    43    1
   110   106   107    1
   111   106   109    1
   112    20    21    2
   113   138   136    1
   114   147   146    1
   115   107   108    2
   116    31    30    1
   117   145   146    1
   118   145   144    1
   119   136   133    1
   120    27    26    1
   121    27    33   am
   122   123   117    1
   123   123   122    1
   124    29    26    1
   125    29    30    1
   126   114   115    2
   127   114   117   am
   128    43    42    1
   129    43    44    1
   130   141   144    1
   131   141   140    1
   132   110   109    1
   133     5     7    1
   134     5     2    1
   135    42    35   am
   136   128   125    1
   137   109   111    1
   138    30    32    1
   139    36    35    2
   140   117   118    1
   141    35    34    1
   142   132   133    1
   143   132   126   am
   144   133   134    1
   145    33    34    1
   146   122   121    1
   147    34    37    1
   148   124   125    1
   149   124   119   am
   150     4     3    2
   151    44    45    2
   152   125   126    1
   153     3     2    1
   154     2     1    1
   155   126   127    2
   156   134   135    2
   157   118   121    1
   158   118   119    1
   159   119   120    2
   160    37    38    1
   161    38    39    1
   162    39    40    1
   163    40    41    1
