@<TRIPOS>MOLECULE
tmp/5yvtB00.pdb
 162 154 0 0 0
SMALL
GASTEIGER

@<TRIPOS>ATOM
      1  N         42.6350  -28.8970   -7.3460 N.3    12  ILE12      -0.1245
      2  CA        43.9700  -29.2730   -7.8560 C.3    12  ILE12       0.1561
      3  C         44.2420  -30.7790   -7.8200 C.2    12  ILE12       0.2260
      4  O         45.2950  -31.2350   -8.2810 O.2    12  ILE12      -0.2867
      5  CB        45.1200  -28.5190   -7.1230 C.3    12  ILE12       0.0252
      6  CG1       45.1060  -28.8210   -5.6080 C.3    12  ILE12       0.0019
      7  CG2       45.0660  -27.0240   -7.4400 C.3    12  ILE12       0.0019
      8  CD1       46.2790  -28.2780   -4.8210 C.3    12  ILE12       0.0001
      9  N         47.2160  -32.9600   -9.9430 N.3    16  LEU16      -0.1245
     10  CA        48.2780  -33.5440   -9.1300 C.3    16  LEU16       0.1561
     11  C         48.3620  -35.0640   -9.2800 C.2    16  LEU16       0.2260
     12  O         49.4610  -35.6280   -9.2440 O.2    16  LEU16      -0.2867
     13  CB        48.1770  -33.1030   -7.6600 C.3    16  LEU16       0.0270
     14  CG        48.4920  -31.6180   -7.3620 C.3    16  LEU16       0.0019
     15  CD1       48.3700  -31.3130   -5.8750 C.3    16  LEU16       0.0001
     16  CD2       49.8510  -31.1530   -7.8880 C.3    16  LEU16       0.0001
     17  N         37.9140  -33.8680   -1.7440 N.3    65  ILE65      -0.1231
     18  CA        36.5310  -33.6920   -2.1550 C.3    65  ILE65       0.1692
     19  C         36.0320  -32.3540   -1.6240 C.2    65  ILE65       0.2592
     20  O         36.1490  -32.0700   -0.4260 O.2    65  ILE65      -0.2718
     21  CB        35.6510  -34.8690   -1.6640 C.3    65  ILE65       0.0266
     22  CG1       36.2150  -36.2000   -2.1890 C.3    65  ILE65       0.0019
     23  CG2       34.1960  -34.6860   -2.0920 C.3    65  ILE65       0.0020
     24  CD1       35.9920  -37.3860   -1.2710 C.3    65  ILE65       0.0001
     25  N         35.5060  -31.5320   -2.5320 N.am   66  GLU66      -0.1966
     26  CA        34.8500  -30.2780   -2.1720 C.3    66  GLU66       0.1733
     27  C         33.7060  -30.5340   -1.1910 C.2    66  GLU66       0.2617
     28  O         32.8670  -31.4130   -1.4100 O.2    66  GLU66      -0.2715
     29  CB        34.3470  -29.5420   -3.4230 C.3    66  GLU66       0.0429
     30  CG        33.5950  -28.2480   -3.1290 C.3    66  GLU66       0.1163
     31  CD        33.9270  -27.1360   -4.1010 C.2    66  GLU66       0.3649
     32  OE1       33.4700  -27.2010   -5.2650 O.co2  66  GLU66      -0.2457
     33  OE2       34.6400  -26.1890   -3.6910 O.co2  66  GLU66      -0.2457
     34  N         33.7200  -29.7820   -0.0970 N.am   67  THR67      -0.1951
     35  CA        32.6330  -29.7710    0.8710 C.3    67  THR67       0.1897
     36  C         31.7750  -28.5370    0.6010 C.2    67  THR67       0.2313
     37  O         32.2980  -27.4200    0.4770 O.2    67  THR67      -0.2863
     38  CB        33.1540  -29.7230    2.3260 C.3    67  THR67       0.1794
     39  OG1       34.0110  -28.5860    2.4950 O.3    67  THR67      -0.2208
     40  CG2       33.9200  -31.0020    2.6940 C.3    67  THR67       0.0378
     41  N         29.1490  -26.5300    2.5340 N.3    69  HIS69      -0.1241
     42  CA        28.5850  -26.3260    3.8690 C.3    69  HIS69       0.1621
     43  C         27.2550  -25.5450    3.8660 C.2    69  HIS69       0.2264
     44  O         26.8040  -25.0560    4.9100 O.2    69  HIS69      -0.2867
     45  CB        29.6360  -25.7130    4.8140 C.3    69  HIS69       0.0745
     46  CG        29.9630  -24.2760    4.5310 C.ar   69  HIS69       0.0817
     47  ND1       31.0300  -23.8960    3.7450 N.ar   69  HIS69      -0.2268
     48  CD2       29.3800  -23.1280    4.9540 C.ar   69  HIS69       0.1154
     49  CE1       31.0810  -22.5760    3.6830 C.ar   69  HIS69       0.1986
     50  NE2       30.0910  -22.0860    4.4080 N.ar   69  HIS69      -0.2212
     51  N         49.9550  -26.0990    3.3500 N.3   238  PRO238     -0.2102
     52  CA        49.2860  -27.2860    2.7980 C.3   238  PRO238      0.1504
     53  C         49.9520  -27.9030    1.5640 C.2   238  PRO238      0.2576
     54  O         49.6470  -29.0430    1.2160 O.2   238  PRO238     -0.2718
     55  CB        47.8960  -26.7630    2.4330 C.3   238  PRO238      0.0282
     56  CG        48.1010  -25.3140    2.1560 C.3   238  PRO238      0.0208
     57  CD        49.1600  -24.8730    3.1240 C.3   238  PRO238      0.0893
     58  N         50.8430  -27.1560    0.9150 N.am  239  GLY239     -0.1957
     59  CA        51.5790  -27.6550   -0.2440 C.3   239  GLY239      0.1869
     60  C         52.6200  -28.7170    0.0720 C.2   239  GLY239      0.2309
     61  O         53.0780  -29.4220   -0.8320 O.2   239  GLY239     -0.2863
     62  N         46.7900  -35.5100    0.9900 N.3   255  THR255     -0.1218
     63  CA        47.4630  -34.3520    1.5950 C.3   255  THR255      0.1862
     64  C         46.9600  -34.1930    3.0370 C.2   255  THR255      0.2287
     65  O         45.8300  -34.5810    3.3340 O.2   255  THR255     -0.2866
     66  CB        47.1860  -33.0620    0.7950 C.3   255  THR255      0.1770
     67  OG1       45.7810  -32.7820    0.8060 O.3   255  THR255     -0.2211
     68  CG2       47.6560  -33.2080   -0.6590 C.3   255  THR255      0.0375
     69  N         45.9110  -31.6460    4.7230 N.3   257  THR257     -0.1203
     70  CA        44.7410  -30.7810    4.8470 C.3   257  THR257      0.1994
     71  C         43.7310  -31.0220    3.7180 C.2   257  THR257      0.2618
     72  O         44.0750  -31.5910    2.6790 O.2   257  THR257     -0.2717
     73  CB        45.1380  -29.2870    4.9070 C.3   257  THR257      0.1784
     74  OG1       45.6380  -28.8700    3.6290 O.3   257  THR257     -0.2211
     75  CG2       46.1890  -29.0140    6.0100 C.3   257  THR257      0.0376
     76  N         42.4950  -30.5750    3.9400 N.am  258  ARG258     -0.1965
     77  CA        41.3590  -30.8450    3.0460 C.3   258  ARG258      0.1729
     78  C         41.1350  -29.8220    1.9250 C.2   258  ARG258      0.2616
     79  O         40.2680  -30.0350    1.0740 O.2   258  ARG258     -0.2715
     80  CB        40.0490  -30.9840    3.8510 C.3   258  ARG258      0.0348
     81  CG        39.9140  -32.1650    4.8180 C.3   258  ARG258      0.0492
     82  CD        40.2890  -33.5030    4.1950 C.3   258  ARG258      0.2205
     83  NE        41.6240  -33.8510    4.6650 N.pl3 258  ARG258     -0.0865
     84  CZ        42.6120  -34.3410    3.9280 C.cat 258  ARG258      0.5346
     85  NH1       42.4740  -34.5760    2.6310 N.pl3 258  ARG258      0.1354
     86  NH2       43.7590  -34.5950    4.5200 N.pl3 258  ARG258      0.1354
     87  N         41.8910  -28.7200    1.9320 N.am  259  ASN259     -0.1958
     88  CA        41.7350  -27.6450    0.9390 C.3   259  ASN259      0.1819
     89  C         41.8760  -28.2100   -0.4780 C.2   259  ASN259      0.2622
     90  O         42.8120  -28.9640   -0.7570 O.2   259  ASN259     -0.2715
     91  CB        42.7540  -26.5170    1.1660 C.3   259  ASN259      0.1195
     92  CG        42.9280  -26.1540    2.6360 C.2   259  ASN259      0.2630
     93  OD1       43.6280  -26.8500    3.3800 O.2   259  ASN259     -0.2716
     94  ND2       42.3190  -25.0430    3.0540 N.am  259  ASN259     -0.0877
     95  N         40.9310  -27.8780   -1.3550 N.am  260  THR260     -0.1937
     96  CA        40.9440  -28.4050   -2.7290 C.3   260  THR260      0.2028
     97  C         41.7700  -27.5520   -3.6810 C.2   260  THR260      0.2643
     98  O         42.1420  -28.0160   -4.7580 O.2   260  THR260     -0.2714
     99  CB        39.5320  -28.5820   -3.3280 C.3   260  THR260      0.1808
    100  OG1       38.8820  -27.3100   -3.4160 O.3   260  THR260     -0.2208
    101  CG2       38.6960  -29.5410   -2.4910 C.3   260  THR260      0.0379
    102  N         42.0360  -26.3080   -3.2790 N.am  261  GLY261     -0.1939
    103  CA        42.7680  -25.3440   -4.0970 C.3   261  GLY261      0.2014
    104  C         42.0270  -24.9370   -5.3560 C.2   261  GLY261      0.2639
    105  O         42.6540  -24.7090   -6.3930 O.2   261  GLY261     -0.2714
    106  N         40.6980  -24.8420   -5.2570 N.am  262  LYS262     -0.1963
    107  CA        39.8160  -24.5380   -6.3930 C.3   262  LYS262      0.1728
    108  C         40.2680  -23.3130   -7.1950 C.2   262  LYS262      0.2617
    109  O         40.2860  -23.3560   -8.4290 O.2   262  LYS262     -0.2715
    110  CB        38.3570  -24.3890   -5.9210 C.3   262  LYS262      0.0311
    111  CG        37.3260  -24.2270   -7.0390 C.3   262  LYS262      0.0038
    112  CD        36.2190  -25.2770   -6.9610 C.3   262  LYS262      0.0206
    113  CE        36.5980  -26.5610   -7.7060 C.3   262  LYS262      0.1093
    114  NZ        35.7450  -27.7260   -7.3280 N.3   262  LYS262     -0.1314
    115  N         40.6610  -22.2510   -6.4880 N.am  263  SER263     -0.1936
    116  CA        40.9910  -20.9640   -7.1090 C.3   263  SER263      0.2055
    117  C         42.3210  -20.9570   -7.8750 C.2   263  SER263      0.2642
    118  O         42.5560  -20.0660   -8.7020 O.2   263  SER263     -0.2714
    119  CB        40.9550  -19.8300   -6.0740 C.3   263  SER263      0.2130
    120  OG        42.0900  -19.8640   -5.2260 O.3   263  SER263     -0.2179
    121  N         43.1820  -21.9330   -7.5880 N.am  264  ILE264     -0.1977
    122  CA        44.4560  -22.0800   -8.2990 C.3   264  ILE264      0.1596
    123  C         44.4730  -23.2630   -9.2800 C.2   264  ILE264      0.2287
    124  O         45.4770  -23.4790   -9.9610 O.2   264  ILE264     -0.2864
    125  CB        45.6860  -22.1300   -7.3430 C.3   264  ILE264      0.0276
    126  CG1       45.6240  -23.3460   -6.4000 C.3   264  ILE264      0.0022
    127  CG2       45.8480  -20.8050   -6.5910 C.3   264  ILE264      0.0022
    128  CD1       46.9740  -23.9210   -6.0350 C.3   264  ILE264      0.0001
    129  N         50.3350  -24.1700  -11.0180 N.3   269  ILE269     -0.1231
    130  CA        51.0520  -23.5450   -9.8940 C.3   269  ILE269      0.1692
    131  C         51.0080  -24.2910   -8.5550 C.2   269  ILE269      0.2592
    132  O         51.8090  -24.0040   -7.6660 O.2   269  ILE269     -0.2718
    133  CB        50.7210  -22.0320   -9.7110 C.3   269  ILE269      0.0266
    134  CG1       49.2140  -21.7940   -9.5170 C.3   269  ILE269      0.0019
    135  CG2       51.3170  -21.2080  -10.8620 C.3   269  ILE269      0.0020
    136  CD1       48.8590  -20.3830   -9.0790 C.3   269  ILE269      0.0001
    137  N         50.0990  -25.2580   -8.4300 N.am  270  ALA270     -0.1966
    138  CA        49.9790  -26.0770   -7.2150 C.3   270  ALA270      0.1728
    139  C         51.3020  -26.7580   -6.8370 C.2   270  ALA270      0.2616
    140  O         52.0100  -27.2830   -7.6990 O.2   270  ALA270     -0.2715
    141  CB        48.8780  -27.1150   -7.3830 C.3   270  ALA270      0.0334
    142  N         51.6350  -26.7130   -5.5510 N.am  271  ASN271     -0.1972
    143  CA        52.7930  -27.4210   -5.0100 C.3   271  ASN271      0.1688
    144  C         52.5030  -28.9260   -5.0720 C.2   271  ASN271      0.2292
    145  O         51.4650  -29.3670   -4.5730 O.2   271  ASN271     -0.2864
    146  CB        53.0380  -26.9860   -3.5640 C.3   271  ASN271      0.1181
    147  CG        54.4280  -27.3400   -3.0570 C.2   271  ASN271      0.2629
    148  OD1       55.0580  -28.2910   -3.5130 O.2   271  ASN271     -0.2716
    149  ND2       54.9020  -26.5740   -2.0820 N.am  271  ASN271     -0.0877
    150  N         53.3120  -32.3080   -1.2070 N.3   274  ALA274     -0.1245
    151  CA        52.4150  -33.0340   -0.2870 C.3   274  ALA274      0.1562
    152  C         51.8650  -34.3190   -0.9100 C.2   274  ALA274      0.2260
    153  O         51.9770  -35.4080   -0.3220 O.2   274  ALA274     -0.2867
    154  CB        51.2760  -32.1350    0.1840 C.3   274  ALA274      0.0290
    155  N         53.1370  -20.8450   -3.4170 N.3   312  ASP312     -0.1239
    156  CA        52.6590  -21.0530   -2.0390 C.3   312  ASP312      0.1674
    157  C         53.7790  -20.9530   -0.9990 C.2   312  ASP312      0.2266
    158  O         53.5150  -20.6530    0.1650 O.2   312  ASP312     -0.2867
    159  CB        51.9400  -22.4030   -1.9030 C.3   312  ASP312      0.1410
    160  CG        52.8340  -23.5830   -2.2580 C.2   312  ASP312      0.3668
    161  OD1       53.2870  -23.6590   -3.4180 O.co2 312  ASP312     -0.2456
    162  OD2       53.0940  -24.4290   -1.3790 O.co2 312  ASP312     -0.2456
@<TRIPOS>BOND
     1   129   130    1
     2   135   133    1
     3   124   123    2
     4     9    10    1
     5   130   133    1
     6   130   131    1
     7   133   134    1
     8   134   136    1
     9   123   122    1
    10    11    12    2
    11    11    10    1
    12    10    13    1
    13   118   117    2
    14   131   137   am
    15   131   132    2
    16   137   138    1
    17   109   108    2
    18   122   121    1
    19   122   125    1
    20     4     3    2
    21    16    14    1
    22   117   121   am
    23   117   116    1
    24     2     3    1
    25     2     1    1
    26     2     5    1
    27   113   114    1
    28   113   112    1
    29   140   139    2
    30    13    14    1
    31     7     5    1
    32   141   138    1
    33    14    15    1
    34   125   127    1
    35   125   126    1
    36   138   139    1
    37   108   115   am
    38   108   107    1
    39     5     6    1
    40   116   115    1
    41   116   119    1
    42   111   112    1
    43   111   110    1
    44   139   142   am
    45   126   128    1
    46   107   110    1
    47   107   106    1
    48   105   104    2
    49   119   120    1
    50     6     8    1
    51   142   143    1
    52   104   106   am
    53   104   103    1
    54    32    31   ar
    55   144   143    1
    56   144   145    2
    57   143   146    1
    58    98    97    2
    59    31    33   ar
    60    31    30    1
    61   103   102    1
    62    97   102   am
    63    97    96    1
    64   146   147    1
    65   148   147    2
    66    29    30    1
    67    29    26    1
    68   161   160   ar
    69   155   156    1
    70   100    99    1
    71    99    96    1
    72    99   101    1
    73   147   149   am
    74    96    95    1
    75    25    26    1
    76    25    19   am
    77   160   159    1
    78   160   162   ar
    79    22    21    1
    80    22    24    1
    81    26    27    1
    82    18    17    1
    83    18    21    1
    84    18    19    1
    85    23    21    1
    86   156   159    1
    87   156   157    1
    88    19    20    2
    89    28    27    2
    90    95    89   am
    91   150   151    1
    92    27    34   am
    93   157   158    2
    94   152   153    2
    95   152   151    1
    96    61    60    2
    97    90    89    2
    98    68    66    1
    99    89    88    1
   100   151   154    1
   101    59    60    1
   102    59    58    1
   103    34    35    1
   104    37    36    2
   105    36    35    1
   106    66    67    1
   107    66    63    1
   108    35    38    1
   109    58    53   am
   110    88    91    1
   111    88    87    1
   112    62    63    1
   113    79    78    2
   114    91    92    1
   115    54    53    2
   116    53    52    1
   117    63    64    1
   118    78    87   am
   119    78    77    1
   120    56    55    1
   121    56    57    1
   122    38    39    1
   123    38    40    1
   124    55    52    1
   125    41    42    1
   126    85    84    1
   127    92    94   am
   128    92    93    2
   129    72    71    2
   130    52    51    1
   131    64    65    2
   132    77    80    1
   133    77    76    1
   134    57    51    1
   135    74    73    1
   136    49    47   ar
   137    49    50   ar
   138    71    76   am
   139    71    70    1
   140    47    46   ar
   141    80    81    1
   142    43    42    1
   143    43    44    2
   144    42    45    1
   145    84    86    1
   146    84    83    2
   147    82    83    1
   148    82    81    1
   149    50    48   ar
   150    46    45    1
   151    46    48   ar
   152    69    70    1
   153    70    73    1
   154    73    75    1
