@<TRIPOS>MOLECULE
tmp/5yvwA00.pdb
 137 131 0 0 0
SMALL
GASTEIGER

@<TRIPOS>ATOM
      1  N         81.7120   17.3050  101.4370 N.3   166  LEU166     -0.1231
      2  CA        82.8570   16.9090  102.2530 C.3   166  LEU166      0.1693
      3  C         83.2520   15.4570  101.9790 C.2   166  LEU166      0.2592
      4  O         82.4200   14.6410  101.5930 O.2   166  LEU166     -0.2718
      5  CB        82.5740   17.1130  103.7480 C.3   166  LEU166      0.0284
      6  CG        83.8550   17.2210  104.5820 C.3   166  LEU166      0.0019
      7  CD1       84.8350   18.1880  103.9200 C.3   166  LEU166      0.0001
      8  CD2       83.5580   17.6510  106.0090 C.3   166  LEU166      0.0001
      9  N         84.5330   15.1630  102.1870 N.am  167  HIS167     -0.1962
     10  CA        85.1360   13.8370  102.0060 C.3   167  HIS167      0.1772
     11  C         84.3540   12.6390  102.5520 C.2   167  HIS167      0.2462
     12  O         83.5010   12.7960  103.4210 O.2   167  HIS167     -0.2730
     13  CB        86.5240   13.8460  102.6610 C.3   167  HIS167      0.0785
     14  CG        86.5120   14.2010  104.1190 C.ar  167  HIS167      0.0821
     15  ND1       86.1160   13.3180  105.1020 N.ar  167  HIS167     -0.2267
     16  CD2       86.8630   15.3420  104.7620 C.ar  167  HIS167      0.1154
     17  CE1       86.2160   13.9010  106.2840 C.ar  167  HIS167      0.1986
     18  NE2       86.6660   15.1290  106.1060 N.ar  167  HIS167     -0.2212
     19  N         84.6890   11.4220  102.0780 N.am  168  PRO168     -0.2716
     20  CA        84.1520   10.2450  102.7630 C.3   168  PRO168      0.1536
     21  C         84.6530   10.0940  104.1780 C.2   168  PRO168      0.2599
     22  O         85.4380    9.1860  104.4130 O.2   168  PRO168     -0.2715
     23  CB        84.6520    9.0660  101.9100 C.3   168  PRO168      0.0310
     24  CG        85.0860    9.6520  100.6240 C.3   168  PRO168      0.0237
     25  CD        85.5380   11.0390  100.9360 C.3   168  PRO168      0.0939
     26  N         84.2460   10.9740  105.0830 N.am  169  GLY169     -0.1941
     27  CA        84.2360   10.6220  106.4870 C.3   169  GLY169      0.2014
     28  C         82.8410   10.0880  106.7240 C.2   169  GLY169      0.2639
     29  O         82.6480    8.8940  106.9380 O.2   169  GLY169     -0.2714
     30  N         81.8690   10.9850  106.7810 N.am  170  ALA170     -0.1963
     31  CA        82.0760   12.3380  107.2630 C.3   170  ALA170      0.1728
     32  C         80.8310   12.5150  108.0920 C.2   170  ALA170      0.2617
     33  O         80.7370   13.3890  108.9550 O.2   170  ALA170     -0.2715
     34  CB        82.1750   13.3590  106.1550 C.3   170  ALA170      0.0334
     35  N         79.8730   11.6320  107.8070 N.am  171  GLY171     -0.1940
     36  CA        78.6540   11.4970  108.5800 C.3   171  GLY171      0.2014
     37  C         77.4480   12.0160  107.8290 C.2   171  GLY171      0.2639
     38  O         76.4180   12.2880  108.4400 O.2   171  GLY171     -0.2714
     39  N         77.5580   12.1550  106.5090 N.am  172  LYS172     -0.1963
     40  CA        76.4670   12.7640  105.7550 C.3   172  LYS172      0.1728
     41  C         75.2270   11.8820  105.8130 C.2   172  LYS172      0.2617
     42  O         74.1170   12.3550  105.5890 O.2   172  LYS172     -0.2715
     43  CB        76.8650   13.0300  104.3000 C.3   172  LYS172      0.0311
     44  CG        76.2900   12.0330  103.3070 C.3   172  LYS172      0.0038
     45  CD        76.6690   12.3710  101.8760 C.3   172  LYS172      0.0206
     46  CE        76.6050   11.1290  101.0030 C.3   172  LYS172      0.1093
     47  NZ        77.5100   10.0550  101.4960 N.3   172  LYS172     -0.1314
     48  N         75.4150   10.6080  106.1440 N.am  173  THR173     -0.1937
     49  CA        74.3070    9.6630  106.1860 C.3   173  THR173      0.2028
     50  C         73.9570    9.2260  107.6100 C.2   173  THR173      0.2642
     51  O         72.7830    9.0710  107.9440 O.2   173  THR173     -0.2714
     52  CB        74.6170    8.4120  105.3410 C.3   173  THR173      0.1808
     53  OG1       75.0130    8.8110  104.0230 O.3   173  THR173     -0.2208
     54  CG2       73.3950    7.5100  105.2460 C.3   173  THR173      0.0379
     55  N         74.9710    9.0370  108.4500 N.am  174  LYS174     -0.1977
     56  CA        74.7460    8.5040  109.7910 C.3   174  LYS174      0.1596
     57  C         74.3970    9.5680  110.8320 C.2   174  LYS174      0.2287
     58  O         73.7160    9.2720  111.8140 O.2   174  LYS174     -0.2864
     59  CB        75.9730    7.7210  110.2660 C.3   174  LYS174      0.0298
     60  CG        76.1160    6.3440  109.6380 C.3   174  LYS174      0.0038
     61  CD        76.6130    5.3300  110.6580 C.3   174  LYS174      0.0206
     62  CE        77.8850    5.8060  111.3420 C.3   174  LYS174      0.1093
     63  NZ        78.3540    4.8450  112.3780 N.3   174  LYS174     -0.1314
     64  N         74.5110   11.7590   97.0910 N.3   258  GLU258     -0.1245
     65  CA        75.4010   11.3910   95.9920 C.3   258  GLU258      0.1567
     66  C         75.0630   12.1840   94.7360 C.2   258  GLU258      0.2260
     67  O         74.9360   11.6210   93.6500 O.2   258  GLU258     -0.2867
     68  CB        75.3170    9.8880   95.7090 C.3   258  GLU258      0.0388
     69  CG        75.4320    9.0230   96.9500 C.3   258  GLU258      0.1160
     70  CD        76.8050    9.0960   97.5650 C.2   258  GLU258      0.3649
     71  OE1       77.7560    9.3990   96.8180 O.co2 258  GLU258     -0.2457
     72  OE2       76.9350    8.8550   98.7850 O.co2 258  GLU258     -0.2457
     73  N         76.5060   13.6940   92.6710 N.3   260  HIS260     -0.1241
     74  CA        77.5160   13.7280   91.6230 C.3   260  HIS260      0.1621
     75  C         77.2230   12.6610   90.5780 C.2   260  HIS260      0.2264
     76  O         77.8690   12.6110   89.5300 O.2   260  HIS260     -0.2867
     77  CB        78.9100   13.5170   92.2100 C.3   260  HIS260      0.0745
     78  CG        79.0860   12.1870   92.8740 C.ar  260  HIS260      0.0817
     79  ND1       78.8900   11.9980   94.2250 N.ar  260  HIS260     -0.2268
     80  CD2       79.4310   10.9790   92.3710 C.ar  260  HIS260      0.1154
     81  CE1       79.1110   10.7310   94.5260 C.ar  260  HIS260      0.1986
     82  NE2       79.4400   10.0910   93.4180 N.ar  260  HIS260     -0.2212
     83  N         77.3980   15.5810   98.2690 N.3   288  THR288     -0.1203
     84  CA        78.4290   14.8900   97.4970 C.3   288  THR288      0.1994
     85  C         79.8180   15.4120   97.8480 C.2   288  THR288      0.2617
     86  O         79.9870   16.5980   98.1090 O.2   288  THR288     -0.2717
     87  CB        78.2050   15.0490   95.9790 C.3   288  THR288      0.1784
     88  OG1       79.3380   14.5320   95.2710 O.3   288  THR288     -0.2211
     89  CG2       78.0120   16.5160   95.6140 C.3   288  THR288      0.0376
     90  N         80.8120   14.5290   97.8510 N.am  289  ALA289     -0.1979
     91  CA        82.1860   14.9420   98.1220 C.3   289  ALA289      0.1597
     92  C         82.7650   15.7100   96.9450 C.2   289  ALA289      0.2287
     93  O         83.5550   16.6360   97.1220 O.2   289  ALA289     -0.2864
     94  CB        83.0530   13.7470   98.4320 C.3   289  ALA289      0.0319
     95  N         78.1580    5.6260   97.0490 N.3   387  GLY387     -0.1225
     96  CA        77.6790    5.1390   98.3310 C.3   387  GLY387      0.1811
     97  C         78.0310    3.7100   98.7040 C.2   387  GLY387      0.2280
     98  O         77.5610    3.2030   99.7220 O.2   387  GLY387     -0.2866
     99  N         80.1210    1.0510  100.3810 N.3   389  ASN389     -0.1240
    100  CA        81.0800    1.0120  101.4790 C.3   389  ASN389      0.1653
    101  C         81.7130   -0.3640  101.6470 C.2   389  ASN389      0.2266
    102  O         81.0290   -1.3850  101.5840 O.2   389  ASN389     -0.2867
    103  CB        80.4090    1.4400  102.7860 C.3   389  ASN389      0.1155
    104  CG        79.9770    2.8930  102.7690 C.2   389  ASN389      0.2627
    105  OD1       80.5670    3.7200  102.0740 O.2   389  ASN389     -0.2716
    106  ND2       78.9430    3.2130  103.5380 N.am  389  ASN389     -0.0877
    107  N         86.2370    9.5280   94.0490 N.3   429  GLN429     -0.1245
    108  CA        85.2380    8.6460   94.6420 C.3   429  GLN429      0.1566
    109  C         85.7610    7.2210   94.7860 C.2   429  GLN429      0.2260
    110  O         85.5210    6.5640   95.8000 O.2   429  GLN429     -0.2867
    111  CB        83.9580    8.6500   93.8040 C.3   429  GLN429      0.0367
    112  CG        83.2300    9.9860   93.7840 C.3   429  GLN429      0.0905
    113  CD        82.5770   10.3170   95.1120 C.2   429  GLN429      0.2608
    114  OE1       82.3890    9.4440   95.9600 O.2   429  GLN429     -0.2717
    115  NE2       82.2240   11.5850   95.2990 N.am  429  GLN429     -0.0878
    116  N         86.9150    5.0780   98.8200 N.3   433  ARG433     -0.1245
    117  CA        86.4310    3.8260   99.3880 C.3   433  ARG433      0.1563
    118  C         87.2420    3.4790  100.6300 C.2   433  ARG433      0.2260
    119  O         86.7850    2.7410  101.5030 O.2   433  ARG433     -0.2867
    120  CB        86.5120    2.6880   98.3670 C.3   433  ARG433      0.0307
    121  CG        85.6310    2.8700   97.1380 C.3   433  ARG433      0.0489
    122  CD        84.2180    3.2800   97.5180 C.3   433  ARG433      0.2205
    123  NE        83.9890    4.7020   97.2800 N.pl3 433  ARG433     -0.0865
    124  CZ        82.9380    5.3770   97.7340 C.cat 433  ARG433      0.5346
    125  NH1       82.0160    4.7630   98.4630 N.pl3 433  ARG433      0.1354
    126  NH2       82.8130    6.6700   97.4660 N.pl3 433  ARG433      0.1354
    127  N         88.6230    5.6700  105.4840 N.3   436  ARG436     -0.1245
    128  CA        87.4280    5.9760  106.2610 C.3   436  ARG436      0.1563
    129  C         87.6030    5.5630  107.7150 C.2   436  ARG436      0.2260
    130  O         87.2420    6.3020  108.6310 O.2   436  ARG436     -0.2867
    131  CB        86.2090    5.2730  105.6630 C.3   436  ARG436      0.0307
    132  CG        85.8580    5.7140  104.2540 C.3   436  ARG436      0.0489
    133  CD        84.8190    4.7900  103.6420 C.3   436  ARG436      0.2205
    134  NE        84.0540    5.4470  102.5890 N.pl3 436  ARG436     -0.0865
    135  CZ        82.9060    6.0850  102.7930 C.cat 436  ARG436      0.5346
    136  NH1       82.2730    6.6590  101.7800 N.pl3 436  ARG436      0.1354
    137  NH2       82.3920    6.1480  104.0140 N.pl3 436  ARG436      0.1354
@<TRIPOS>BOND
     1    76    75    2
     2    75    74    1
     3    74    77    1
     4    74    73    1
     5    77    78    1
     6    80    78   ar
     7    80    82   ar
     8    78    79   ar
     9    82    81   ar
    10    67    66    2
    11   112   111    1
    12   112   113    1
    13   111   108    1
    14   107   108    1
    15    79    81   ar
    16   108   109    1
    17    66    65    1
    18   109   110    2
    19   113   115   am
    20   113   114    2
    21    88    87    1
    22    89    87    1
    23    68    65    1
    24    68    69    1
    25    87    84    1
    26    65    64    1
    27    71    70   ar
    28    92    93    2
    29    92    91    1
    30    69    70    1
    31    95    96    1
    32   121   122    1
    33   121   120    1
    34   123   122    1
    35   123   124    2
    36   126   124    1
    37    84    85    1
    38    84    83    1
    39    70    72   ar
    40   124   125    1
    41    85    90   am
    42    85    86    2
    43    90    91    1
    44    91    94    1
    45    96    97    1
    46   120   117    1
    47    97    98    2
    48   116   117    1
    49   117   118    1
    50    99   100    1
    51    24    25    1
    52    24    23    1
    53   118   119    2
    54    25    19    1
    55    46    47    1
    56    46    45    1
    57     1     2    1
    58   100   101    1
    59   100   103    1
    60   102   101    2
    61     4     3    2
    62   136   135    1
    63    45    44    1
    64    23    20    1
    65     3     9   am
    66     3     2    1
    67    10     9    1
    68    10    11    1
    69    10    13    1
    70   105   104    2
    71    19    11   am
    72    19    20    1
    73     2     5    1
    74    11    12    2
    75   134   135    2
    76   134   133    1
    77    13    14    1
    78    20    21    1
    79   104   103    1
    80   104   106   am
    81   135   137    1
    82    44    43    1
    83   133   132    1
    84     5     6    1
    85     7     6    1
    86    53    52    1
    87    14    16   ar
    88    14    15   ar
    89    21    22    2
    90    21    26   am
    91   132   131    1
    92    43    40    1
    93     6     8    1
    94    16    18   ar
    95    26    27    1
    96    15    17   ar
    97    54    52    1
    98    52    49    1
    99   127   128    1
   100    42    41    2
   101   131   128    1
   102    40    41    1
   103    40    39    1
   104    41    48   am
   105    18    17   ar
   106    48    49    1
   107    34    31    1
   108    49    50    1
   109   128   129    1
   110    27    28    1
   111    39    37   am
   112    28    30   am
   113    28    29    2
   114    30    31    1
   115    31    32    1
   116    50    51    2
   117    50    55   am
   118   129   130    2
   119    35    32   am
   120    35    36    1
   121    37    38    2
   122    37    36    1
   123    32    33    2
   124    55    56    1
   125    60    59    1
   126    60    61    1
   127    56    59    1
   128    56    57    1
   129    61    62    1
   130    57    58    2
   131    62    63    1
