@<TRIPOS>MOLECULE
tmp/5yvzA03.pdb
 94 89 0 0 0
SMALL
GASTEIGER

@<TRIPOS>ATOM
      1  N         -1.5270   -5.3900    3.9600 N.3    63  ARG63      -0.1245
      2  CA        -2.0940   -6.4200    4.8270 C.3    63  ARG63       0.1563
      3  C         -1.3820   -6.4730    6.1740 C.2    63  ARG63       0.2260
      4  O         -2.0180   -6.7090    7.2090 O.2    63  ARG63      -0.2867
      5  CB        -2.0260   -7.7810    4.1260 C.3    63  ARG63       0.0307
      6  CG        -2.7740   -7.8250    2.8000 C.3    63  ARG63       0.0489
      7  CD        -2.3020   -8.9720    1.8980 C.3    63  ARG63       0.2205
      8  NE        -0.9320   -8.7830    1.4150 N.pl3  63  ARG63      -0.0865
      9  CZ        -0.3960   -9.4420    0.3900 C.cat  63  ARG63       0.5346
     10  NH1       -1.1140  -10.3360   -0.2820 N.pl3  63  ARG63       0.1354
     11  NH2        0.8590   -9.2050    0.0280 N.pl3  63  ARG63       0.1354
     12  N         -2.5140   -6.5230   -2.6320 N.3   109  ALA109     -0.1231
     13  CA        -1.1980   -7.0640   -2.4930 C.3   109  ALA109      0.1694
     14  C         -0.2110   -5.9010   -2.2610 C.2   109  ALA109      0.2591
     15  O         -0.5560   -4.9700   -1.6460 O.2   109  ALA109     -0.2718
     16  CB        -0.8220   -7.9380   -3.6540 C.3   109  ALA109      0.0304
     17  N          0.9930   -5.9950   -2.7720 N.am  110  ARG110     -0.1980
     18  CA         1.9920   -4.9850   -2.5210 C.3   110  ARG110      0.1597
     19  C          1.8860   -3.6790   -3.2460 C.2   110  ARG110      0.2287
     20  O          1.5220   -3.6430   -4.3470 O.2   110  ARG110     -0.2864
     21  CB         3.3970   -5.5260   -2.7020 C.3   110  ARG110      0.0334
     22  CG         3.7730   -6.5040   -1.6230 C.3   110  ARG110      0.0492
     23  CD         5.2620   -6.7720   -1.4990 C.3   110  ARG110      0.2205
     24  NE         5.8730   -7.4510   -2.6300 N.pl3 110  ARG110     -0.0865
     25  CZ         6.6260   -6.8580   -3.5620 C.cat 110  ARG110      0.5346
     26  NH1        7.1570   -7.5590   -4.5510 N.pl3 110  ARG110      0.1354
     27  NH2        6.8380   -5.5620   -3.5340 N.pl3 110  ARG110      0.1354
     28  N          6.5970  -13.5850  -12.1080 N.3   137  PHE137     -0.1241
     29  CA         7.7070  -13.3750  -11.1970 C.3   137  PHE137      0.1605
     30  C          8.2250  -14.7180  -10.7130 C.2   137  PHE137      0.2264
     31  O          7.4600  -15.4900  -10.1120 O.2   137  PHE137     -0.2867
     32  CB         7.2720  -12.4930  -10.0380 C.3   137  PHE137      0.0534
     33  CG         6.6970  -11.1860  -10.4940 C.ar  137  PHE137     -0.0203
     34  CD1        7.5240  -10.2020  -11.0080 C.ar  137  PHE137     -0.0042
     35  CD2        5.3320  -10.9650  -10.4650 C.ar  137  PHE137     -0.0042
     36  CE1        7.0000   -9.0000  -11.4500 C.ar  137  PHE137     -0.0003
     37  CE2        4.8010   -9.7610  -10.9080 C.ar  137  PHE137     -0.0003
     38  CZ         5.6380   -8.7830  -11.3980 C.ar  137  PHE137     -0.0000
     39  N          7.5590  -15.6450   -7.1050 N.3   140  SER140     -0.1203
     40  CA         6.2080  -15.4420   -6.5810 C.3   140  SER140      0.2005
     41  C          5.1670  -15.9890   -7.5410 C.2   140  SER140      0.2461
     42  O          4.4940  -15.2230   -8.2470 O.2   140  SER140     -0.2732
     43  CB         5.9560  -13.9590   -6.3110 C.3   140  SER140      0.2103
     44  OG         6.8830  -13.4750   -5.3510 O.3   140  SER140     -0.2182
     45  N          4.9830  -17.3080   -7.5740 N.am  141  PRO141     -0.2717
     46  CA         3.9100  -17.8840   -8.3900 C.3   141  PRO141      0.1535
     47  C          2.5360  -17.4180   -7.9280 C.2   141  PRO141      0.2599
     48  O          2.3090  -17.1480   -6.7440 O.2   141  PRO141     -0.2715
     49  CB         4.0870  -19.3960   -8.2020 C.3   141  PRO141      0.0310
     50  CG         4.8630  -19.5470   -6.9440 C.3   141  PRO141      0.0237
     51  CD         5.7460  -18.3360   -6.8410 C.3   141  PRO141      0.0939
     52  N          1.6210  -17.3000   -8.8990 N.am  142  THR142     -0.1951
     53  CA         0.2580  -16.8320   -8.6720 C.3   142  THR142      0.1897
     54  C         -0.7560  -17.9470   -8.4800 C.2   142  THR142      0.2313
     55  O         -1.8690  -17.6740   -8.0180 O.2   142  THR142     -0.2863
     56  CB        -0.2320  -16.0030   -9.8630 C.3   142  THR142      0.1794
     57  OG1       -0.3900  -16.8730  -10.9860 O.3   142  THR142     -0.2208
     58  CG2        0.7600  -14.8950  -10.2130 C.3   142  THR142      0.0378
     59  N         -3.0730  -10.7780  -11.8770 N.3   147  ILE147     -0.1245
     60  CA        -2.2590   -9.6630  -11.4140 C.3   147  ILE147      0.1561
     61  C         -2.8790   -8.4050  -12.0010 C.2   147  ILE147      0.2260
     62  O         -2.7710   -8.1570  -13.2060 O.2   147  ILE147     -0.2867
     63  CB        -0.7900   -9.8060  -11.8340 C.3   147  ILE147      0.0252
     64  CG1       -0.2200  -11.1370  -11.3170 C.3   147  ILE147      0.0019
     65  CG2        0.0260   -8.6060  -11.3280 C.3   147  ILE147      0.0019
     66  CD1        1.1900  -11.4360  -11.8400 C.3   147  ILE147      0.0001
     67  N         -2.9610   -4.2560  -11.7460 N.3   149  ARG149     -0.1245
     68  CA        -2.1590   -3.1620  -11.2130 C.3   149  ARG149      0.1563
     69  C         -2.7980   -1.8180  -11.5070 C.2   149  ARG149      0.2260
     70  O         -3.3280   -1.5820  -12.6020 O.2   149  ARG149     -0.2867
     71  CB        -0.7330   -3.2040  -11.7680 C.3   149  ARG149      0.0307
     72  CG        -0.0100   -4.4500  -11.2640 C.3   149  ARG149      0.0489
     73  CD         1.4750   -4.4740  -11.5810 C.3   149  ARG149      0.2205
     74  NE         2.1760   -5.2220  -10.5410 N.pl3 149  ARG149     -0.0865
     75  CZ         3.4790   -5.4770  -10.5350 C.cat 149  ARG149      0.5346
     76  NH1        4.2510   -5.0600  -11.5340 N.pl3 149  ARG149      0.1354
     77  NH2        4.0070   -6.1530   -9.5250 N.pl3 149  ARG149      0.1354
     78  N         -0.6350   -3.3900   -6.4650 N.3   259  THR259     -0.1218
     79  CA        -1.0410   -4.6670   -7.0310 C.3   259  THR259      0.1862
     80  C         -2.2390   -5.2110   -6.2670 C.2   259  THR259      0.2287
     81  O         -2.3180   -5.0840   -5.0370 O.2   259  THR259     -0.2866
     82  CB         0.1100   -5.6770   -6.9860 C.3   259  THR259      0.1770
     83  OG1        1.2070   -5.1710   -7.7580 O.3   259  THR259     -0.2211
     84  CG2       -0.3220   -7.0440   -7.5690 C.3   259  THR259      0.0375
     85  N         -4.8080   -8.9210   -6.4250 N.3   261  HIS261     -0.1241
     86  CA        -5.0160  -10.2440   -6.9940 C.3   261  HIS261      0.1621
     87  C         -6.5070  -10.5290   -7.0810 C.2   261  HIS261      0.2264
     88  O         -7.3000  -10.0260   -6.2860 O.2   261  HIS261     -0.2867
     89  CB        -4.3400  -11.3330   -6.1540 C.3   261  HIS261      0.0745
     90  CG        -2.8540  -11.1870   -6.0650 C.ar  261  HIS261      0.0817
     91  ND1       -2.0510  -11.0100   -7.1720 N.ar  261  HIS261     -0.2268
     92  CD2       -2.0210  -11.2380   -4.9990 C.ar  261  HIS261      0.1154
     93  CE1       -0.7900  -10.9220   -6.7860 C.ar  261  HIS261      0.1986
     94  NE2       -0.7460  -11.0550   -5.4740 N.ar  261  HIS261     -0.2212
@<TRIPOS>BOND
     1    62    61    2
     2    70    69    2
     3    28    29    1
     4    61    60    1
     5    59    60    1
     6    66    64    1
     7    63    60    1
     8    63    65    1
     9    63    64    1
    10    71    72    1
    11    71    68    1
    12    67    68    1
    13    73    72    1
    14    73    74    1
    15    76    75    1
    16    69    68    1
    17    36    38   ar
    18    36    34   ar
    19    38    37   ar
    20    29    30    1
    21    29    32    1
    22    34    33   ar
    23    57    56    1
    24    37    35   ar
    25    30    31    2
    26    74    75    2
    27    75    77    1
    28    33    35   ar
    29    33    32    1
    30    58    56    1
    31    56    53    1
    32    52    53    1
    33    52    47   am
    34    53    54    1
    35    54    55    2
    36    46    49    1
    37    46    47    1
    38    46    45    1
    39    42    41    2
    40    49    50    1
    41    47    48    2
    42    83    82    1
    43    45    41   am
    44    45    51    1
    45    84    82    1
    46    41    40    1
    47    91    93   ar
    48    91    90   ar
    49    39    40    1
    50    87    86    1
    51    87    88    2
    52    79    82    1
    53    79    78    1
    54    79    80    1
    55    86    85    1
    56    86    89    1
    57    50    51    1
    58    93    94   ar
    59    40    43    1
    60    43    44    1
    61    80    81    2
    62    89    90    1
    63    90    92   ar
    64    94    92   ar
    65    26    25    1
    66    20    19    2
    67    16    13    1
    68    25    27    1
    69    25    24    2
    70    19    18    1
    71    17    18    1
    72    17    14   am
    73    21    18    1
    74    21    22    1
    75    12    13    1
    76    24    23    1
    77    13    14    1
    78    14    15    2
    79    22    23    1
    80    10     9    1
    81    11     9    1
    82     9     8    2
    83     8     7    1
    84     7     6    1
    85     6     5    1
    86     1     2    1
    87     5     2    1
    88     2     3    1
    89     3     4    2
