@<TRIPOS>MOLECULE
tmp/5yw0A01.pdb
 89 82 0 0 0
SMALL
GASTEIGER

@<TRIPOS>ATOM
      1  N         -1.4810   -5.3460    3.9760 N.3    64  ARG64      -0.1245
      2  CA        -2.0640   -6.3650    4.8320 C.3    64  ARG64       0.1563
      3  C         -1.3430   -6.4090    6.1710 C.2    64  ARG64       0.2260
      4  O         -1.9860   -6.5120    7.1760 O.2    64  ARG64      -0.2867
      5  CB        -2.0600   -7.7410    4.1510 C.3    64  ARG64       0.0307
      6  CG        -2.8180   -7.8640    2.8390 C.3    64  ARG64       0.0489
      7  CD        -2.2910   -8.9870    1.9390 C.3    64  ARG64       0.2205
      8  NE        -0.9280   -8.8000    1.4340 N.pl3  64  ARG64      -0.0865
      9  CZ        -0.3670   -9.4720    0.4300 C.cat  64  ARG64       0.5346
     10  NH1       -1.0400  -10.3960   -0.2340 N.pl3  64  ARG64       0.1354
     11  NH2        0.8700   -9.2300    0.0560 N.pl3  64  ARG64       0.1354
     12  N         -2.4920   -6.6010   -2.7090 N.3   110  ALA110     -0.1231
     13  CA        -1.1530   -7.1290   -2.4960 C.3   110  ALA110      0.1694
     14  C         -0.2040   -5.9470   -2.3260 C.2   110  ALA110      0.2591
     15  O         -0.5960   -4.9360   -1.7360 O.2   110  ALA110     -0.2718
     16  CB        -0.7380   -8.0770   -3.6250 C.3   110  ALA110      0.0304
     17  N          1.0230   -6.0210   -2.8360 N.am  111  ARG111     -0.1980
     18  CA         2.0140   -5.0160   -2.4550 C.3   111  ARG111      0.1597
     19  C          1.8760   -3.7000   -3.2150 C.2   111  ARG111      0.2287
     20  O          1.5510   -3.6680   -4.4100 O.2   111  ARG111     -0.2864
     21  CB         3.4360   -5.5540   -2.6010 C.3   111  ARG111      0.0334
     22  CG         3.7790   -6.6180   -1.5670 C.3   111  ARG111      0.0492
     23  CD         5.2820   -6.8120   -1.4150 C.3   111  ARG111      0.2205
     24  NE         5.8660   -7.5620   -2.5220 N.pl3 111  ARG111     -0.0865
     25  CZ         6.4540   -7.0080   -3.5780 C.cat 111  ARG111      0.5346
     26  NH1        6.5420   -5.6870   -3.6780 N.pl3 111  ARG111      0.1354
     27  NH2        6.9580   -7.7750   -4.5350 N.pl3 111  ARG111      0.1354
     28  N          6.6100  -13.5040  -12.0860 N.3   136  PHE136     -0.1241
     29  CA         7.7110  -13.3660  -11.1660 C.3   136  PHE136      0.1605
     30  C          8.2020  -14.7130  -10.6770 C.2   136  PHE136      0.2264
     31  O          7.5120  -15.4160  -10.0990 O.2   136  PHE136     -0.2867
     32  CB         7.2820  -12.4500  -10.0400 C.3   136  PHE136      0.0534
     33  CG         6.7740  -11.1330  -10.5260 C.ar  136  PHE136     -0.0203
     34  CD1        7.6180  -10.2240  -11.0520 C.ar  136  PHE136     -0.0042
     35  CD2        5.4640  -10.8660  -10.5240 C.ar  136  PHE136     -0.0042
     36  CE1        7.1450   -9.0300  -11.5330 C.ar  136  PHE136     -0.0003
     37  CE2        4.9910   -9.6780  -11.0050 C.ar  136  PHE136     -0.0003
     38  CZ         5.8350   -8.7750  -11.5050 C.ar  136  PHE136     -0.0000
     39  N          7.5620  -15.6530   -7.1050 N.3   139  SER139     -0.1217
     40  CA         6.2220  -15.4050   -6.5700 C.3   139  SER139      0.1889
     41  C          5.1580  -15.9600   -7.5040 C.2   139  SER139      0.2288
     42  O          4.4680  -15.1930   -8.1900 O.2   139  SER139     -0.2866
     43  CB         6.0040  -13.9070   -6.3540 C.3   139  SER139      0.2089
     44  OG         6.9490  -13.4070   -5.4160 O.3   139  SER139     -0.2183
     45  N         -3.0800  -10.7940  -11.8870 N.3   146  ILE146     -0.1245
     46  CA        -2.2520   -9.7140  -11.4420 C.3   146  ILE146      0.1561
     47  C         -2.8730   -8.4450  -12.0270 C.2   146  ILE146      0.2260
     48  O         -2.8100   -8.2370  -13.1660 O.2   146  ILE146     -0.2867
     49  CB        -0.7920   -9.8590  -11.9100 C.3   146  ILE146      0.0252
     50  CG1       -0.1900  -11.1820  -11.4100 C.3   146  ILE146      0.0019
     51  CG2        0.0230   -8.6800  -11.4280 C.3   146  ILE146      0.0019
     52  CD1        1.2230  -11.4130  -11.8820 C.3   146  ILE146      0.0001
     53  N         -2.9770   -4.3010  -11.7240 N.3   148  ARG148     -0.1245
     54  CA        -2.2470   -3.1840  -11.1980 C.3   148  ARG148      0.1563
     55  C         -2.8430   -1.8120  -11.5260 C.2   148  ARG148      0.2260
     56  O         -3.3560   -1.5710  -12.5660 O.2   148  ARG148     -0.2867
     57  CB        -0.8010   -3.2460  -11.6900 C.3   148  ARG148      0.0307
     58  CG        -0.0180   -4.3930  -11.1130 C.3   148  ARG148      0.0489
     59  CD         1.4320   -4.4300  -11.5430 C.3   148  ARG148      0.2205
     60  NE         2.2010   -5.1840  -10.5730 N.pl3 148  ARG148     -0.0865
     61  CZ         3.5030   -5.3750  -10.6000 C.cat 148  ARG148      0.5346
     62  NH1        4.2480   -4.8750  -11.5390 N.pl3 148  ARG148      0.1354
     63  NH2        4.0440   -6.0710   -9.6630 N.pl3 148  ARG148      0.1354
     64  N          2.4790    2.4010   -7.6290 N.3   256  GLU256     -0.1245
     65  CA         1.8200    1.2510   -8.2160 C.3   256  GLU256      0.1567
     66  C          1.2290    0.4070   -7.1010 C.2   256  GLU256      0.2260
     67  O          1.8120    0.3010   -6.0160 O.2   256  GLU256     -0.2867
     68  CB         2.8220    0.4210   -9.0400 C.3   256  GLU256      0.0388
     69  CG         2.2510   -0.8370   -9.6590 C.3   256  GLU256      0.1160
     70  CD         2.3650   -2.0330   -8.7360 C.2   256  GLU256      0.3649
     71  OE1        3.3450   -2.0930   -7.9610 O.co2 256  GLU256     -0.2457
     72  OE2        1.4700   -2.8980   -8.7750 O.co2 256  GLU256     -0.2457
     73  N         -0.6390   -3.4410   -6.5260 N.3   258  THR258     -0.1218
     74  CA        -1.0470   -4.7270   -7.0640 C.3   258  THR258      0.1862
     75  C         -2.2330   -5.2630   -6.2800 C.2   258  THR258      0.2287
     76  O         -2.2870   -5.1430   -5.0450 O.2   258  THR258     -0.2866
     77  CB         0.1130   -5.7270   -6.9910 C.3   258  THR258      0.1770
     78  OG1        1.1910   -5.2510   -7.8070 O.3   258  THR258     -0.2211
     79  CG2       -0.3100   -7.1000   -7.5350 C.3   258  THR258      0.0375
     80  N         -4.7700   -8.9910   -6.4480 N.3   260  HIS260     -0.1241
     81  CA        -4.9880  -10.3100   -7.0220 C.3   260  HIS260      0.1621
     82  C         -6.4770  -10.5980   -7.0880 C.2   260  HIS260      0.2264
     83  O         -7.2660  -10.0850   -6.2880 O.2   260  HIS260     -0.2867
     84  CB        -4.2880  -11.3880   -6.1920 C.3   260  HIS260      0.0745
     85  CG        -2.8000  -11.2760   -6.2350 C.ar  260  HIS260      0.0817
     86  ND1       -2.0170  -11.2750   -5.0990 N.ar  260  HIS260     -0.2268
     87  CD2       -1.9530  -11.1310   -7.2820 C.ar  260  HIS260      0.1154
     88  CE1       -0.7500  -11.1390   -5.4470 C.ar  260  HIS260      0.1986
     89  NE2       -0.6830  -11.0480   -6.7630 N.ar  260  HIS260     -0.2212
@<TRIPOS>BOND
     1    48    47    2
     2    56    55    2
     3    28    29    1
     4    47    46    1
     5    49    46    1
     6    49    51    1
     7    49    50    1
     8    45    46    1
     9    52    50    1
    10    53    54    1
    11    57    54    1
    12    57    58    1
    13    59    58    1
    14    59    60    1
    15    62    61    1
    16    36    38   ar
    17    36    34   ar
    18    55    54    1
    19    38    37   ar
    20    29    30    1
    21    29    32    1
    22    34    33   ar
    23    37    35   ar
    24    30    31    2
    25    61    60    2
    26    61    63    1
    27    33    35   ar
    28    33    32    1
    29    69    68    1
    30    69    70    1
    31    68    65    1
    32    72    70   ar
    33    70    71   ar
    34    65    64    1
    35    65    66    1
    36    42    41    2
    37    78    77    1
    38    79    77    1
    39    41    40    1
    40    87    89   ar
    41    87    85   ar
    42    39    40    1
    43    66    67    2
    44    82    81    1
    45    82    83    2
    46    74    77    1
    47    74    73    1
    48    74    75    1
    49    81    80    1
    50    81    84    1
    51    89    88   ar
    52    40    43    1
    53    43    44    1
    54    75    76    2
    55    85    84    1
    56    85    86   ar
    57    88    86   ar
    58    27    25    1
    59    20    19    2
    60    26    25    1
    61    16    13    1
    62    25    24    2
    63    19    18    1
    64    17    18    1
    65    17    14   am
    66    12    13    1
    67    21    18    1
    68    21    22    1
    69    24    23    1
    70    13    14    1
    71    14    15    2
    72    22    23    1
    73    10     9    1
    74    11     9    1
    75     9     8    2
    76     8     7    1
    77     7     6    1
    78     6     5    1
    79     1     2    1
    80     5     2    1
    81     2     3    1
    82     3     4    2
