@<TRIPOS>MOLECULE
tmp/5yw5A00.pdb
 86 81 0 0 0
SMALL
GASTEIGER

@<TRIPOS>ATOM
      1  N         16.9330  -12.1760   -6.8600 N.3    24  ILE24      -0.1231
      2  CA        16.4740  -11.4380   -5.7130 C.3    24  ILE24       0.1692
      3  C         16.8820  -10.0000   -6.0030 C.2    24  ILE24       0.2592
      4  O         18.0690   -9.7530   -6.2250 O.2    24  ILE24      -0.2718
      5  CB        17.1980  -11.8600   -4.4290 C.3    24  ILE24       0.0266
      6  CG1       16.9100  -13.3440   -4.0490 C.3    24  ILE24       0.0019
      7  CG2       16.8460  -10.9760   -3.2780 C.3    24  ILE24       0.0020
      8  CD1       15.4900  -13.7820   -4.2300 C.3    24  ILE24       0.0001
      9  N         15.9390   -9.0840   -6.0090 N.am   25  MET25      -0.1965
     10  CA        16.2410   -7.6360   -6.1350 C.3    25  MET25       0.1736
     11  C         16.5380   -7.1580   -4.7660 C.2    25  MET25       0.2616
     12  O         15.6640   -7.1880   -3.9450 O.2    25  MET25      -0.2715
     13  CB        15.0660   -6.9270   -6.6930 C.3    25  MET25       0.0427
     14  CG        15.3130   -5.4490   -7.0130 C.3    25  MET25       0.0599
     15  SD        16.5240   -5.1550   -8.2960 S.3    25  MET25      -0.1393
     16  CE        15.5440   -5.5960   -9.7840 C.3    25  MET25       0.0692
     17  N         17.7450   -6.7450   -4.4640 N.am   26  PHE26      -0.1960
     18  CA        18.0940   -6.3680   -3.1170 C.3    26  PHE26       0.1771
     19  C         17.8280   -4.8710   -2.8840 C.2    26  PHE26       0.2619
     20  O         18.1250   -4.0210   -3.7450 O.2    26  PHE26      -0.2715
     21  CB        19.5680   -6.6690   -2.9070 C.3    26  PHE26       0.0574
     22  CG        20.0000   -6.5460   -1.4310 C.ar   26  PHE26      -0.0200
     23  CD1       20.4670   -5.3620   -0.9140 C.ar   26  PHE26      -0.0042
     24  CD2       19.9330   -7.6290   -0.6150 C.ar   26  PHE26      -0.0042
     25  CE1       20.8420   -5.2650    0.4270 C.ar   26  PHE26      -0.0003
     26  CE2       20.3690   -7.5800    0.7270 C.ar   26  PHE26      -0.0003
     27  CZ        20.7830   -6.3760    1.2610 C.ar   26  PHE26      -0.0000
     28  N         17.1870   -4.5600   -1.7750 N.am   27  ARG27      -0.1977
     29  CA        16.8440   -3.1390   -1.4710 C.3    27  ARG27       0.1597
     30  C         17.9760   -2.6100   -0.6250 C.2    27  ARG27       0.2287
     31  O         18.1030   -3.0760    0.4760 O.2    27  ARG27      -0.2864
     32  CB        15.4720   -3.0650   -0.7220 C.3    27  ARG27       0.0334
     33  CG        14.3750   -3.8410   -1.4400 C.3    27  ARG27       0.0492
     34  CD        14.1030   -3.1640   -2.7700 C.3    27  ARG27       0.2205
     35  NE        13.1630   -3.8630   -3.5830 N.pl3  27  ARG27      -0.0865
     36  CZ        12.8030   -3.4210   -4.8100 C.cat  27  ARG27       0.5346
     37  NH1       13.1890   -2.2590   -5.2940 N.pl3  27  ARG27       0.1354
     38  NH2       12.0040   -4.1380   -5.5610 N.pl3  27  ARG27       0.1354
     39  N         20.6550   -4.7010   11.4020 N.3    66  ARG66      -0.1301
     40  CA        20.2620   -3.4170   10.7350 C.3    66  ARG66       0.1248
     41  C         19.1080   -2.8360   11.6100 C.3    66  ARG66       0.2009
     42  O         18.8680   -1.5680   11.6150 O.3    66  ARG66      -0.2188
     43  CB        19.9660   -3.6430    9.1910 C.3    66  ARG66       0.0254
     44  CG        20.8840   -4.6400    8.3680 C.3    66  ARG66       0.0485
     45  CD        20.8100   -6.2030    8.7160 C.3    66  ARG66       0.2205
     46  NE        19.4970   -6.8870    8.5210 N.pl3  66  ARG66      -0.0865
     47  CZ        18.5120   -7.2020    9.4130 C.cat  66  ARG66       0.5346
     48  NH1       18.4580   -6.8270   10.7590 N.pl3  66  ARG66       0.1354
     49  NH2       17.4380   -7.8170    8.8750 N.pl3  66  ARG66       0.1354
     50  N         14.9590   -2.8850    9.4460 N.3   127  ASP127     -0.1225
     51  CA        14.9770   -2.3420    8.1220 C.3   127  ASP127      0.1805
     52  C         13.8320   -2.7440    7.1940 C.2   127  ASP127      0.2597
     53  O         13.3410   -1.9320    6.4560 O.2   127  ASP127     -0.2718
     54  CB        16.3080   -2.5840    7.4260 C.3   127  ASP127      0.1424
     55  CG        16.6830   -4.1120    7.2460 C.2   127  ASP127      0.3668
     56  OD1       16.1890   -5.0310    7.8830 O.co2 127  ASP127     -0.2456
     57  OD2       17.6320   -4.3570    6.4980 O.co2 127  ASP127     -0.2456
     58  N         13.4350   -4.0020    7.2220 N.am  128  LEU128     -0.1979
     59  CA        12.7230   -4.5840    6.1240 C.3   128  LEU128      0.1596
     60  C         11.8810   -5.7560    6.6110 C.2   128  LEU128      0.2287
     61  O         12.3710   -6.6200    7.3290 O.2   128  LEU128     -0.2864
     62  CB        13.7030   -5.0230    4.9850 C.3   128  LEU128      0.0297
     63  CG        12.9150   -5.4940    3.7460 C.3   128  LEU128      0.0022
     64  CD1       13.6080   -5.0340    2.4680 C.3   128  LEU128      0.0001
     65  CD2       12.8730   -6.9970    3.8030 C.3   128  LEU128      0.0001
     66  N          9.9680   -8.9290    5.3440 N.3   130  ALA130     -0.1245
     67  CA         9.8290   -9.8720    4.2760 C.3   130  ALA130      0.1562
     68  C          8.9430  -11.0110    4.7540 C.2   130  ALA130      0.2260
     69  O          7.6910  -10.8610    4.7660 O.2   130  ALA130     -0.2867
     70  CB        11.2260  -10.3360    3.9130 C.3   130  ALA130      0.0290
     71  N         10.9110   -0.6610    5.2040 N.3   156  MET156     -0.1196
     72  CA        10.3960   -1.2870    4.0020 C.3   156  MET156      0.1786
     73  C          9.6450   -2.5420    4.2620 C.2   156  MET156      0.2306
     74  O          9.9420   -3.2620    5.2400 O.2   156  MET156     -0.2863
     75  CB        11.5730   -1.7160    3.1040 C.2   156  MET156      0.0070
     76  CG        12.3600   -0.5920    2.5130 C.2   156  MET156      0.0282
     77  SD        13.9550   -1.0530    1.7300 S.3   156  MET156     -0.1125
     78  CE        14.9450   -1.4340    3.1250 C.3   156  MET156      0.0742
     79  N          8.0880   -5.9180    1.9590 N.3   158  LEU158     -0.1245
     80  CA         7.9760   -6.5970    0.6690 C.3   158  LEU158      0.1561
     81  C          6.6030   -7.1700    0.4560 C.2   158  LEU158      0.2260
     82  O          6.2000   -8.1020    1.1080 O.2   158  LEU158     -0.2867
     83  CB         9.0810   -7.6220    0.5090 C.3   158  LEU158      0.0270
     84  CG        10.5350   -7.1290    0.5490 C.3   158  LEU158      0.0019
     85  CD1       11.5000   -8.2850    0.2700 C.3   158  LEU158      0.0001
     86  CD2       10.8500   -5.9620   -0.4100 C.3   158  LEU158      0.0001
@<TRIPOS>BOND
     1    16    15    1
     2    15    14    1
     3    14    13    1
     4     1     2    1
     5    13    10    1
     6     4     3    2
     7    10     9    1
     8    10    11    1
     9     9     3   am
    10     3     2    1
    11     2     5    1
    12    38    36    1
    13    37    36    1
    14    36    35    2
    15    11    17   am
    16    11    12    2
    17    17    18    1
    18     5     6    1
    19     5     7    1
    20     8     6    1
    21    20    19    2
    22    35    34    1
    23    18    21    1
    24    18    19    1
    25    21    22    1
    26    19    28   am
    27    34    33    1
    28    28    29    1
    29    29    32    1
    30    29    30    1
    31    33    32    1
    32    22    23   ar
    33    22    24   ar
    34    23    25   ar
    35    30    31    2
    36    24    26   ar
    37    86    84    1
    38    85    84    1
    39    25    27   ar
    40    81    80    1
    41    81    82    2
    42    83    84    1
    43    83    80    1
    44    80    79    1
    45    26    27   ar
    46    77    76    1
    47    77    78    1
    48    64    63    1
    49    76    75    2
    50    75    72    1
    51    63    65    1
    52    63    62    1
    53    70    67    1
    54    72    73    1
    55    72    71    1
    56    73    74    2
    57    67    68    1
    58    67    66    1
    59    68    69    2
    60    62    59    1
    61    59    60    1
    62    59    58    1
    63    53    52    2
    64    57    55   ar
    65    60    61    2
    66    52    58   am
    67    52    51    1
    68    55    54    1
    69    55    56   ar
    70    54    51    1
    71    51    50    1
    72    44    45    1
    73    44    43    1
    74    46    45    1
    75    46    47    2
    76    49    47    1
    77    43    40    1
    78    47    48    1
    79    40    39    1
    80    40    41    1
    81    41    42    1
