@<TRIPOS>MOLECULE
tmp/5ywbC00.pdb
 85 85 0 0 0
SMALL
GASTEIGER

@<TRIPOS>ATOM
      1  N        165.5430  142.6920  157.7890 N.3   151  ILE151     -0.1231
      2  CA       165.9370  141.4240  157.1810 C.3   151  ILE151      0.1692
      3  C        165.9420  141.4340  155.6520 C.2   151  ILE151      0.2592
      4  O        164.9970  141.9020  155.0170 O.2   151  ILE151     -0.2718
      5  CB       165.0640  140.2570  157.6890 C.3   151  ILE151      0.0266
      6  CG1      163.5770  140.6000  157.5710 C.3   151  ILE151      0.0019
      7  CG2      165.4130  139.9220  159.1310 C.3   151  ILE151      0.0020
      8  CD1      163.0200  140.4650  156.1710 C.3   151  ILE151      0.0001
      9  N        167.0230  140.9240  155.0720 N.am  152  PHE152     -0.1962
     10  CA       167.1620  140.8270  153.6250 C.3   152  PHE152      0.1771
     11  C        167.5040  139.3830  153.2770 C.2   152  PHE152      0.2620
     12  O        168.3900  138.7940  153.8970 O.2   152  PHE152     -0.2715
     13  CB       168.2560  141.7680  153.1220 C.3   152  PHE152      0.0574
     14  CG       168.0150  143.2120  153.4570 C.ar  152  PHE152     -0.0200
     15  CD1      168.4900  143.7510  154.6410 C.ar  152  PHE152     -0.0042
     16  CD2      167.3130  144.0300  152.5880 C.ar  152  PHE152     -0.0042
     17  CE1      168.2690  145.0790  154.9520 C.ar  152  PHE152     -0.0003
     18  CE2      167.0890  145.3590  152.8930 C.ar  152  PHE152     -0.0003
     19  CZ       167.5680  145.8850  154.0770 C.ar  152  PHE152     -0.0000
     20  N        166.8170  138.8030  152.2970 N.am  153  SER153     -0.1936
     21  CA       167.1070  137.4220  151.9390 C.3   153  SER153      0.2055
     22  C        168.6140  137.2190  151.8170 C.2   153  SER153      0.2643
     23  O        169.3590  138.1390  151.4700 O.2   153  SER153     -0.2714
     24  CB       166.4030  137.0390  150.6370 C.3   153  SER153      0.2130
     25  OG       166.7770  137.8960  149.5770 O.3   153  SER153     -0.2179
     26  N        169.0620  135.9970  152.1250 N.am  154  LYS154     -0.1963
     27  CA       170.4990  135.7370  152.2090 C.3   154  LYS154      0.1728
     28  C        171.1820  135.9200  150.8610 C.2   154  LYS154      0.2616
     29  O        172.2690  136.5060  150.7820 O.2   154  LYS154     -0.2715
     30  CB       170.7500  134.3290  152.7450 C.3   154  LYS154      0.0311
     31  CG       172.2230  133.9820  152.8600 C.3   154  LYS154      0.0038
     32  CD       172.4220  132.5310  153.2530 C.3   154  LYS154      0.0206
     33  CE       173.8970  132.2060  153.3950 C.3   154  LYS154      0.1093
     34  NZ       174.1250  130.7840  153.7670 N.3   154  LYS154     -0.1314
     35  N        170.5710  135.4180  149.7900 N.am  155  HIS155     -0.1973
     36  CA       171.0780  135.5910  148.4390 C.3   155  HIS155      0.1656
     37  C        169.9960  136.2050  147.5620 C.2   155  HIS155      0.2291
     38  O        168.8080  135.9150  147.7180 O.2   155  HIS155     -0.2864
     39  CB       171.5580  134.2570  147.8410 C.3   155  HIS155      0.0771
     40  CG       170.5010  133.1980  147.7830 C.ar  155  HIS155      0.0820
     41  ND1      169.4720  133.2180  146.8660 N.ar  155  HIS155     -0.2267
     42  CD2      170.3230  132.0750  148.5210 C.ar  155  HIS155      0.1154
     43  CE1      168.7020  132.1610  147.0460 C.ar  155  HIS155      0.1986
     44  NE2      169.1950  131.4500  148.0440 N.ar  155  HIS155     -0.2212
     45  N        159.6550  143.1950  160.6980 N.3   174  LEU174     -0.1245
     46  CA       159.5640  142.1310  161.6840 C.3   174  LEU174      0.1561
     47  C        158.7270  142.5090  162.8990 C.2   174  LEU174      0.2260
     48  O        158.5870  141.6890  163.8150 O.2   174  LEU174     -0.2867
     49  CB       160.9700  141.7060  162.1330 C.3   174  LEU174      0.0270
     50  CG       161.3030  140.2340  161.8800 C.3   174  LEU174      0.0019
     51  CD1      161.1390  139.8880  160.4050 C.3   174  LEU174      0.0001
     52  CD2      162.7080  139.8880  162.3610 C.3   174  LEU174      0.0001
     53  N        156.7450  133.2110  156.2010 N.3   299  TYR299     -0.1227
     54  CA       158.1720  133.4940  156.1870 C.3   299  TYR299      0.1736
     55  C        159.0310  132.2440  156.0570 C.2   299  TYR299      0.2596
     56  O        160.2600  132.3600  156.0170 O.2   299  TYR299     -0.2718
     57  CB       158.5640  134.2650  157.4510 C.3   299  TYR299      0.0548
     58  CG       158.1050  135.7040  157.4370 C.ar  299  TYR299     -0.0200
     59  CD1      157.8790  136.3650  156.2370 C.ar  299  TYR299     -0.0009
     60  CD2      157.8990  136.4000  158.6190 C.ar  299  TYR299     -0.0009
     61  CE1      157.4620  137.6810  156.2160 C.ar  299  TYR299      0.0417
     62  CE2      157.4800  137.7180  158.6090 C.ar  299  TYR299      0.0417
     63  CZ       157.2650  138.3530  157.4030 C.ar  299  TYR299      0.1957
     64  OH       156.8490  139.6650  157.3840 O.3   299  TYR299     -0.2866
     65  N        158.4240  131.0560  155.9920 N.am  300  SER300     -0.1952
     66  CA       159.1960  129.8490  155.7140 C.3   300  SER300      0.1924
     67  C        159.6540  129.8190  154.2610 C.2   300  SER300      0.2314
     68  O        160.7790  129.3940  153.9660 O.2   300  SER300     -0.2863
     69  CB       158.3680  128.6040  156.0380 C.3   300  SER300      0.2116
     70  OG       158.0350  128.5500  157.4140 O.3   300  SER300     -0.2180
     71  N        160.2860  132.4320  152.6210 N.3   302  PHE302     -0.1227
     72  CA       160.9360  133.7200  152.3890 C.3   302  PHE302      0.1736
     73  C        162.1880  133.5580  151.5360 C.2   302  PHE302      0.2596
     74  O        162.3600  134.2490  150.5240 O.2   302  PHE302     -0.2718
     75  CB       161.2760  134.3790  153.7280 C.3   302  PHE302      0.0547
     76  CG       161.8240  135.7760  153.6020 C.ar  302  PHE302     -0.0202
     77  CD1      160.9760  136.8500  153.3870 C.ar  302  PHE302     -0.0042
     78  CD2      163.1820  136.0160  153.7160 C.ar  302  PHE302     -0.0042
     79  CE1      161.4740  138.1350  153.2750 C.ar  302  PHE302     -0.0003
     80  CE2      163.6850  137.3000  153.6060 C.ar  302  PHE302     -0.0003
     81  CZ       162.8300  138.3590  153.3840 C.ar  302  PHE302     -0.0000
     82  N        163.0720  132.6510  151.9290 N.am  303  GLY303     -0.1957
     83  CA       164.2690  132.3620  151.1720 C.3   303  GLY303      0.1869
     84  C        164.1640  131.1850  150.2290 C.2   303  GLY303      0.2309
     85  O        165.1930  130.7270  149.7220 O.2   303  GLY303     -0.2863
@<TRIPOS>BOND
     1    41    43   ar
     2    41    40   ar
     3    43    44   ar
     4    37    38    2
     5    37    36    1
     6    40    39    1
     7    40    42   ar
     8    39    36    1
     9    44    42   ar
    10    36    35    1
    11    25    24    1
    12    85    84    2
    13    35    28   am
    14    84    83    1
    15    74    73    2
    16    24    21    1
    17    29    28    2
    18    28    27    1
    19    83    82    1
    20    23    22    2
    21    73    82   am
    22    73    72    1
    23    22    21    1
    24    22    26   am
    25    21    20    1
    26    26    27    1
    27    27    30    1
    28    20    11   am
    29    72    71    1
    30    72    75    1
    31    16    18   ar
    32    16    14   ar
    33    30    31    1
    34    31    32    1
    35    18    19   ar
    36    13    14    1
    37    13    10    1
    38    32    33    1
    39    79    81   ar
    40    79    77   ar
    41    11    10    1
    42    11    12    2
    43    81    80   ar
    44    77    76   ar
    45    33    34    1
    46    14    15   ar
    47    76    78   ar
    48    76    75    1
    49    80    78   ar
    50    10     9    1
    51    68    67    2
    52    19    17   ar
    53    67    66    1
    54    15    17   ar
    55     4     3    2
    56     9     3   am
    57     3     2    1
    58    66    65    1
    59    66    69    1
    60    65    55   am
    61    56    55    2
    62    69    70    1
    63    55    54    1
    64     8     6    1
    65    54    53    1
    66    54    57    1
    67    61    59   ar
    68    61    63   ar
    69    59    58   ar
    70     2     5    1
    71     2     1    1
    72    64    63    1
    73    63    62   ar
    74    58    57    1
    75    58    60   ar
    76     6     5    1
    77     5     7    1
    78    62    60   ar
    79    51    50    1
    80    45    46    1
    81    46    49    1
    82    46    47    1
    83    50    49    1
    84    50    52    1
    85    47    48    2
