@<TRIPOS>MOLECULE
tmp/5ywgB00.pdb
 172 163 0 0 0
SMALL
GASTEIGER

@<TRIPOS>ATOM
      1  N        -20.3600   15.1040  -29.8790 N.3   181  HIS181     -0.1241
      2  CA       -20.9380   15.0490  -28.5480 C.3   181  HIS181      0.1621
      3  C        -20.1950   14.0200  -27.7120 C.2   181  HIS181      0.2264
      4  O        -19.3960   13.2410  -28.2390 O.2   181  HIS181     -0.2867
      5  CB       -22.4590   14.7660  -28.6120 C.3   181  HIS181      0.0745
      6  CG       -22.8460   13.4720  -29.2840 C.ar  181  HIS181      0.0817
      7  ND1      -23.2840   13.4000  -30.5940 N.ar  181  HIS181     -0.2268
      8  CD2      -22.9220   12.2090  -28.8000 C.ar  181  HIS181      0.1154
      9  CE1      -23.6210   12.1560  -30.8810 C.ar  181  HIS181      0.1986
     10  NE2      -23.3860   11.4090  -29.8180 N.ar  181  HIS181     -0.2212
     11  N        -21.0730   11.3920  -24.5640 N.3   183  VAL183     -0.1245
     12  CA       -22.2090   10.8160  -23.8470 C.3   183  VAL183      0.1561
     13  C        -21.7870   10.1510  -22.5420 C.2   183  VAL183      0.2260
     14  O        -20.7550    9.4620  -22.4760 O.2   183  VAL183     -0.2867
     15  CB       -22.9270    9.8040  -24.7460 C.3   183  VAL183      0.0252
     16  CG1      -24.2520    9.4440  -24.1360 C.3   183  VAL183      0.0019
     17  CG2      -23.1030   10.3670  -26.1280 C.3   183  VAL183      0.0019
     18  N        -32.9680    2.0840  -21.7100 N.3   211  LEU211     -0.1245
     19  CA       -32.3070    3.2860  -21.2070 C.3   211  LEU211      0.1561
     20  C        -33.2470    4.4790  -21.2600 C.2   211  LEU211      0.2260
     21  O        -34.2570    4.4680  -21.9650 O.2   211  LEU211     -0.2867
     22  CB       -31.0370    3.6010  -22.0000 C.3   211  LEU211      0.0270
     23  CG       -31.1600    3.5980  -23.5290 C.3   211  LEU211      0.0019
     24  CD1      -31.8020    4.8850  -24.0730 C.3   211  LEU211      0.0001
     25  CD2      -29.7890    3.3610  -24.1600 C.3   211  LEU211      0.0001
     26  N        -32.6920    8.8430  -21.6940 N.3   213  SER213     -0.1217
     27  CA       -31.6880    9.8160  -22.1000 C.3   213  SER213      0.1889
     28  C        -32.2180   11.2510  -22.0660 C.2   213  SER213      0.2288
     29  O        -33.3970   11.5150  -22.3230 O.2   213  SER213     -0.2866
     30  CB       -31.1400    9.4900  -23.5060 C.3   213  SER213      0.2089
     31  OG       -32.1580    9.5010  -24.4940 O.3   213  SER213     -0.2183
     32  N        -25.2700   14.3840  -23.9510 N.3   226  PRO226     -0.2116
     33  CA       -26.3350   13.4390  -23.5610 C.3   226  PRO226      0.1372
     34  C        -25.9760   12.6210  -22.3370 C.2   226  PRO226      0.2244
     35  O        -24.8180   12.2870  -22.1090 O.2   226  PRO226     -0.2868
     36  CB       -26.4700   12.5280  -24.7850 C.3   226  PRO226      0.0268
     37  CG       -25.9720   13.3230  -25.9190 C.3   226  PRO226      0.0207
     38  CD       -24.8580   14.1880  -25.3530 C.3   226  PRO226      0.0892
     39  N        -27.2980    9.1220  -19.9030 N.3   228  ASN228     -0.1240
     40  CA       -28.0060    7.8490  -19.9820 C.3   228  ASN228      0.1653
     41  C        -28.0870    7.1910  -18.6180 C.2   228  ASN228      0.2266
     42  O        -27.0900    7.0990  -17.8980 O.2   228  ASN228     -0.2867
     43  CB       -27.3130    6.8820  -20.9280 C.3   228  ASN228      0.1155
     44  CG       -27.5460    7.2140  -22.3580 C.2   228  ASN228      0.2627
     45  OD1      -28.5070    7.8920  -22.6960 O.2   228  ASN228     -0.2716
     46  ND2      -26.6810    6.7360  -23.2200 N.am  228  ASN228     -0.0877
     47  N        -19.4150    7.3110  -22.0000 N.3   250  GLN250     -0.1231
     48  CA       -19.7820    6.1060  -22.7430 C.3   250  GLN250      0.1698
     49  C        -19.3600    6.1470  -24.2020 C.2   250  GLN250      0.2592
     50  O        -18.8910    5.1410  -24.7200 O.2   250  GLN250     -0.2718
     51  CB       -21.2920    5.8390  -22.6920 C.3   250  GLN250      0.0381
     52  CG       -21.6630    4.4360  -23.2180 C.3   250  GLN250      0.0905
     53  CD       -23.0650    4.3590  -23.7790 C.2   250  GLN250      0.2608
     54  OE1      -23.5530    5.3210  -24.3680 O.2   250  GLN250     -0.2717
     55  NE2      -23.7190    3.2150  -23.5990 N.am  250  GLN250     -0.0878
     56  N        -19.5530    7.2580  -24.9020 N.am  251  HIS251     -0.1976
     57  CA       -19.0640    7.2890  -26.2680 C.3   251  HIS251      0.1656
     58  C        -18.8450    8.7240  -26.7380 C.2   251  HIS251      0.2291
     59  O        -19.2670    9.7050  -26.1070 O.2   251  HIS251     -0.2864
     60  CB       -19.9650    6.4810  -27.2280 C.3   251  HIS251      0.0771
     61  CG       -21.3270    7.0590  -27.4920 C.ar  251  HIS251      0.0820
     62  ND1      -22.4610    6.6450  -26.8160 N.ar  251  HIS251     -0.2267
     63  CD2      -21.7570    7.9360  -28.4320 C.ar  251  HIS251      0.1154
     64  CE1      -23.5180    7.2690  -27.3020 C.ar  251  HIS251      0.1986
     65  NE2      -23.1200    8.0570  -28.2860 N.ar  251  HIS251     -0.2212
     66  N        -20.1710   -2.6770  -35.1440 N.3   278  MET278     -0.1245
     67  CA       -21.2590   -3.5860  -34.8290 C.3   278  MET278      0.1570
     68  C        -21.7610   -4.2370  -36.1150 C.2   278  MET278      0.2261
     69  O        -21.6510   -3.6450  -37.1990 O.2   278  MET278     -0.2867
     70  CB       -22.3920   -2.8360  -34.1300 C.3   278  MET278      0.0387
     71  CG       -21.9760   -2.1200  -32.8530 C.3   278  MET278      0.0595
     72  SD       -23.3590   -1.5520  -31.8390 S.3   278  MET278     -0.1393
     73  CE       -22.5300   -1.2270  -30.2790 C.3   278  MET278      0.0692
     74  N        -26.1650    3.8940  -40.5210 N.3   311  LEU311     -0.1245
     75  CA       -27.5410    4.0670  -40.0710 C.3   311  LEU311      0.1561
     76  C        -27.9790    5.5040  -40.3200 C.2   311  LEU311      0.2260
     77  O        -27.1670    6.4330  -40.2450 O.2   311  LEU311     -0.2867
     78  CB       -27.7070    3.7030  -38.5880 C.3   311  LEU311      0.0270
     79  CG       -27.8590    2.2270  -38.1800 C.3   311  LEU311      0.0019
     80  CD1      -26.5440    1.5120  -38.2160 C.3   311  LEU311      0.0001
     81  CD2      -28.4340    2.1240  -36.7900 C.3   311  LEU311      0.0001
     82  N        -25.0900    7.6460  -39.2780 N.3   322  GLN322     -0.1245
     83  CA       -24.3350    7.2630  -38.0870 C.3   322  GLN322      0.1566
     84  C        -23.9560    5.7890  -38.0860 C.2   322  GLN322      0.2260
     85  O        -24.7230    4.9430  -38.5520 O.2   322  GLN322     -0.2867
     86  CB       -25.1170    7.5930  -36.8130 C.3   322  GLN322      0.0367
     87  CG       -26.3840    6.8250  -36.6210 C.3   322  GLN322      0.0905
     88  CD       -27.1370    7.2230  -35.3580 C.2   322  GLN322      0.2608
     89  OE1      -28.1630    6.6260  -35.0250 O.2   322  GLN322     -0.2717
     90  NE2      -26.6420    8.2330  -34.6590 N.am  322  GLN322     -0.0878
     91  N        -21.4360    2.8240  -35.4700 N.3   324  PHE324     -0.1241
     92  CA       -20.8840    2.6050  -34.1400 C.3   324  PHE324      0.1605
     93  C        -19.8350    1.5070  -34.1560 C.2   324  PHE324      0.2264
     94  O        -20.0570    0.4230  -34.7120 O.2   324  PHE324     -0.2867
     95  CB       -21.9800    2.2190  -33.1470 C.3   324  PHE324      0.0534
     96  CG       -23.0080    3.2640  -32.9570 C.ar  324  PHE324     -0.0203
     97  CD1      -24.0440    3.4040  -33.8610 C.ar  324  PHE324     -0.0042
     98  CD2      -22.9500    4.1050  -31.8640 C.ar  324  PHE324     -0.0042
     99  CE1      -25.0280    4.3720  -33.6780 C.ar  324  PHE324     -0.0003
    100  CE2      -23.9280    5.0880  -31.6780 C.ar  324  PHE324     -0.0003
    101  CZ       -24.9690    5.2190  -32.5820 C.ar  324  PHE324     -0.0000
    102  N        -17.0230    3.2670  -26.4540 N.3   335  PHE335     -0.1241
    103  CA       -16.9370    3.0490  -27.8960 C.3   335  PHE335      0.1605
    104  C        -16.9030    4.4040  -28.5910 C.2   335  PHE335      0.2264
    105  O        -16.8940    5.4380  -27.9330 O.2   335  PHE335     -0.2867
    106  CB       -18.0820    2.1600  -28.4170 C.3   335  PHE335      0.0534
    107  CG       -19.4840    2.5650  -27.9660 C.ar  335  PHE335     -0.0203
    108  CD1      -19.9440    2.2720  -26.6810 C.ar  335  PHE335     -0.0042
    109  CD2      -20.3640    3.1690  -28.8640 C.ar  335  PHE335     -0.0042
    110  CE1      -21.2400    2.6140  -26.2890 C.ar  335  PHE335     -0.0003
    111  CE2      -21.6820    3.5290  -28.4850 C.ar  335  PHE335     -0.0003
    112  CZ       -22.1210    3.2520  -27.2010 C.ar  335  PHE335     -0.0000
    113  N        -18.4750    6.7790  -32.0200 N.3   337  GLU337     -0.1245
    114  CA       -19.5340    6.9750  -32.9900 C.3   337  GLU337      0.1567
    115  C        -19.0060    7.8650  -34.1060 C.2   337  GLU337      0.2260
    116  O        -18.2990    8.8460  -33.8510 O.2   337  GLU337     -0.2867
    117  CB       -20.7490    7.5890  -32.3060 C.3   337  GLU337      0.0388
    118  CG       -21.9650    7.7860  -33.1740 C.3   337  GLU337      0.1160
    119  CD       -23.1660    8.3000  -32.3770 C.2   337  GLU337      0.3649
    120  OE1      -23.2900    7.9800  -31.1720 O.co2 337  GLU337     -0.2457
    121  OE2      -23.9820    9.0400  -32.9450 O.co2 337  GLU337     -0.2457
    122  N        -29.9140   12.4830  -32.5130 N.3   354  PHE354     -0.1227
    123  CA       -28.8590   11.6500  -31.9730 C.3   354  PHE354      0.1736
    124  C        -29.0130   10.1950  -32.3510 C.2   354  PHE354      0.2596
    125  O        -28.1490    9.3870  -31.9880 O.2   354  PHE354     -0.2718
    126  CB       -28.8100   11.7930  -30.4520 C.3   354  PHE354      0.0547
    127  CG       -28.3650   13.1560  -30.0210 C.ar  354  PHE354     -0.0202
    128  CD1      -29.2690   14.2070  -29.9310 C.ar  354  PHE354     -0.0042
    129  CD2      -27.0140   13.4080  -29.7660 C.ar  354  PHE354     -0.0042
    130  CE1      -28.8590   15.4530  -29.5690 C.ar  354  PHE354     -0.0003
    131  CE2      -26.6040   14.6760  -29.3970 C.ar  354  PHE354     -0.0003
    132  CZ       -27.5320   15.6960  -29.3030 C.ar  354  PHE354     -0.0000
    133  N        -30.0610    9.8510  -33.0950 N.am  355  GLY355     -0.1942
    134  CA       -30.3240    8.4960  -33.5190 C.3   355  GLY355      0.2014
    135  C        -31.4040    7.7540  -32.7490 C.2   355  GLY355      0.2638
    136  O        -31.5710    6.5470  -32.9700 O.2   355  GLY355     -0.2714
    137  N        -32.1470    8.4230  -31.8610 N.am  356  LYS356     -0.1977
    138  CA       -33.0010    7.6870  -30.9340 C.3   356  LYS356      0.1596
    139  C        -34.1160    6.9410  -31.6670 C.2   356  LYS356      0.2287
    140  O        -34.5200    5.8550  -31.2340 O.2   356  LYS356     -0.2864
    141  CB       -33.5400    8.6420  -29.8680 C.3   356  LYS356      0.0298
    142  CG       -32.4750    9.6650  -29.3600 C.3   356  LYS356      0.0038
    143  CD       -33.0240   10.5890  -28.2610 C.3   356  LYS356      0.0206
    144  CE       -32.0120   11.6210  -27.7690 C.3   356  LYS356      0.1093
    145  NZ       -32.4340   12.2840  -26.4850 N.3   356  LYS356     -0.1314
    146  N        -33.5980    5.1790  -34.1060 N.3   358  ASN358     -0.1225
    147  CA       -33.0410    4.0320  -34.8080 C.3   358  ASN358      0.1785
    148  C        -33.2160    2.7280  -34.0310 C.2   358  ASN358      0.2597
    149  O        -33.1570    1.6600  -34.6380 O.2   358  ASN358     -0.2718
    150  CB       -31.5740    4.2870  -35.1660 C.3   358  ASN358      0.1169
    151  CG       -31.3680    4.5910  -36.6620 C.2   358  ASN358      0.2627
    152  OD1      -32.0970    4.0980  -37.5260 O.2   358  ASN358     -0.2716
    153  ND2      -30.3310    5.3850  -36.9650 N.am  358  ASN358     -0.0877
    154  N        -33.4730    2.8050  -32.7230 N.am  359  PHE359     -0.1976
    155  CA       -33.9350    1.6520  -31.9570 C.3   359  PHE359      0.1639
    156  C        -35.1280    0.9720  -32.6240 C.2   359  PHE359      0.2290
    157  O        -35.1170   -0.2470  -32.8540 O.2   359  PHE359     -0.2864
    158  CB       -34.3100    2.0790  -30.5410 C.3   359  PHE359      0.0560
    159  CG       -33.1610    2.5560  -29.7320 C.ar  359  PHE359     -0.0200
    160  CD1      -32.3340    1.6600  -29.0720 C.ar  359  PHE359     -0.0042
    161  CD2      -32.9010    3.9240  -29.6200 C.ar  359  PHE359     -0.0042
    162  CE1      -31.2590    2.1050  -28.3220 C.ar  359  PHE359     -0.0003
    163  CE2      -31.8380    4.3840  -28.8700 C.ar  359  PHE359     -0.0003
    164  CZ       -31.0090    3.4570  -28.2170 C.ar  359  PHE359     -0.0000
    165  N        -34.3660   -0.0600  -36.4890 N.3   362  LEU362     -0.1245
    166  CA       -33.5750   -1.2770  -36.5480 C.3   362  LEU362      0.1561
    167  C        -34.4220   -2.4820  -36.1730 C.2   362  LEU362      0.2260
    168  O        -34.4240   -3.4950  -36.8790 O.2   362  LEU362     -0.2867
    169  CB       -32.3590   -1.1560  -35.6280 C.3   362  LEU362      0.0270
    170  CG       -31.1200   -1.8140  -36.2040 C.3   362  LEU362      0.0019
    171  CD1      -30.8760   -1.2440  -37.5770 C.3   362  LEU362      0.0001
    172  CD2      -29.9310   -1.5900  -35.2880 C.3   362  LEU362      0.0001
@<TRIPOS>BOND
     1    74    75    1
     2    76    77    2
     3    76    75    1
     4    75    78    1
     5    82    83    1
     6    78    79    1
     7    85    84    2
     8    80    79    1
     9    79    81    1
    10    83    84    1
    11    83    86    1
    12   171   170    1
    13   152   151    2
    14    69    68    2
    15   153   151   am
    16   168   167    2
    17    86    87    1
    18   151   150    1
    19    87    88    1
    20   166   165    1
    21   166   167    1
    22   166   169    1
    23   170   169    1
    24   170   172    1
    25    68    67    1
    26    91    92    1
    27    88    89    2
    28    88    90   am
    29   150   147    1
    30    66    67    1
    31    67    70    1
    32   147   146    1
    33   147   148    1
    34    94    93    2
    35   149   148    2
    36    93    92    1
    37    92    95    1
    38    70    71    1
    39   115   116    2
    40   115   114    1
    41   148   154   am
    42    97    99   ar
    43    97    96   ar
    44    99   101   ar
    45   134   133    1
    46   134   135    1
    47   118   119    1
    48   118   117    1
    49    95    96    1
    50   133   124   am
    51   114   117    1
    52   114   113    1
    53   136   135    2
    54    96    98   ar
    55   121   119   ar
    56   157   156    2
    57    71    72    1
    58   135   137   am
    59   154   155    1
    60   156   155    1
    61   101   100   ar
    62   122   123    1
    63   119   120   ar
    64   124   125    2
    65   124   123    1
    66   123   126    1
    67   155   158    1
    68    98   100   ar
    69   137   138    1
    70    72    73    1
    71   139   140    2
    72   139   138    1
    73   138   141    1
    74     9     7   ar
    75     9    10   ar
    76     7     6   ar
    77   158   159    1
    78   126   127    1
    79   127   128   ar
    80   127   129   ar
    81   128   130   ar
    82     1     2    1
    83   141   142    1
    84    10     8   ar
    85   129   131   ar
    86   159   161   ar
    87   159   160   ar
    88   161   163   ar
    89   130   132   ar
    90   131   132   ar
    91   142   143    1
    92     6     8   ar
    93     6     5    1
    94   160   162   ar
    95   163   164   ar
    96   109   111   ar
    97   109   107   ar
    98     5     2    1
    99   104   105    2
   100   104   103    1
   101     2     3    1
   102   111   112   ar
   103    63    65   ar
   104    63    61   ar
   105   106   107    1
   106   106   103    1
   107   162   164   ar
   108    65    64   ar
   109   143   144    1
   110     4     3    2
   111   107   108   ar
   112   103   102    1
   113   144   145    1
   114    61    60    1
   115    61    62   ar
   116    64    62   ar
   117    60    57    1
   118   112   110   ar
   119    58    57    1
   120    58    59    2
   121   108   110   ar
   122    57    56    1
   123    17    15    1
   124    37    38    1
   125    37    36    1
   126    38    32    1
   127    56    49   am
   128    36    33    1
   129    15    16    1
   130    15    12    1
   131    50    49    2
   132    11    12    1
   133    31    30    1
   134    54    53    2
   135    49    48    1
   136    25    23    1
   137    24    23    1
   138    32    33    1
   139    12    13    1
   140    53    55   am
   141    53    52    1
   142    33    34    1
   143    23    22    1
   144    30    27    1
   145    46    44   am
   146    52    51    1
   147    48    51    1
   148    48    47    1
   149    45    44    2
   150    13    14    2
   151    44    43    1
   152    34    35    2
   153    29    28    2
   154    27    28    1
   155    27    26    1
   156    22    19    1
   157    21    20    2
   158    18    19    1
   159    20    19    1
   160    43    40    1
   161    40    39    1
   162    40    41    1
   163    41    42    2
