@<TRIPOS>MOLECULE
tmp/5ywhB00.pdb
 188 177 0 0 0
SMALL
GASTEIGER

@<TRIPOS>ATOM
      1  N        -16.8960  -15.1120  -19.0950 N.3   183  HIS183     -0.1241
      2  CA       -17.3800  -15.0470  -20.4640 C.3   183  HIS183      0.1621
      3  C        -16.6610  -13.9250  -21.1970 C.2   183  HIS183      0.2264
      4  O        -16.0730  -13.0290  -20.5870 O.2   183  HIS183     -0.2867
      5  CB       -18.9020  -14.8570  -20.5220 C.3   183  HIS183      0.0745
      6  CG       -19.4070  -13.7090  -19.7040 C.ar  183  HIS183      0.0817
      7  ND1      -19.7680  -13.8400  -18.3820 N.ar  183  HIS183     -0.2268
      8  CD2      -19.6270  -12.4130  -20.0270 C.ar  183  HIS183      0.1154
      9  CE1      -20.1860  -12.6750  -17.9240 C.ar  183  HIS183      0.1986
     10  NE2      -20.1070  -11.7910  -18.9020 N.ar  183  HIS183     -0.2212
     11  N        -17.3360  -11.2870  -24.5450 N.3   185  VAL185     -0.1245
     12  CA       -18.4340  -10.7340  -25.3270 C.3   185  VAL185      0.1561
     13  C        -17.8720   -9.9550  -26.5090 C.2   185  VAL185      0.2260
     14  O        -16.8980   -9.2050  -26.3690 O.2   185  VAL185     -0.2867
     15  CB       -19.3280   -9.8410  -24.4470 C.3   185  VAL185      0.0252
     16  CG1      -20.5810   -9.4290  -25.1990 C.3   185  VAL185      0.0019
     17  CG2      -19.6800  -10.5690  -23.1560 C.3   185  VAL185      0.0019
     18  N        -29.0340   -2.2000  -27.2520 N.3   213  LEU213     -0.1245
     19  CA       -28.3980   -3.3720  -27.8330 C.3   213  LEU213      0.1561
     20  C        -29.3440   -4.5640  -27.7680 C.2   213  LEU213      0.2260
     21  O        -30.2590   -4.6210  -26.9420 O.2   213  LEU213     -0.2867
     22  CB       -27.0690   -3.7040  -27.1330 C.3   213  LEU213      0.0270
     23  CG       -27.0380   -3.9510  -25.6200 C.3   213  LEU213      0.0019
     24  CD1      -27.3300   -5.4050  -25.2730 C.3   213  LEU213      0.0001
     25  CD2      -25.6950   -3.5310  -25.0450 C.3   213  LEU213      0.0001
     26  N        -28.8480   -8.7480  -27.4580 N.3   215  SER215     -0.1217
     27  CA       -27.8000   -9.6630  -27.0410 C.3   215  SER215      0.1889
     28  C        -28.3110  -11.0940  -27.0160 C.2   215  SER215      0.2288
     29  O        -29.5060  -11.3500  -26.8380 O.2   215  SER215     -0.2866
     30  CB       -27.2530   -9.2900  -25.6570 C.3   215  SER215      0.2089
     31  OG       -26.2070  -10.1630  -25.2740 O.3   215  SER215     -0.2183
     32  N        -26.5240  -15.2320  -25.8880 N.3   217  VAL217     -0.1245
     33  CA       -25.4060  -15.9320  -25.2720 C.3   217  VAL217      0.1561
     34  C        -25.3200  -17.3250  -25.8710 C.2   217  VAL217      0.2260
     35  O        -26.2770  -18.1050  -25.7860 O.2   217  VAL217     -0.2867
     36  CB       -25.5510  -16.0080  -23.7460 C.3   217  VAL217      0.0252
     37  CG1      -24.3570  -16.7320  -23.1410 C.3   217  VAL217      0.0019
     38  CG2      -25.6950  -14.6160  -23.1590 C.3   217  VAL217      0.0019
     39  N        -21.1070  -14.5330  -25.4710 N.3   228  PRO228     -0.2116
     40  CA       -22.1950  -13.6210  -25.8300 C.3   228  PRO228      0.1372
     41  C        -21.8030  -12.6760  -26.9560 C.2   228  PRO228      0.2244
     42  O        -20.6290  -12.3830  -27.1860 O.2   228  PRO228     -0.2868
     43  CB       -22.4440  -12.8420  -24.5360 C.3   228  PRO228      0.0268
     44  CG       -21.7950  -13.6460  -23.4550 C.3   228  PRO228      0.0207
     45  CD       -20.6150  -14.2790  -24.1090 C.3   228  PRO228      0.0892
     46  N        -23.2750   -8.9470  -29.0630 N.3   230  ASN230     -0.1240
     47  CA       -24.1300   -7.7690  -28.9890 C.3   230  ASN230      0.1653
     48  C        -24.2150   -7.0800  -30.3450 C.2   230  ASN230      0.2266
     49  O        -23.2080   -6.9510  -31.0470 O.2   230  ASN230     -0.2867
     50  CB       -23.6080   -6.7650  -27.9580 C.3   230  ASN230      0.1155
     51  CG       -23.4760   -7.3630  -26.5820 C.2   230  ASN230      0.2627
     52  OD1      -24.1740   -8.3150  -26.2400 O.2   230  ASN230     -0.2716
     53  ND2      -22.5780   -6.8080  -25.7790 N.am  230  ASN230     -0.0877
     54  N        -23.8590    2.5110  -27.2900 N.3   236  GLN236     -0.1245
     55  CA       -22.4410    2.2840  -27.0350 C.3   236  GLN236      0.1566
     56  C        -21.8710    1.2310  -27.9760 C.2   236  GLN236      0.2260
     57  O        -20.6890    1.2930  -28.3360 O.2   236  GLN236     -0.2867
     58  CB       -22.2310    1.8710  -25.5760 C.3   236  GLN236      0.0367
     59  CG       -20.7740    1.6950  -25.1670 C.3   236  GLN236      0.0905
     60  CD       -20.6210    1.2610  -23.7200 C.2   236  GLN236      0.2608
     61  OE1      -21.6000    1.1700  -22.9800 O.2   236  GLN236     -0.2717
     62  NE2      -19.3870    0.9890  -23.3110 N.am  236  GLN236     -0.0878
     63  N        -15.8840   -7.0500  -27.0180 N.3   250  GLN250     -0.1231
     64  CA       -16.2510   -5.8670  -26.2440 C.3   250  GLN250      0.1698
     65  C        -15.7010   -5.8940  -24.8230 C.2   250  GLN250      0.2592
     66  O        -15.1330   -4.9020  -24.3610 O.2   250  GLN250     -0.2718
     67  CB       -17.7680   -5.6990  -26.1870 C.3   250  GLN250      0.0381
     68  CG       -18.1660   -4.3920  -25.5200 C.3   250  GLN250      0.0905
     69  CD       -19.5510   -4.4220  -24.9220 C.2   250  GLN250      0.2608
     70  OE1      -20.0680   -5.4820  -24.5750 O.2   250  GLN250     -0.2717
     71  NE2      -20.1630   -3.2500  -24.7940 N.am  250  GLN250     -0.0878
     72  N        -15.8840   -6.9940  -24.1000 N.am  251  HIS251     -0.1976
     73  CA       -15.3470   -7.0440  -22.7470 C.3   251  HIS251      0.1656
     74  C        -15.1050   -8.4870  -22.3350 C.2   251  HIS251      0.2291
     75  O        -15.5800   -9.4300  -22.9720 O.2   251  HIS251     -0.2864
     76  CB       -16.2680   -6.3410  -21.7410 C.3   251  HIS251      0.0771
     77  CG       -17.5790   -7.0290  -21.5200 C.ar  251  HIS251      0.0820
     78  ND1      -18.7260   -6.6810  -22.2010 N.ar  251  HIS251     -0.2267
     79  CD2      -17.9320   -8.0260  -20.6740 C.ar  251  HIS251      0.1154
     80  CE1      -19.7260   -7.4420  -21.7920 C.ar  251  HIS251      0.1986
     81  NE2      -19.2720   -8.2660  -20.8660 N.ar  251  HIS251     -0.2212
     82  N        -16.4920    2.5850  -14.1570 N.3   278  MET278     -0.1245
     83  CA       -17.6220    3.3800  -14.5950 C.3   278  MET278      0.1570
     84  C        -18.3320    3.9950  -13.3920 C.2   278  MET278      0.2261
     85  O        -18.2000    3.5060  -12.2670 O.2   278  MET278     -0.2867
     86  CB       -18.5860    2.5190  -15.4070 C.3   278  MET278      0.0387
     87  CG       -18.0050    2.0290  -16.7240 C.3   278  MET278      0.0595
     88  SD       -19.2520    1.3150  -17.8100 S.3   278  MET278     -0.1393
     89  CE       -18.2820    0.9630  -19.2750 C.3   278  MET278      0.0692
     90  N        -22.6000   -3.7140   -8.5470 N.3   311  LEU311     -0.1245
     91  CA       -23.9820   -3.9500   -8.9340 C.3   311  LEU311      0.1561
     92  C        -24.3480   -5.4030   -8.6660 C.2   311  LEU311      0.2260
     93  O        -23.5340   -6.3070   -8.8700 O.2   311  LEU311     -0.2867
     94  CB       -24.2080   -3.6210  -10.4090 C.3   311  LEU311      0.0270
     95  CG       -23.9550   -2.1690  -10.8140 C.3   311  LEU311      0.0019
     96  CD1      -22.5280   -1.9870  -11.3060 C.3   311  LEU311      0.0001
     97  CD2      -24.9540   -1.7270  -11.8670 C.3   311  LEU311      0.0001
     98  N        -21.4690   -7.7760   -9.9180 N.3   322  GLN322     -0.1245
     99  CA       -20.6850   -7.3800  -11.0770 C.3   322  GLN322      0.1566
    100  C        -20.3050   -5.9110  -10.9780 C.2   322  GLN322      0.2260
    101  O        -20.9310   -5.1270  -10.2610 O.2   322  GLN322     -0.2867
    102  CB       -21.4470   -7.6370  -12.3810 C.3   322  GLN322      0.0367
    103  CG       -22.7590   -6.8810  -12.4930 C.3   322  GLN322      0.0905
    104  CD       -23.4250   -7.0630  -13.8430 C.2   322  GLN322      0.2608
    105  OE1      -24.5080   -6.5350  -14.0890 O.2   322  GLN322     -0.2717
    106  NE2      -22.7770   -7.8130  -14.7260 N.am  322  GLN322     -0.0878
    107  N        -17.9330   -2.8670  -13.7060 N.3   324  PHE324     -0.1241
    108  CA       -17.2960   -2.6680  -14.9990 C.3   324  PHE324      0.1605
    109  C        -16.2370   -1.5830  -14.9010 C.2   324  PHE324      0.2264
    110  O        -16.4340   -0.5620  -14.2360 O.2   324  PHE324     -0.2867
    111  CB       -18.3410   -2.3200  -16.0630 C.3   324  PHE324      0.0534
    112  CG       -19.4860   -3.2810  -16.0900 C.ar  324  PHE324     -0.0203
    113  CD1      -19.4040   -4.4520  -16.8220 C.ar  324  PHE324     -0.0042
    114  CD2      -20.6280   -3.0390  -15.3440 C.ar  324  PHE324     -0.0042
    115  CE1      -20.4510   -5.3480  -16.8300 C.ar  324  PHE324     -0.0003
    116  CE2      -21.6750   -3.9360  -15.3470 C.ar  324  PHE324     -0.0003
    117  CZ       -21.5850   -5.0920  -16.0870 C.ar  324  PHE324     -0.0000
    118  N        -13.4520   -3.1150  -22.4910 N.3   335  PHE335     -0.1241
    119  CA       -13.3380   -2.9210  -21.0530 C.3   335  PHE335      0.1605
    120  C        -13.3520   -4.2790  -20.3590 C.2   335  PHE335      0.2264
    121  O        -13.2620   -5.3190  -21.0200 O.2   335  PHE335     -0.2867
    122  CB       -14.4550   -2.0110  -20.5310 C.3   335  PHE335      0.0534
    123  CG       -15.8380   -2.4280  -20.9500 C.ar  335  PHE335     -0.0203
    124  CD1      -16.3520   -2.0540  -22.1820 C.ar  335  PHE335     -0.0042
    125  CD2      -16.6340   -3.1750  -20.1000 C.ar  335  PHE335     -0.0042
    126  CE1      -17.6280   -2.4330  -22.5630 C.ar  335  PHE335     -0.0003
    127  CE2      -17.9090   -3.5550  -20.4720 C.ar  335  PHE335     -0.0003
    128  CZ       -18.4070   -3.1850  -21.7050 C.ar  335  PHE335     -0.0000
    129  N        -15.1310   -6.7330  -17.1220 N.3   337  GLU337     -0.1245
    130  CA       -16.1810   -6.9820  -16.1480 C.3   337  GLU337      0.1567
    131  C        -15.6090   -7.8460  -15.0340 C.2   337  GLU337      0.2260
    132  O        -14.9120   -8.8290  -15.3040 O.2   337  GLU337     -0.2867
    133  CB       -17.3740   -7.6730  -16.8120 C.3   337  GLU337      0.0388
    134  CG       -18.5250   -7.9680  -15.8890 C.3   337  GLU337      0.1160
    135  CD       -19.7020   -8.5850  -16.6160 C.2   337  GLU337      0.3649
    136  OE1      -19.5920   -8.8140  -17.8380 O.co2 337  GLU337     -0.2457
    137  OE2      -20.7370   -8.8360  -15.9650 O.co2 337  GLU337     -0.2457
    138  N        -26.3380  -12.5300  -16.4900 N.3   355  PHE355     -0.1227
    139  CA       -25.2750  -11.6140  -16.8830 C.3   355  PHE355      0.1736
    140  C        -25.5600  -10.1730  -16.4760 C.2   355  PHE355      0.2596
    141  O        -24.8530   -9.2660  -16.9260 O.2   355  PHE355     -0.2718
    142  CB       -25.0360  -11.6880  -18.3940 C.3   355  PHE355      0.0547
    143  CG       -24.6150  -13.0430  -18.8660 C.ar  355  PHE355     -0.0202
    144  CD1      -25.5590  -14.0040  -19.1830 C.ar  355  PHE355     -0.0042
    145  CD2      -23.2750  -13.3650  -18.9780 C.ar  355  PHE355     -0.0042
    146  CE1      -25.1740  -15.2570  -19.6110 C.ar  355  PHE355     -0.0003
    147  CE2      -22.8840  -14.6140  -19.4050 C.ar  355  PHE355     -0.0003
    148  CZ       -23.8330  -15.5620  -19.7220 C.ar  355  PHE355     -0.0000
    149  N        -26.5650   -9.9400  -15.6380 N.am  356  GLY356     -0.1942
    150  CA       -26.9010   -8.5960  -15.2210 C.3   356  GLY356      0.2014
    151  C        -27.8190   -7.8420  -16.1520 C.2   356  GLY356      0.2638
    152  O        -27.8380   -6.6080  -16.1080 O.2   356  GLY356     -0.2714
    153  N        -28.5810   -8.5400  -16.9970 N.am  357  LYS357     -0.1977
    154  CA       -29.5250   -7.8580  -17.8760 C.3   357  LYS357      0.1596
    155  C        -30.5800   -7.1000  -17.0810 C.2   357  LYS357      0.2287
    156  O        -31.1000   -6.0820  -17.5500 O.2   357  LYS357     -0.2864
    157  CB       -30.1850   -8.8670  -18.8160 C.3   357  LYS357      0.0298
    158  CG       -31.0730   -8.2440  -19.8780 C.3   357  LYS357      0.0038
    159  CD       -31.7670   -9.3090  -20.7110 C.3   357  LYS357      0.0206
    160  CE       -32.6720   -8.6830  -21.7600 C.3   357  LYS357      0.1093
    161  NZ       -33.3960   -9.7060  -22.5640 N.3   357  LYS357     -0.1314
    162  N        -30.0840   -5.3150  -14.5040 N.3   359  ASN359     -0.1225
    163  CA       -29.5530   -4.0870  -13.9270 C.3   359  ASN359      0.1785
    164  C        -29.8200   -2.8650  -14.7950 C.2   359  ASN359      0.2597
    165  O        -29.6990   -1.7400  -14.3020 O.2   359  ASN359     -0.2718
    166  CB       -28.0470   -4.2200  -13.6740 C.3   359  ASN359      0.1169
    167  CG       -27.7270   -4.8050  -12.3020 C.2   359  ASN359      0.2627
    168  OD1      -28.4410   -4.5660  -11.3280 O.2   359  ASN359     -0.2716
    169  ND2      -26.6420   -5.5680  -12.2220 N.am  359  ASN359     -0.0877
    170  N        -30.1790   -3.0510  -16.0670 N.am  360  PHE360     -0.1976
    171  CA       -30.4900   -1.9050  -16.9160 C.3   360  PHE360      0.1639
    172  C        -31.7090   -1.1560  -16.3940 C.2   360  PHE360      0.2290
    173  O        -31.6950    0.0750  -16.2800 O.2   360  PHE360     -0.2864
    174  CB       -30.7080   -2.3570  -18.3590 C.3   360  PHE360      0.0560
    175  CG       -29.4570   -2.8160  -19.0440 C.ar  360  PHE360     -0.0200
    176  CD1      -28.5750   -1.8980  -19.5890 C.ar  360  PHE360     -0.0042
    177  CD2      -29.1600   -4.1650  -19.1420 C.ar  360  PHE360     -0.0042
    178  CE1      -27.4200   -2.3170  -20.2190 C.ar  360  PHE360     -0.0003
    179  CE2      -28.0070   -4.5900  -19.7710 C.ar  360  PHE360     -0.0003
    180  CZ       -27.1360   -3.6650  -20.3110 C.ar  360  PHE360     -0.0000
    181  N        -30.8750    0.0390  -12.5960 N.3   363  LEU363     -0.1245
    182  CA       -30.0860    1.2640  -12.5230 C.3   363  LEU363      0.1561
    183  C        -30.9140    2.4740  -12.9370 C.2   363  LEU363      0.2260
    184  O        -30.8690    3.5180  -12.2770 O.2   363  LEU363     -0.2867
    185  CB       -28.8380    1.1390  -13.3960 C.3   363  LEU363      0.0270
    186  CG       -27.8890    2.3390  -13.4060 C.3   363  LEU363      0.0019
    187  CD1      -27.3280    2.5890  -12.0170 C.3   363  LEU363      0.0001
    188  CD2      -26.7690    2.1350  -14.4110 C.3   363  LEU363      0.0001
@<TRIPOS>BOND
     1    49    48    2
     2    48    47    1
     3    46    47    1
     4    47    50    1
     5    57    56    2
     6    56    55    1
     7    50    51    1
     8    19    20    1
     9    19    18    1
    10    19    22    1
    11    20    21    2
    12    26    27    1
    13    54    55    1
    14    42    41    2
    15    22    23    1
    16    27    28    1
    17    27    30    1
    18    55    58    1
    19    63    64    1
    20    28    29    2
    21    41    40    1
    22    51    52    2
    23    51    53   am
    24    13    14    2
    25    13    12    1
    26    64    67    1
    27    64    65    1
    28    67    68    1
    29    32    33    1
    30    34    35    2
    31    34    33    1
    32    40    39    1
    33    40    43    1
    34    30    31    1
    35    23    24    1
    36    23    25    1
    37    58    59    1
    38    68    69    1
    39    39    45    1
    40    12    11    1
    41    12    15    1
    42    33    36    1
    43    16    15    1
    44    59    60    1
    45    69    71   am
    46    69    70    2
    47    65    66    2
    48    65    72   am
    49    43    44    1
    50    15    17    1
    51    45    44    1
    52    72    73    1
    53    36    38    1
    54    36    37    1
    55    60    62   am
    56    60    61    2
    57    75    74    2
    58    73    74    1
    59    73    76    1
    60   161   160    1
    61   126   124   ar
    62   126   128   ar
    63   118   119    1
    64    78    80   ar
    65    78    77   ar
    66   124   123   ar
    67    80    81   ar
    68   160   159    1
    69    76    77    1
    70   128   127   ar
    71    77    79   ar
    72     3     4    2
    73     3     2    1
    74   119   122    1
    75   119   120    1
    76   121   120    2
    77   123   122    1
    78   123   125   ar
    79    81    79   ar
    80   159   158    1
    81     5     2    1
    82     5     6    1
    83   127   125   ar
    84     2     1    1
    85   180   178   ar
    86   180   179   ar
    87   178   176   ar
    88     8     6   ar
    89     8    10   ar
    90   158   157    1
    91   179   177   ar
    92   148   146   ar
    93   148   147   ar
    94     6     7   ar
    95   146   144   ar
    96   176   175   ar
    97   147   145   ar
    98    89    88    1
    99   144   143   ar
   100   177   175   ar
   101   175   174    1
   102   145   143   ar
   103    10     9   ar
   104   143   142    1
   105   157   154    1
   106   142   139    1
   107     7     9   ar
   108   174   171    1
   109   154   155    1
   110   154   153    1
   111   136   135   ar
   112    88    87    1
   113   156   155    2
   114   129   130    1
   115   153   151   am
   116   141   140    2
   117   171   172    1
   118   171   170    1
   119   139   138    1
   120   139   140    1
   121   115   113   ar
   122   115   117   ar
   123   113   112   ar
   124   133   130    1
   125   133   134    1
   126    87    86    1
   127   135   137   ar
   128   135   134    1
   129   140   149   am
   130   172   173    2
   131   151   152    2
   132   151   150    1
   133   130   131    1
   134   112   111    1
   135   112   114   ar
   136   117   116   ar
   137   170   164   am
   138   111   108    1
   139   149   150    1
   140    86    83    1
   141   116   114   ar
   142   132   131    2
   143   108   109    1
   144   108   107    1
   145   109   110    2
   146   164   165    2
   147   164   163    1
   148   106   104   am
   149    83    82    1
   150    83    84    1
   151   162   163    1
   152   188   186    1
   153   105   104    2
   154   163   166    1
   155   104   103    1
   156   166   167    1
   157   186   185    1
   158   186   187    1
   159   185   182    1
   160    84    85    2
   161   183   182    1
   162   183   184    2
   163   181   182    1
   164   103   102    1
   165   102    99    1
   166   167   169   am
   167   167   168    2
   168    97    95    1
   169    96    95    1
   170    99   100    1
   171    99    98    1
   172   100   101    2
   173    95    94    1
   174    94    91    1
   175    91    92    1
   176    91    90    1
   177    93    92    2
