@<TRIPOS>MOLECULE
tmp/5ywiA00.pdb
 172 163 0 0 0
SMALL
GASTEIGER

@<TRIPOS>ATOM
      1  N        -19.0480   -5.3830   13.4670 N.3   184  HIS184     -0.1241
      2  CA       -18.9910   -6.7540   13.9510 C.3   184  HIS184      0.1621
      3  C        -20.2810   -7.4770   13.5950 C.2   184  HIS184      0.2264
      4  O        -21.3320   -6.8620   13.4010 O.2   184  HIS184     -0.2867
      5  CB       -18.7400   -6.8100   15.4650 C.3   184  HIS184      0.0745
      6  CG       -19.7850   -6.1170   16.2850 C.ar  184  HIS184      0.0817
      7  ND1      -19.6030   -4.8570   16.8130 N.ar  184  HIS184     -0.2268
      8  CD2      -21.0170   -6.5160   16.6810 C.ar  184  HIS184      0.1154
      9  CE1      -20.6790   -4.5070   17.4940 C.ar  184  HIS184      0.1986
     10  NE2      -21.5530   -5.4960   17.4290 N.ar  184  HIS184     -0.2212
     11  N        -22.5740  -10.6930   15.0260 N.3   186  VAL186     -0.1245
     12  CA       -22.7930  -11.5140   16.2110 C.3   186  VAL186      0.1561
     13  C        -23.7440  -12.6500   15.8630 C.2   186  VAL186      0.2260
     14  O        -24.7610  -12.4390   15.1930 O.2   186  VAL186     -0.2867
     15  CB       -23.3490  -10.6740   17.3770 C.3   186  VAL186      0.0252
     16  CG1      -23.4840  -11.5240   18.6320 C.3   186  VAL186      0.0019
     17  CG2      -22.4570   -9.4750   17.6320 C.3   186  VAL186      0.0019
     18  N        -27.7560  -13.7570   29.1490 N.3   213  LEU213     -0.1245
     19  CA       -26.9200  -14.2760   28.0760 C.3   213  LEU213      0.1561
     20  C        -25.4790  -14.3470   28.5560 C.2   213  LEU213      0.2260
     21  O        -25.0870  -13.6770   29.5150 O.2   213  LEU213     -0.2867
     22  CB       -27.0220  -13.4110   26.8140 C.3   213  LEU213      0.0270
     23  CG       -26.4420  -11.9920   26.8370 C.3   213  LEU213      0.0019
     24  CD1      -25.0130  -11.9580   26.3010 C.3   213  LEU213      0.0001
     25  CD2      -27.3300  -11.0370   26.0530 C.3   213  LEU213      0.0001
     26  N        -21.5530  -14.3140   26.5550 N.3   215  SER215     -0.1217
     27  CA       -20.9940  -13.9990   25.2500 C.3   215  SER215      0.1889
     28  C        -19.4970  -13.7520   25.3550 C.2   215  SER215      0.2288
     29  O        -18.9830  -13.3670   26.4080 O.2   215  SER215     -0.2866
     30  CB       -21.6820  -12.7750   24.6340 C.3   215  SER215      0.2089
     31  OG       -21.5500  -11.6410   25.4730 O.3   215  SER215     -0.2183
     32  N        -18.3780  -11.7480   17.7040 N.3   228  PRO228     -0.2116
     33  CA       -18.9450  -12.1410   18.9980 C.3   228  PRO228      0.1372
     34  C        -19.9470  -13.2740   18.8400 C.2   228  PRO228      0.2244
     35  O        -20.6330  -13.3930   17.8220 O.2   228  PRO228     -0.2868
     36  CB       -19.6270  -10.8600   19.4960 C.3   228  PRO228      0.0268
     37  CG       -19.0110   -9.7530   18.6900 C.3   228  PRO228      0.0207
     38  CD       -18.7290  -10.3620   17.3550 C.3   228  PRO228      0.0892
     39  N        -22.9270  -15.4820   21.2240 N.3   230  ASN230     -0.1240
     40  CA       -23.7310  -15.4730   22.4360 C.3   230  ASN230      0.1653
     41  C        -24.2870  -16.8620   22.7260 C.2   230  ASN230      0.2266
     42  O        -24.3550  -17.7290   21.8500 O.2   230  ASN230     -0.2867
     43  CB       -24.8840  -14.4720   22.3190 C.3   230  ASN230      0.1155
     44  CG       -24.4360  -13.1210   21.8020 C.2   230  ASN230      0.2627
     45  OD1      -23.2610  -12.7670   21.8840 O.2   230  ASN230     -0.2716
     46  ND2      -25.3780  -12.3540   21.2680 N.am  230  ASN230     -0.0877
     47  N        -32.3630  -14.7030   23.3890 N.3   240  ILE240     -0.1245
     48  CA       -31.5120  -15.4980   22.5120 C.3   240  ILE240      0.1561
     49  C        -32.0520  -16.9170   22.3730 C.2   240  ILE240      0.2260
     50  O        -31.9130  -17.5370   21.3130 O.2   240  ILE240     -0.2867
     51  CB       -30.0670  -15.4780   23.0360 C.3   240  ILE240      0.0252
     52  CG1      -29.5420  -14.0420   23.0260 C.3   240  ILE240      0.0019
     53  CG2      -29.1690  -16.3840   22.2070 C.3   240  ILE240      0.0019
     54  CD1      -28.1310  -13.9100   23.5010 C.3   240  ILE240      0.0001
     55  N        -26.9920  -13.2230   14.6490 N.3   253  GLN253     -0.1231
     56  CA       -28.0000  -12.4530   15.3720 C.3   253  GLN253      0.1698
     57  C        -28.1810  -11.0640   14.7710 C.2   253  GLN253      0.2592
     58  O        -29.2750  -10.7090   14.3230 O.2   253  GLN253     -0.2718
     59  CB       -27.6340  -12.3430   16.8530 C.3   253  GLN253      0.0381
     60  CG       -28.6920  -11.6170   17.6720 C.3   253  GLN253      0.0905
     61  CD       -28.2430  -11.3180   19.0850 C.2   253  GLN253      0.2608
     62  OE1      -29.0260  -11.4120   20.0300 O.2   253  GLN253     -0.2717
     63  NE2      -26.9780  -10.9460   19.2380 N.am  253  GLN253     -0.0878
     64  N        -27.1240  -10.2550   14.7660 N.am  254  HIS254     -0.1976
     65  CA       -27.2520   -8.8930   14.2700 C.3   254  HIS254      0.1656
     66  C        -25.9500   -8.4420   13.6280 C.2   254  HIS254      0.2291
     67  O        -24.8590   -8.8530   14.0340 O.2   254  HIS254     -0.2864
     68  CB       -27.6500   -7.9200   15.3860 C.3   254  HIS254      0.0771
     69  CG       -26.5970   -7.7300   16.4330 C.ar  254  HIS254      0.0820
     70  ND1      -26.5450   -8.4890   17.5820 N.ar  254  HIS254     -0.2267
     71  CD2      -25.5630   -6.8580   16.5120 C.ar  254  HIS254      0.1154
     72  CE1      -25.5220   -8.0970   18.3210 C.ar  254  HIS254      0.1986
     73  NE2      -24.9090   -7.1100   17.6930 N.ar  254  HIS254     -0.2212
     74  N        -28.2070    4.7340   22.6590 N.3   314  LEU314     -0.1245
     75  CA       -27.5900    4.1660   23.8490 C.3   314  LEU314      0.1561
     76  C        -26.1040    4.5000   23.8600 C.2   314  LEU314      0.2260
     77  O        -25.4180    4.3330   22.8460 O.2   314  LEU314     -0.2867
     78  CB       -27.7920    2.6510   23.8980 C.3   314  LEU314      0.0270
     79  CG       -29.2360    2.1580   23.7920 C.3   314  LEU314      0.0019
     80  CD1      -29.2880    0.6390   23.8330 C.3   314  LEU314      0.0001
     81  CD2      -30.0930    2.7570   24.8960 C.3   314  LEU314      0.0001
     82  N        -24.7830    3.5490   20.2740 N.3   324  GLN324     -0.1245
     83  CA       -25.3910    2.3960   19.6260 C.3   324  GLN324      0.1566
     84  C        -26.9080    2.4950   19.6810 C.2   324  GLN324      0.2260
     85  O        -27.4800    3.0080   20.6460 O.2   324  GLN324     -0.2867
     86  CB       -24.9230    1.0860   20.2700 C.3   324  GLN324      0.0367
     87  CG       -25.1970    0.9870   21.7600 C.3   324  GLN324      0.0905
     88  CD       -24.7330   -0.3310   22.3460 C.2   324  GLN324      0.2608
     89  OE1      -25.0500   -0.6610   23.4880 O.2   324  GLN324     -0.2717
     90  NE2      -23.9790   -1.0930   21.5630 N.am  324  GLN324     -0.0878
     91  N        -30.3920   -0.0800   18.1330 N.3   326  PHE326     -0.1241
     92  CA       -30.7500   -1.3750   17.5760 C.3   326  PHE326      0.1605
     93  C        -32.0410   -1.2650   16.7810 C.2   326  PHE326      0.2264
     94  O        -33.0410   -0.7340   17.2750 O.2   326  PHE326     -0.2867
     95  CB       -30.8860   -2.4220   18.6820 C.3   326  PHE326      0.0534
     96  CG       -29.6170   -2.6530   19.4420 C.ar  326  PHE326     -0.0203
     97  CD1      -28.6920   -3.5820   19.0000 C.ar  326  PHE326     -0.0042
     98  CD2      -29.3380   -1.9260   20.5860 C.ar  326  PHE326     -0.0042
     99  CE1      -27.5190   -3.7920   19.6920 C.ar  326  PHE326     -0.0003
    100  CE2      -28.1660   -2.1310   21.2830 C.ar  326  PHE326     -0.0003
    101  CZ       -27.2550   -3.0640   20.8340 C.ar  326  PHE326     -0.0000
    102  N        -31.4750   -8.6790   13.2410 N.3   337  PHE337     -0.1241
    103  CA       -31.7320   -7.2460   13.2550 C.3   337  PHE337      0.1605
    104  C        -30.4260   -6.5130   12.9680 C.2   337  PHE337      0.2264
    105  O        -29.3970   -7.1270   12.6710 O.2   337  PHE337     -0.2867
    106  CB       -32.3610   -6.8070   14.5840 C.3   337  PHE337      0.0534
    107  CG       -31.5220   -7.1130   15.7950 C.ar  337  PHE337     -0.0203
    108  CD1      -31.5580   -8.3670   16.3810 C.ar  337  PHE337     -0.0042
    109  CD2      -30.7180   -6.1370   16.3620 C.ar  337  PHE337     -0.0042
    110  CE1      -30.7950   -8.6480   17.5000 C.ar  337  PHE337     -0.0003
    111  CE2      -29.9550   -6.4120   17.4820 C.ar  337  PHE337     -0.0003
    112  CZ       -29.9930   -7.6690   18.0510 C.ar  337  PHE337     -0.0000
    113  N        -27.7200   -3.2210   14.1000 N.3   339  GLU339     -0.1245
    114  CA       -27.2210   -2.3150   15.1240 C.3   339  GLU339      0.1567
    115  C        -26.3760   -1.2340   14.4650 C.2   339  GLU339      0.2260
    116  O        -25.4560   -1.5420   13.6990 O.2   339  GLU339     -0.2867
    117  CB       -26.3990   -3.0740   16.1700 C.3   339  GLU339      0.0388
    118  CG       -25.5340   -2.1910   17.0500 C.3   339  GLU339      0.1160
    119  CD       -24.6160   -2.9920   17.9560 C.2   339  GLU339      0.3649
    120  OE1      -24.5790   -2.7070   19.1710 O.co2 339  GLU339     -0.2457
    121  OE2      -23.9360   -3.9100   17.4530 O.co2 339  GLU339     -0.2457
    122  N        -18.9120   -3.1640   23.4200 N.3   350  PHE350     -0.1227
    123  CA       -20.0950   -3.6070   22.6930 C.3   350  PHE350      0.1736
    124  C        -21.3700   -3.2410   23.4410 C.2   350  PHE350      0.2596
    125  O        -22.4060   -3.8880   23.2670 O.2   350  PHE350     -0.2718
    126  CB       -20.0430   -5.1120   22.4320 C.3   350  PHE350      0.0547
    127  CG       -18.8730   -5.5400   21.5950 C.ar  350  PHE350     -0.0202
    128  CD1      -17.6710   -5.8880   22.1890 C.ar  350  PHE350     -0.0042
    129  CD2      -18.9740   -5.5940   20.2160 C.ar  350  PHE350     -0.0042
    130  CE1      -16.5920   -6.2800   21.4220 C.ar  350  PHE350     -0.0003
    131  CE2      -17.8990   -5.9860   19.4430 C.ar  350  PHE350     -0.0003
    132  CZ       -16.7060   -6.3300   20.0480 C.ar  350  PHE350     -0.0000
    133  N        -21.3120   -2.2030   24.2720 N.am  351  GLY351     -0.1942
    134  CA       -22.4760   -1.8080   25.0460 C.3   351  GLY351      0.2014
    135  C        -22.9140   -2.8380   26.0610 C.2   351  GLY351      0.2638
    136  O        -24.1080   -2.9330   26.3630 O.2   351  GLY351     -0.2714
    137  N        -21.9740   -3.6220   26.5950 N.am  352  LYS352     -0.1977
    138  CA       -22.3270   -4.6330   27.5860 C.3   352  LYS352      0.1596
    139  C        -22.8510   -4.0030   28.8690 C.2   352  LYS352      0.2287
    140  O        -23.6680   -4.6140   29.5690 O.2   352  LYS352     -0.2864
    141  CB       -21.1190   -5.5220   27.8820 C.3   352  LYS352      0.0298
    142  CG       -20.7490   -6.2230   26.5520 C.3   352  LYS352      0.0038
    143  CD       -19.7330   -7.2930   26.8940 C.3   352  LYS352      0.0206
    144  CE       -20.0080   -8.5730   26.1030 C.3   352  LYS352      0.1093
    145  NZ       -19.9530   -8.2950   24.6460 N.3   352  LYS352     -0.1314
    146  N        -24.8380   -1.5200   29.0280 N.3   354  ASN354     -0.1225
    147  CA       -26.1780   -0.9820   28.8310 C.3   354  ASN354      0.1785
    148  C        -27.2590   -1.8840   29.4100 C.2   354  ASN354      0.2597
    149  O        -28.3700   -1.4080   29.6640 O.2   354  ASN354     -0.2718
    150  CB       -26.4370   -0.7460   27.3420 C.3   354  ASN354      0.1169
    151  CG       -25.6820    0.4530   26.8040 C.2   354  ASN354      0.2627
    152  OD1      -25.5430    1.4680   27.4850 O.2   354  ASN354     -0.2716
    153  ND2      -25.1900    0.3410   25.5760 N.am  354  ASN354     -0.0877
    154  N        -26.9650   -3.1700   29.6220 N.am  355  PHE355     -0.1976
    155  CA       -27.9530   -4.0590   30.2240 C.3   355  PHE355      0.1639
    156  C        -28.2990   -3.6170   31.6400 C.2   355  PHE355      0.2290
    157  O        -29.4740   -3.6060   32.0260 O.2   355  PHE355     -0.2864
    158  CB       -27.4400   -5.4990   30.2220 C.3   355  PHE355      0.0560
    159  CG       -27.3110   -6.0950   28.8500 C.ar  355  PHE355     -0.0200
    160  CD1      -28.4250   -6.5820   28.1850 C.ar  355  PHE355     -0.0042
    161  CD2      -26.0770   -6.1750   28.2260 C.ar  355  PHE355     -0.0042
    162  CE1      -28.3110   -7.1330   26.9230 C.ar  355  PHE355     -0.0003
    163  CE2      -25.9560   -6.7250   26.9640 C.ar  355  PHE355     -0.0003
    164  CZ       -27.0750   -7.2050   26.3120 C.ar  355  PHE355     -0.0000
    165  N        -29.9990    0.0940   31.4320 N.3   358  LEU358     -0.1245
    166  CA       -31.3940    0.1420   31.0060 C.3   358  LEU358      0.1561
    167  C        -32.3330   -0.2460   32.1410 C.2   358  LEU358      0.2260
    168  O        -33.4170    0.3330   32.2830 O.2   358  LEU358     -0.2867
    169  CB       -31.6070   -0.7680   29.7970 C.3   358  LEU358      0.0270
    170  CG       -31.1170   -0.2380   28.4490 C.3   358  LEU358      0.0019
    171  CD1      -31.2850   -1.2950   27.3700 C.3   358  LEU358      0.0001
    172  CD2      -31.8610    1.0340   28.0760 C.3   358  LEU358      0.0001
@<TRIPOS>BOND
     1   105   104    2
     2   104   103    1
     3   102   103    1
     4   103   106    1
     5     4     3    2
     6     1     2    1
     7     3     2    1
     8    66    67    2
     9    66    65    1
    10   116   115    2
    11     2     5    1
    12   113   114    1
    13    65    64    1
    14    65    68    1
    15    58    57    2
    16   115   114    1
    17   106   107    1
    18    55    56    1
    19    64    57   am
    20    57    56    1
    21    11    12    1
    22   114   117    1
    23    14    13    2
    24    56    59    1
    25    68    69    1
    26     5     6    1
    27   107   109   ar
    28   107   108   ar
    29    13    12    1
    30   117   118    1
    31    12    15    1
    32     6     8   ar
    33     6     7   ar
    34   109   111   ar
    35   108   110   ar
    36    69    71   ar
    37    69    70   ar
    38    71    73   ar
    39     8    10   ar
    40    93    94    2
    41    93    92    1
    42     7     9   ar
    43    59    60    1
    44   118   119    1
    45    38    32    1
    46    38    37    1
    47    15    17    1
    48    15    16    1
    49    10     9   ar
    50   121   119   ar
    51   111   112   ar
    52   110   112   ar
    53    92    91    1
    54    92    95    1
    55    70    72   ar
    56    60    61    1
    57    73    72   ar
    58    32    33    1
    59    35    34    2
    60   119   120   ar
    61    95    96    1
    62    37    36    1
    63    34    33    1
    64    33    36    1
    65    97    96   ar
    66    97    99   ar
    67    61    63   am
    68    61    62    2
    69    96    98   ar
    70   131   132   ar
    71   131   129   ar
    72    83    84    1
    73    83    86    1
    74    83    82    1
    75    84    85    2
    76    99   101   ar
    77   132   130   ar
    78   129   127   ar
    79    86    87    1
    80    98   100   ar
    81   101   100   ar
    82    39    40    1
    83    46    44   am
    84    50    49    2
    85   130   128   ar
    86    90    88   am
    87   127   128   ar
    88   127   126    1
    89    87    88    1
    90    44    45    2
    91    44    43    1
    92    42    41    2
    93    53    51    1
    94    43    40    1
    95    88    89    2
    96    49    48    1
    97   126   123    1
    98    40    41    1
    99    48    51    1
   100    48    47    1
   101    74    75    1
   102   123   122    1
   103   123   124    1
   104    77    76    2
   105    52    51    1
   106    52    54    1
   107   125   124    2
   108   124   133   am
   109    79    80    1
   110    79    78    1
   111    79    81    1
   112    75    76    1
   113    75    78    1
   114   133   134    1
   115    30    27    1
   116    30    31    1
   117   145   144    1
   118   134   135    1
   119    27    28    1
   120    27    26    1
   121    28    29    2
   122   153   151   am
   123    25    23    1
   124   135   136    2
   125   135   137   am
   126   144   143    1
   127    24    23    1
   128   164   162   ar
   129   164   163   ar
   130   142   143    1
   131   142   141    1
   132   137   138    1
   133   151   150    1
   134   151   152    2
   135    22    23    1
   136    22    19    1
   137   162   160   ar
   138   163   161   ar
   139   150   147    1
   140   171   170    1
   141   138   141    1
   142   138   139    1
   143   172   170    1
   144    19    20    1
   145    19    18    1
   146   160   159   ar
   147   161   159   ar
   148   170   169    1
   149    20    21    2
   150   147   146    1
   151   147   148    1
   152   159   158    1
   153   139   140    2
   154   148   154   am
   155   148   149    2
   156   154   155    1
   157   169   166    1
   158   158   155    1
   159   155   156    1
   160   166   165    1
   161   166   167    1
   162   156   157    2
   163   167   168    2
