@<TRIPOS>MOLECULE
tmp/5ywrA00.pdb
 69 66 0 0 0
SMALL
GASTEIGER

@<TRIPOS>ATOM
      1  N         40.5460   31.4130   21.0610 N.3    17  PRO17      -0.2102
      2  CA        40.0700   31.9630   19.7890 C.3    17  PRO17       0.1504
      3  C         41.0400   31.6390   18.6670 C.2    17  PRO17       0.2576
      4  O         42.2350   31.4190   18.8810 O.2    17  PRO17      -0.2718
      5  CB        40.0260   33.4750   20.0450 C.3    17  PRO17       0.0282
      6  CG        40.0970   33.6290   21.5390 C.3    17  PRO17       0.0208
      7  CD        40.9060   32.4710   22.0210 C.3    17  PRO17       0.0893
      8  N         40.5000   31.6070   17.4560 N.am   18  VAL18      -0.1967
      9  CA        41.3230   31.3770   16.2680 C.3    18  VAL18       0.1712
     10  C         42.0010   32.6880   15.8860 C.2    18  VAL18       0.2458
     11  O         41.3200   33.7220   15.8030 O.2    18  VAL18      -0.2730
     12  CB        40.4640   30.8560   15.1200 C.3    18  VAL18       0.0289
     13  CG1       41.3030   30.6990   13.8600 C.3    18  VAL18       0.0023
     14  CG2       39.8150   29.5340   15.5010 C.3    18  VAL18       0.0023
     15  N         43.3140   32.6920   15.6520 N.am   19  PRO19      -0.2716
     16  CA        43.9790   33.9170   15.1910 C.3    19  PRO19       0.1536
     17  C         43.3120   34.4660   13.9380 C.2    19  PRO19       0.2599
     18  O         43.0100   33.7290   12.9970 O.2    19  PRO19      -0.2715
     19  CB        45.4090   33.4510   14.8950 C.3    19  PRO19       0.0310
     20  CG        45.5910   32.2330   15.7260 C.3    19  PRO19       0.0237
     21  CD        44.2520   31.5630   15.7700 C.3    19  PRO19       0.0939
     22  N         43.0750   35.7760   13.9430 N.am   20  GLY20      -0.1941
     23  CA        42.4720   36.4530   12.8160 C.3    20  GLY20       0.2014
     24  C         40.9740   36.2900   12.6830 C.2    20  GLY20       0.2639
     25  O         40.4010   36.7930   11.7090 O.2    20  GLY20      -0.2714
     26  N         40.3140   35.6140   13.6200 N.am   21  ILE21      -0.1963
     27  CA        38.8790   35.3740   13.5390 C.3    21  ILE21       0.1727
     28  C         38.2570   35.6530   14.8980 C.2    21  ILE21       0.2616
     29  O         38.6600   35.0590   15.9040 O.2    21  ILE21      -0.2715
     30  CB        38.5480   33.9450   13.0830 C.3    21  ILE21       0.0290
     31  CG1       39.1510   33.6800   11.7020 C.3    21  ILE21       0.0022
     32  CG2       37.0390   33.7430   13.0670 C.3    21  ILE21       0.0023
     33  CD1       38.8620   32.2870   11.1590 C.3    21  ILE21       0.0001
     34  N         37.2810   36.5520   14.9260 N.am   22  LYS22      -0.1977
     35  CA        36.4600   36.7840   16.1040 C.3    22  LYS22       0.1596
     36  C         35.1490   36.0340   15.9130 C.2    22  LYS22       0.2287
     37  O         34.5420   36.1020   14.8400 O.2    22  LYS22      -0.2864
     38  CB        36.1880   38.2790   16.2710 C.3    22  LYS22       0.0298
     39  CG        35.3730   38.6330   17.5070 C.3    22  LYS22       0.0038
     40  CD        35.1240   40.1310   17.5860 C.3    22  LYS22       0.0206
     41  CE        34.3070   40.4880   18.8150 C.3    22  LYS22       0.1093
     42  NZ        33.7930   41.8840   18.7610 N.3    22  LYS22      -0.1314
     43  N         33.7750   37.9270   12.8030 N.3    36  VAL36      -0.1245
     44  CA        34.5900   38.8380   12.0060 C.3    36  VAL36       0.1561
     45  C         35.8250   38.0690   11.5620 C.2    36  VAL36       0.2260
     46  O         36.5740   37.5540   12.4000 O.2    36  VAL36      -0.2867
     47  CB        34.9950   40.1050   12.7750 C.3    36  VAL36       0.0252
     48  CG1       35.7910   41.0380   11.8630 C.3    36  VAL36       0.0019
     49  CG2       33.7640   40.8150   13.3280 C.3    36  VAL36       0.0019
     50  N         39.3750   38.3980    9.5100 N.3    38  ALA38      -0.1245
     51  CA        40.3570   39.2840    8.9040 C.3    38  ALA38       0.1562
     52  C         40.6800   38.8160    7.4900 C.2    38  ALA38       0.2260
     53  O         40.8500   37.6200    7.2380 O.2    38  ALA38      -0.2867
     54  CB        41.6360   39.2880    9.7390 C.3    38  ALA38       0.0290
     55  N         38.0960   43.7360    7.5070 N.3    49  THR49      -0.1218
     56  CA        37.4040   43.0200    8.5720 C.3    49  THR49       0.1862
     57  C         36.0040   42.7210    8.0550 C.2    49  THR49       0.2287
     58  O         35.2050   43.6400    7.8450 O.2    49  THR49      -0.2866
     59  CB        37.3670   43.8560    9.8500 C.3    49  THR49       0.1770
     60  OG1       37.1170   45.2300    9.5190 O.3    49  THR49      -0.2211
     61  CG2       38.6970   43.7570   10.5830 C.3    49  THR49       0.0375
     62  N         33.7230   48.0430   11.6800 N.3   150  ILE150     -0.1245
     63  CA        33.5080   47.2980   12.9150 C.3   150  ILE150      0.1561
     64  C         33.1780   48.2570   14.0510 C.2   150  ILE150      0.2260
     65  O         32.1880   48.0860   14.7620 O.2   150  ILE150     -0.2867
     66  CB        34.7230   46.4030   13.2580 C.3   150  ILE150      0.0252
     67  CG1       34.9800   45.3890   12.1420 C.3   150  ILE150      0.0019
     68  CG2       34.5150   45.6940   14.5890 C.3   150  ILE150      0.0019
     69  CD1       33.7720   44.5500   11.7860 C.3   150  ILE150      0.0001
@<TRIPOS>BOND
     1    53    52    2
     2    52    51    1
     3    55    56    1
     4    58    57    2
     5    57    56    1
     6    56    59    1
     7    51    50    1
     8    51    54    1
     9    60    59    1
    10    59    61    1
    11    33    31    1
    12    45    44    1
    13    45    46    2
    14    62    63    1
    15    31    30    1
    16    25    24    2
    17    69    67    1
    18    48    47    1
    19    44    47    1
    20    44    43    1
    21    67    66    1
    22    24    23    1
    23    24    26   am
    24    47    49    1
    25    23    22    1
    26    63    66    1
    27    63    64    1
    28    18    17    2
    29    32    30    1
    30    30    27    1
    31    66    68    1
    32    27    26    1
    33    27    28    1
    34    13    12    1
    35    17    22   am
    36    17    16    1
    37    64    65    2
    38    37    36    2
    39    19    16    1
    40    19    20    1
    41    28    34   am
    42    28    29    2
    43    34    35    1
    44    12    14    1
    45    12     9    1
    46    16    15    1
    47    15    21    1
    48    15    10   am
    49    20    21    1
    50    11    10    2
    51    10     9    1
    52    36    35    1
    53    35    38    1
    54     9     8    1
    55    38    39    1
    56     8     3   am
    57    39    40    1
    58    40    41    1
    59     3     4    2
    60     3     2    1
    61    42    41    1
    62     2     5    1
    63     2     1    1
    64     5     6    1
    65     1     7    1
    66     6     7    1
