@<TRIPOS>MOLECULE
tmp/5ywxD01.pdb
 146 141 0 0 0
SMALL
GASTEIGER

@<TRIPOS>ATOM
      1  N          7.1520    2.1640   10.9770 N.3     7  TYR7       -0.1227
      2  CA         8.5130    2.0690   11.4890 C.3     7  TYR7        0.1736
      3  C          9.2320    3.2750   10.9450 C.2     7  TYR7        0.2595
      4  O          8.6270    4.1040   10.2240 O.2     7  TYR7       -0.2718
      5  CB         9.1410    0.8120   10.9500 C.3     7  TYR7        0.0548
      6  CG        10.4270    0.4100   11.5620 C.ar    7  TYR7       -0.0200
      7  CD1       10.5250    0.1900   12.9110 C.ar    7  TYR7       -0.0009
      8  CD2       11.5950    0.2800   10.7860 C.ar    7  TYR7       -0.0009
      9  CE1       11.7370   -0.1530   13.4950 C.ar    7  TYR7        0.0417
     10  CE2       12.7820   -0.1320   11.3710 C.ar    7  TYR7        0.0417
     11  CZ        12.8530   -0.3190   12.7430 C.ar    7  TYR7        0.1957
     12  OH        14.0130   -0.7370   13.3870 O.3     7  TYR7       -0.2866
     13  N         10.5150    3.3680   11.2450 N.am    8  PHE8       -0.1976
     14  CA        11.3520    4.4000   10.5880 C.3     8  PHE8        0.1639
     15  C         11.6030    4.0420    9.1180 C.2     8  PHE8        0.2290
     16  O         11.2860    2.9100    8.6710 O.2     8  PHE8       -0.2864
     17  CB        12.7050    4.5000   11.2990 C.3     8  PHE8        0.0560
     18  CG        12.6150    4.8730   12.7480 C.ar    8  PHE8       -0.0200
     19  CD1       12.9860    3.9810   13.7340 C.ar    8  PHE8       -0.0042
     20  CD2       12.1910    6.1420   13.1070 C.ar    8  PHE8       -0.0042
     21  CE1       12.9090    4.3330   15.0690 C.ar    8  PHE8       -0.0003
     22  CE2       12.0950    6.5010   14.4470 C.ar    8  PHE8       -0.0003
     23  CZ        12.4700    5.6090   15.4230 C.ar    8  PHE8       -0.0000
     24  N         13.8910    2.7650    7.4230 N.3    10  MET10      -0.1245
     25  CA        15.0250    1.8750    7.5560 C.3    10  MET10       0.1570
     26  C         14.4910    0.4700    7.4570 C.2    10  MET10       0.2261
     27  O         13.2910    0.2050    7.6480 O.2    10  MET10      -0.2867
     28  CB        15.8430    2.0460    8.8510 C.3    10  MET10       0.0387
     29  CG        15.1820    2.2220   10.1810 C.3    10  MET10       0.0595
     30  SD        16.4540    1.9200   11.4720 S.3    10  MET10      -0.1393
     31  CE        17.6510    3.1950   11.2260 C.3    10  MET10       0.0692
     32  N         15.8670   -2.2810    9.4210 N.3    12  GLY12      -0.1210
     33  CA        15.8000   -2.4970   10.8680 C.3    12  GLY12       0.1956
     34  C         14.8900   -3.6500   11.2390 C.2    12  GLY12       0.2611
     35  O         14.9650   -4.7140   10.6430 O.2    12  GLY12      -0.2717
     36  N         14.0450   -3.4150   12.2300 N.am   13  ARG13      -0.1979
     37  CA        13.2270   -4.4690   12.8130 C.3    13  ARG13       0.1597
     38  C         11.9090   -4.6200   12.0940 C.2    13  ARG13       0.2287
     39  O         11.1370   -5.5530   12.4400 O.2    13  ARG13      -0.2864
     40  CB        12.9650   -4.2010   14.3060 C.3    13  ARG13       0.0334
     41  CG        14.2240   -4.2440   15.1560 C.3    13  ARG13       0.0492
     42  CD        13.9720   -4.1180   16.6460 C.3    13  ARG13       0.2205
     43  NE        15.1480   -4.6910   17.3390 N.pl3  13  ARG13      -0.0865
     44  CZ        15.3720   -6.0050   17.5290 C.cat  13  ARG13       0.5346
     45  NH1       14.5020   -6.9480   17.1450 N.pl3  13  ARG13       0.1354
     46  NH2       16.4920   -6.3770   18.1300 N.pl3  13  ARG13       0.1354
     47  N         12.6100   10.9660   12.2890 N.3    35  GLN35      -0.1245
     48  CA        12.8550   11.2790   13.7140 C.3    35  GLN35       0.1566
     49  C         11.8490   12.2850   14.2940 C.2    35  GLN35       0.2260
     50  O         11.3720   12.1130   15.4240 O.2    35  GLN35      -0.2867
     51  CB        14.2460   11.8510   13.9210 C.3    35  GLN35       0.0367
     52  CG        15.3590   10.8310   13.9200 C.3    35  GLN35       0.0905
     53  CD        16.5620   11.3330   14.6920 C.2    35  GLN35       0.2608
     54  OE1       17.0410   10.6700   15.6100 O.2    35  GLN35      -0.2717
     55  NE2       17.0400   12.5350   14.3400 N.am   35  GLN35      -0.0878
     56  N          8.6500   11.0950   15.6420 N.3    38  TRP38      -0.1241
     57  CA         8.7670   10.0430   16.6750 C.3    38  TRP38       0.1605
     58  C          8.0220   10.3320   17.9930 C.2    38  TRP38       0.2264
     59  O          7.2540    9.4850   18.4550 O.2    38  TRP38      -0.2867
     60  CB        10.2440    9.6660   16.9390 C.3    38  TRP38       0.0550
     61  CG        10.4720    8.6620   18.0740 C.ar   38  TRP38       0.0003
     62  CD1       11.3340    8.8010   19.1230 C.ar   38  TRP38       0.0946
     63  CD2        9.8160    7.3960   18.2630 C.ar   38  TRP38       0.0152
     64  NE1       11.2650    7.7050   19.9510 N.ar   38  TRP38      -0.2442
     65  CE2       10.3320    6.8310   19.4530 C.ar   38  TRP38       0.0810
     66  CE3        8.8380    6.6930   17.5530 C.ar   38  TRP38       0.0012
     67  CZ2        9.9050    5.5910   19.9460 C.ar   38  TRP38       0.0191
     68  CZ3        8.4180    5.4520   18.0390 C.ar   38  TRP38       0.0001
     69  CH2        8.9560    4.9150   19.2210 C.ar   38  TRP38       0.0015
     70  N         21.5420   -9.3500   17.5690 N.3    98  MET98      -0.1245
     71  CA        21.2990   -8.0150   17.0010 C.3    98  MET98       0.1570
     72  C         20.9870   -7.0240   18.1240 C.2    98  MET98       0.2261
     73  O         21.3820   -5.8590   18.0450 O.2    98  MET98      -0.2867
     74  CB        20.1350   -8.0370   16.0060 C.3    98  MET98       0.0387
     75  CG        20.3660   -8.9600   14.8190 C.3    98  MET98       0.0595
     76  SD        21.8660   -8.5640   13.8720 S.3    98  MET98      -0.1393
     77  CE        21.3220   -7.1230   12.9850 C.3    98  MET98       0.0692
     78  N         22.5990    0.6160   19.0060 N.3   103  TRP103     -0.1227
     79  CA        22.1520    1.2500   17.7710 C.3   103  TRP103      0.1737
     80  C         21.9630    2.7540   17.9520 C.2   103  TRP103      0.2595
     81  O         22.2020    3.5390   17.0230 O.2   103  TRP103     -0.2718
     82  CB        20.8230    0.6330   17.2760 C.3   103  TRP103      0.0564
     83  CG        20.9050   -0.8630   16.9790 C.ar  103  TRP103      0.0003
     84  CD1       20.4240   -1.8720   17.7560 C.ar  103  TRP103      0.0946
     85  CD2       21.5080   -1.4870   15.8420 C.ar  103  TRP103      0.0152
     86  NE1       20.7120   -3.0960   17.1820 N.ar  103  TRP103     -0.2442
     87  CE2       21.3670   -2.8890   16.0070 C.ar  103  TRP103      0.0810
     88  CE3       22.1570   -1.0080   14.7020 C.ar  103  TRP103      0.0012
     89  CZ2       21.8540   -3.8030   15.0810 C.ar  103  TRP103      0.0191
     90  CZ3       22.6410   -1.8930   13.7990 C.ar  103  TRP103      0.0001
     91  CH2       22.4770   -3.2970   13.9770 C.ar  103  TRP103      0.0015
     92  N         21.5080    3.1350   19.1390 N.am  104  ALA104     -0.1980
     93  CA        21.1430    4.5120   19.4140 C.3   104  ALA104      0.1597
     94  C         22.2320    5.2710   20.1870 C.2   104  ALA104      0.2287
     95  O         22.0440    6.4460   20.5070 O.2   104  ALA104     -0.2864
     96  CB        19.8290    4.5490   20.1720 C.3   104  ALA104      0.0319
     97  N         24.7540    7.7480   21.1400 N.3   106  LYS106     -0.1245
     98  CA        25.1110    9.0500   20.5730 C.3   106  LYS106      0.1561
     99  C         26.6260    9.2480   20.4360 C.2   106  LYS106      0.2260
    100  O         27.0730    9.8150   19.4380 O.2   106  LYS106     -0.2867
    101  CB        24.4710   10.1940   21.3760 C.3   106  LYS106      0.0271
    102  CG        22.9810   10.3370   21.1120 C.3   106  LYS106      0.0035
    103  CD        22.4090   11.6270   21.6750 C.3   106  LYS106      0.0206
    104  CE        21.1260   12.0160   20.9470 C.3   106  LYS106      0.1093
    105  NZ        20.5790   13.3170   21.4220 N.3   106  LYS106     -0.1314
    106  N         15.0250  -14.1630    8.1650 N.3   151  TYR151     -0.1241
    107  CA        15.6510  -13.3880    9.2240 C.3   151  TYR151      0.1605
    108  C         17.1560  -13.4840    9.1750 C.2   151  TYR151      0.2264
    109  O         17.8290  -12.5110    9.4710 O.2   151  TYR151     -0.2867
    110  CB        15.1890  -13.7830   10.6060 C.3   151  TYR151      0.0534
    111  CG        15.2340  -12.6260   11.6120 C.ar  151  TYR151     -0.0201
    112  CD1       14.7800  -11.3640   11.2720 C.ar  151  TYR151     -0.0009
    113  CD2       15.7180  -12.8070   12.8850 C.ar  151  TYR151     -0.0009
    114  CE1       14.8070  -10.3160   12.1980 C.ar  151  TYR151      0.0417
    115  CE2       15.7640  -11.7790   13.8200 C.ar  151  TYR151      0.0417
    116  CZ        15.2800  -10.5110   13.4700 C.ar  151  TYR151      0.1957
    117  OH        15.2510   -9.4020   14.3330 O.3   151  TYR151     -0.2866
    118  N         18.2230  -11.0750    6.5130 N.3   154  ILE154     -0.1231
    119  CA        17.9910   -9.6920    6.9570 C.3   154  ILE154      0.1692
    120  C         19.0910   -9.2380    7.9640 C.2   154  ILE154      0.2592
    121  O         19.7080   -8.1500    7.8120 O.2   154  ILE154     -0.2718
    122  CB        16.5830   -9.5750    7.5240 C.3   154  ILE154      0.0266
    123  CG1       15.5710   -9.5800    6.3880 C.3   154  ILE154      0.0019
    124  CG2       16.4360   -8.3090    8.3900 C.3   154  ILE154      0.0020
    125  CD1       14.1480   -9.8920    6.7900 C.3   154  ILE154      0.0001
    126  N         19.3440  -10.0940    8.9530 N.am  155  CYS155     -0.1970
    127  CA        20.3610   -9.8230    9.9690 C.3   155  CYS155      0.1712
    128  C         21.7700   -9.7640    9.3570 C.2   155  CYS155      0.2296
    129  O         22.4980   -8.7760    9.5950 O.2   155  CYS155     -0.2864
    130  CB        20.2830  -10.8770   11.0950 C.3   155  CYS155      0.0983
    131  SG        18.8310  -10.7930   12.1720 S.3   155  CYS155     -0.0798
    132  N         22.6680   -6.5960    7.4050 N.3   158  THR158     -0.1218
    133  CA        23.0720   -5.4470    8.2290 C.3   158  THR158      0.1862
    134  C         24.4430   -5.6390    8.8590 C.2   158  THR158      0.2287
    135  O         25.2760   -4.7470    8.8490 O.2   158  THR158     -0.2866
    136  CB        21.9890   -5.1390    9.2620 C.3   158  THR158      0.1770
    137  OG1       20.8970   -4.4970    8.5800 O.3   158  THR158     -0.2211
    138  CG2       22.4910   -4.2480   10.3840 C.3   158  THR158      0.0375
    139  N         20.7130    1.0070    7.0870 N.3   198  LEU198     -0.1245
    140  CA        20.3160   -0.0150    8.0230 C.3   198  LEU198      0.1561
    141  C         18.8390   -0.3620    7.8530 C.2   198  LEU198      0.2260
    142  O         18.4020   -1.2380    8.6230 O.2   198  LEU198     -0.2867
    143  CB        20.5070    0.5020    9.4450 C.3   198  LEU198      0.0270
    144  CG        21.8690    1.0580    9.8440 C.3   198  LEU198      0.0019
    145  CD1       21.8690    1.4530   11.3180 C.3   198  LEU198      0.0001
    146  CD2       22.9390    0.0140    9.5620 C.3   198  LEU198      0.0001
@<TRIPOS>BOND
     1   123   125    1
     2   123   122    1
     3   118   119    1
     4   119   122    1
     5   119   120    1
     6   139   140    1
     7   132   133    1
     8    24    25    1
     9    26    25    1
    10    26    27    2
    11   122   124    1
    12    25    28    1
    13   121   120    2
    14   141   140    1
    15   141   142    2
    16   120   126   am
    17   140   143    1
    18   106   107    1
    19   133   134    1
    20   133   136    1
    21   137   136    1
    22    16    15    2
    23   135   134    2
    24    28    29    1
    25   126   127    1
    26    15    14    1
    27   108   107    1
    28   108   109    2
    29   107   110    1
    30   136   138    1
    31   128   129    2
    32   128   127    1
    33    32    33    1
    34   143   144    1
    35   146   144    1
    36   144   145    1
    37   127   130    1
    38    29    30    1
    39     4     3    2
    40    14    13    1
    41    14    17    1
    42   110   111    1
    43    35    34    2
    44     8    10   ar
    45     8     6   ar
    46    33    34    1
    47     3    13   am
    48     3     2    1
    49     5     2    1
    50     5     6    1
    51     1     2    1
    52   130   131    1
    53    31    30    1
    54    34    36   am
    55   112   111   ar
    56   112   114   ar
    57    17    18    1
    58    10    11   ar
    59     6     7   ar
    60   111   113   ar
    61    38    39    2
    62    38    37    1
    63   114   116   ar
    64    36    37    1
    65    47    48    1
    66    11    12    1
    67    11     9   ar
    68    18    20   ar
    69    18    19   ar
    70    37    40    1
    71   113   115   ar
    72     7     9   ar
    73    77    76    1
    74    20    22   ar
    75   116   115   ar
    76   116   117    1
    77    48    51    1
    78    48    49    1
    79    19    21   ar
    80    90    91   ar
    81    90    88   ar
    82    76    75    1
    83    52    51    1
    84    52    53    1
    85    91    89   ar
    86    49    50    2
    87    40    41    1
    88    55    53   am
    89    22    23   ar
    90    53    54    2
    91    88    85   ar
    92    75    74    1
    93    21    23   ar
    94    89    87   ar
    95    41    42    1
    96    56    57    1
    97    85    87   ar
    98    85    83   ar
    99    74    71    1
   100    87    86   ar
   101    42    43    1
   102    57    60    1
   103    57    58    1
   104    60    61    1
   105    83    82    1
   106    83    84   ar
   107    71    70    1
   108    71    72    1
   109    81    80    2
   110    45    44    1
   111    86    84   ar
   112    82    79    1
   113    43    44    2
   114    44    46    1
   115    66    68   ar
   116    66    63   ar
   117    79    80    1
   118    79    78    1
   119    80    92   am
   120    58    59    2
   121    68    69   ar
   122    73    72    2
   123    61    63   ar
   124    61    62   ar
   125    63    65   ar
   126    62    64   ar
   127    92    93    1
   128    69    67   ar
   129    93    96    1
   130    93    94    1
   131   100    99    2
   132    65    67   ar
   133    65    64   ar
   134    94    95    2
   135    99    98    1
   136    98    97    1
   137    98   101    1
   138   104   105    1
   139   104   103    1
   140   102   101    1
   141   102   103    1
