@<TRIPOS>MOLECULE
tmp/5yx1D01.pdb
 145 140 0 0 0
SMALL
GASTEIGER

@<TRIPOS>ATOM
      1  N        -10.8570  -18.8040   32.3200 N.3     7  TYR7       -0.1227
      2  CA       -10.9920  -20.1810   32.7160 C.3     7  TYR7        0.1736
      3  C         -9.7580  -20.9480   32.2440 C.2     7  TYR7        0.2595
      4  O         -8.9090  -20.3860   31.5680 O.2     7  TYR7       -0.2718
      5  CB       -12.2980  -20.7890   32.1360 C.3     7  TYR7        0.0548
      6  CG       -12.6870  -22.1140   32.7680 C.ar    7  TYR7       -0.0200
      7  CD1      -12.9280  -22.2330   34.1270 C.ar    7  TYR7       -0.0009
      8  CD2      -12.8060  -23.2460   32.0050 C.ar    7  TYR7       -0.0009
      9  CE1      -13.2790  -23.4470   34.6980 C.ar    7  TYR7        0.0417
     10  CE2      -13.2180  -24.4450   32.5600 C.ar    7  TYR7        0.0417
     11  CZ       -13.4360  -24.5460   33.9070 C.ar    7  TYR7        0.1957
     12  OH       -13.8100  -25.7920   34.4450 O.3     7  TYR7       -0.2866
     13  N         -9.7070  -22.2210   32.5910 N.am    8  PHE8       -0.1976
     14  CA        -8.7480  -23.1530   31.9690 C.3     8  PHE8        0.1639
     15  C         -9.0640  -23.3370   30.4830 C.2     8  PHE8        0.2290
     16  O        -10.1450  -22.9920   29.9920 O.2     8  PHE8       -0.2864
     17  CB        -8.7760  -24.5100   32.6870 C.3     8  PHE8        0.0560
     18  CG        -8.3450  -24.4510   34.1310 C.ar    8  PHE8       -0.0200
     19  CD1       -9.2030  -24.8440   35.1600 C.ar    8  PHE8       -0.0042
     20  CD2       -7.0720  -24.0090   34.4590 C.ar    8  PHE8       -0.0042
     21  CE1       -8.7700  -24.7840   36.4890 C.ar    8  PHE8       -0.0003
     22  CE2       -6.6470  -23.9430   35.7860 C.ar    8  PHE8       -0.0003
     23  CZ        -7.5010  -24.3330   36.7950 C.ar    8  PHE8       -0.0000
     24  N        -10.3880  -25.6030   28.6230 N.3    10  MET10      -0.1245
     25  CA       -11.2860  -26.7290   28.8930 C.3    10  MET10       0.1570
     26  C        -12.6730  -26.1730   28.7020 C.2    10  MET10       0.2261
     27  O        -12.9340  -24.9920   28.8570 O.2    10  MET10      -0.2867
     28  CB       -11.2220  -27.2190   30.3480 C.3    10  MET10       0.0387
     29  CG       -10.0810  -28.1200   30.7970 C.3    10  MET10       0.0595
     30  SD       -10.4660  -29.0560   32.3200 S.3    10  MET10      -0.1393
     31  CE       -11.3000  -27.7810   33.2270 C.3    10  MET10       0.0692
     32  N        -15.4310  -27.5230   30.6210 N.3    12  GLY12      -0.1210
     33  CA       -15.6370  -27.5080   32.0390 C.3    12  GLY12       0.1956
     34  C        -16.7710  -26.5950   32.4600 C.2    12  GLY12       0.2611
     35  O        -17.8260  -26.5920   31.8790 O.2    12  GLY12      -0.2717
     36  N        -16.5070  -25.8120   33.4820 N.am   13  ARG13      -0.1979
     37  CA       -17.5040  -24.9600   34.1100 C.3    13  ARG13       0.1597
     38  C        -17.6550  -23.6230   33.3950 C.2    13  ARG13       0.2287
     39  O        -18.5670  -22.8730   33.7430 O.2    13  ARG13      -0.2864
     40  CB       -17.1550  -24.7280   35.5730 C.3    13  ARG13       0.0334
     41  CG       -17.2800  -26.0020   36.3870 C.3    13  ARG13       0.0492
     42  CD       -17.2770  -25.6980   37.8790 C.3    13  ARG13       0.2205
     43  NE       -18.6010  -25.1930   38.2040 N.pl3  13  ARG13      -0.0865
     44  CZ       -19.6960  -25.9570   38.4190 C.cat  13  ARG13       0.5346
     45  NH1      -19.6190  -27.2680   38.4230 N.pl3  13  ARG13       0.1354
     46  NH2      -20.8390  -25.3720   38.6160 N.pl3  13  ARG13       0.1354
     47  N        -20.9190  -23.3140   29.7720 N.3    16  ILE16      -0.1245
     48  CA       -22.2970  -22.8100   29.7860 C.3    16  ILE16       0.1561
     49  C        -22.2920  -21.3250   29.4070 C.2    16  ILE16       0.2260
     50  O        -23.1260  -20.8470   28.6460 O.2    16  ILE16      -0.2867
     51  CB       -23.0340  -23.0860   31.1310 C.3    16  ILE16       0.0252
     52  CG1      -24.5040  -22.6720   31.0550 C.3    16  ILE16       0.0019
     53  CG2      -22.3480  -22.4270   32.3460 C.3    16  ILE16       0.0019
     54  CD1      -25.3170  -23.2870   29.9270 C.3    16  ILE16       0.0001
     55  N         -2.0490  -24.1480   33.5840 N.3    35  GLN35      -0.1245
     56  CA        -1.7390  -24.4210   34.9940 C.3    35  GLN35       0.1566
     57  C         -0.6810  -23.4650   35.5640 C.2    35  GLN35       0.2260
     58  O         -0.8100  -22.9790   36.6890 O.2    35  GLN35      -0.2867
     59  CB        -1.2670  -25.8680   35.1960 C.3    35  GLN35       0.0367
     60  CG        -2.3870  -26.8450   35.5170 C.3    35  GLN35       0.0905
     61  CD        -1.9030  -28.1340   36.1690 C.2    35  GLN35       0.2608
     62  OE1       -2.7020  -28.9020   36.7160 O.2    35  GLN35      -0.2717
     63  NE2       -0.6000  -28.3880   36.1010 N.am   35  GLN35      -0.0878
     64  N         -1.7740  -20.2400   37.1010 N.3    38  TRP38      -0.1241
     65  CA        -2.8000  -20.3110   38.1590 C.3    38  TRP38       0.1605
     66  C         -2.4630  -19.4910   39.3950 C.2    38  TRP38       0.2264
     67  O         -3.3020  -18.7180   39.8370 O.2    38  TRP38      -0.2867
     68  CB        -3.1020  -21.7630   38.5330 C.3    38  TRP38       0.0550
     69  CG        -4.0810  -21.9680   39.6790 C.ar   38  TRP38       0.0003
     70  CD1       -3.8390  -22.6240   40.8570 C.ar   38  TRP38       0.0946
     71  CD2       -5.4490  -21.5410   39.7390 C.ar   38  TRP38       0.0152
     72  NE1       -4.9600  -22.6170   41.6460 N.ar   38  TRP38      -0.2442
     73  CE2       -5.9600  -21.9510   40.9870 C.ar   38  TRP38       0.0810
     74  CE3       -6.2790  -20.8350   38.8700 C.ar   38  TRP38       0.0012
     75  CZ2       -7.2720  -21.6870   41.3830 C.ar   38  TRP38       0.0191
     76  CZ3       -7.5880  -20.5770   39.2740 C.ar   38  TRP38       0.0001
     77  CH2       -8.0540  -20.9850   40.5210 C.ar   38  TRP38       0.0015
     78  N        -22.6780  -33.3570   39.0410 N.3    98  MET98      -0.1245
     79  CA       -21.3250  -33.0900   38.5110 C.3    98  MET98       0.1570
     80  C        -20.3220  -32.8120   39.6290 C.2    98  MET98       0.2261
     81  O        -19.1510  -33.2160   39.5230 O.2    98  MET98      -0.2867
     82  CB       -21.3400  -31.9500   37.5100 C.3    98  MET98       0.0387
     83  CG       -22.2940  -32.1300   36.3150 C.3    98  MET98       0.0595
     84  SD       -22.0300  -33.6520   35.3600 S.3    98  MET98      -0.1393
     85  CE       -20.5060  -33.3540   34.4770 C.3    98  MET98       0.0692
     86  N        -12.8480  -34.3550   40.3610 N.3   103  TRP103     -0.1227
     87  CA       -12.1540  -33.8630   39.1790 C.3   103  TRP103      0.1737
     88  C        -10.6630  -33.6520   39.3950 C.2   103  TRP103      0.2595
     89  O         -9.8910  -33.9220   38.4880 O.2   103  TRP103     -0.2718
     90  CB       -12.7710  -32.5640   38.6460 C.3   103  TRP103      0.0564
     91  CG       -14.2350  -32.7110   38.3220 C.ar  103  TRP103      0.0003
     92  CD1      -15.2690  -32.2690   39.0850 C.ar  103  TRP103      0.0946
     93  CD2      -14.8320  -33.4250   37.2200 C.ar  103  TRP103      0.0152
     94  NE1      -16.4740  -32.6140   38.5330 N.ar  103  TRP103     -0.2442
     95  CE2      -16.2420  -33.3160   37.3810 C.ar  103  TRP103      0.0810
     96  CE3      -14.3240  -34.0940   36.0990 C.ar  103  TRP103      0.0012
     97  CZ2      -17.1430  -33.8720   36.4900 C.ar  103  TRP103      0.0191
     98  CZ3      -15.2520  -34.6650   35.1980 C.ar  103  TRP103      0.0001
     99  CH2      -16.6330  -34.5290   35.4030 C.ar  103  TRP103      0.0015
    100  N        -10.2870  -33.1980   40.5840 N.am  104  ALA104     -0.1980
    101  CA        -8.8920  -32.7890   40.8530 C.3   104  ALA104      0.1597
    102  C         -8.0790  -33.8540   41.5940 C.2   104  ALA104      0.2287
    103  O         -6.9170  -33.6200   41.9570 O.2   104  ALA104     -0.2864
    104  CB        -8.8810  -31.4850   41.6270 C.3   104  ALA104      0.0319
    105  N        -27.3610  -26.7260   29.4840 N.3   151  TYR151     -0.1241
    106  CA       -26.5960  -27.3190   30.5740 C.3   151  TYR151      0.1605
    107  C        -26.6920  -28.8350   30.5090 C.2   151  TYR151      0.2264
    108  O        -25.7280  -29.5200   30.8000 O.2   151  TYR151     -0.2867
    109  CB       -26.9580  -26.7890   31.9480 C.3   151  TYR151      0.0534
    110  CG       -25.8160  -26.8410   32.9730 C.ar  151  TYR151     -0.0201
    111  CD1      -24.5810  -26.3160   32.6920 C.ar  151  TYR151     -0.0009
    112  CD2      -26.0020  -27.4250   34.2100 C.ar  151  TYR151     -0.0009
    113  CE1      -23.5560  -26.3380   33.6160 C.ar  151  TYR151      0.0417
    114  CE2      -24.9690  -27.4520   35.1520 C.ar  151  TYR151      0.0417
    115  CZ       -23.7550  -26.8490   34.8470 C.ar  151  TYR151      0.1957
    116  OH       -22.6370  -26.8150   35.6770 O.3   151  TYR151     -0.2866
    117  N        -24.1960  -29.9200   27.8600 N.3   154  ILE154     -0.1231
    118  CA       -22.7900  -29.7290   28.3040 C.3   154  ILE154      0.1692
    119  C        -22.4080  -30.8380   29.2970 C.2   154  ILE154      0.2592
    120  O        -21.3640  -31.5110   29.1540 O.2   154  ILE154     -0.2718
    121  CB       -22.6480  -28.2970   28.8640 C.3   154  ILE154      0.0266
    122  CG1      -22.6260  -27.2880   27.7390 C.3   154  ILE154      0.0019
    123  CG2      -21.3750  -28.1510   29.7100 C.3   154  ILE154      0.0020
    124  CD1      -22.9160  -25.8610   28.1850 C.3   154  ILE154      0.0001
    125  N        -23.2580  -31.0430   30.3000 N.am  155  CYS155     -0.1970
    126  CA       -22.9640  -32.0230   31.3450 C.3   155  CYS155      0.1712
    127  C        -22.9490  -33.4150   30.7620 C.2   155  CYS155      0.2296
    128  O        -22.0760  -34.2040   31.0810 O.2   155  CYS155     -0.2864
    129  CB       -23.9960  -31.9610   32.4830 C.3   155  CYS155      0.0983
    130  SG       -23.9270  -30.4830   33.5160 S.3   155  CYS155     -0.0798
    131  N        -19.7430  -34.2540   28.8940 N.3   158  THR158     -0.1218
    132  CA       -18.6660  -34.6120   29.8250 C.3   158  THR158      0.1862
    133  C        -18.8320  -36.0640   30.3090 C.2   158  THR158      0.2287
    134  O        -17.9100  -36.8900   30.2560 O.2   158  THR158     -0.2866
    135  CB       -18.6880  -33.6970   31.0820 C.3   158  THR158      0.1770
    136  OG1      -18.8000  -32.2870   30.7590 O.3   158  THR158     -0.2211
    137  CG2      -17.4690  -33.9400   31.9650 C.3   158  THR158      0.0375
    138  N        -12.0600  -32.3400   28.3680 N.3   198  LEU198     -0.1245
    139  CA       -13.1370  -31.9230   29.2480 C.3   198  LEU198      0.1561
    140  C        -13.4950  -30.4660   29.0410 C.2   198  LEU198      0.2260
    141  O        -14.4310  -30.0000   29.7230 O.2   198  LEU198     -0.2867
    142  CB       -12.7560  -32.1200   30.7110 C.3   198  LEU198      0.0270
    143  CG       -12.2750  -33.5200   31.0590 C.3   198  LEU198      0.0019
    144  CD1      -11.9420  -33.6060   32.5410 C.3   198  LEU198      0.0001
    145  CD2      -13.3120  -34.5530   30.6250 C.3   198  LEU198      0.0001
@<TRIPOS>BOND
     1   122   124    1
     2   122   121    1
     3   117   118    1
     4   118   121    1
     5   118   119    1
     6   138   139    1
     7    24    25    1
     8    50    49    2
     9    26    27    2
    10    26    25    1
    11   121   123    1
    12    25    28    1
    13   131   132    1
    14   140   139    1
    15   140   141    2
    16   120   119    2
    17   139   142    1
    18   119   125   am
    19    49    48    1
    20   105   106    1
    21    47    48    1
    22    48    51    1
    23   132   133    1
    24   132   135    1
    25    54    52    1
    26    16    15    2
    27   134   133    2
    28   125   126    1
    29    28    29    1
    30    15    14    1
    31   107   106    1
    32   107   108    2
    33   106   109    1
    34    32    33    1
    35   145   143    1
    36   142   143    1
    37   136   135    1
    38   127   128    2
    39   127   126    1
    40    29    30    1
    41    52    51    1
    42   143   144    1
    43   135   137    1
    44    51    53    1
    45   126   129    1
    46     4     3    2
    47    35    34    2
    48   109   110    1
    49    14    13    1
    50    14    17    1
    51     8    10   ar
    52     8     6   ar
    53    33    34    1
    54     5     2    1
    55     5     6    1
    56     3    13   am
    57     3     2    1
    58     1     2    1
    59    30    31    1
    60    34    36   am
    61   129   130    1
    62    10    11   ar
    63    17    18    1
    64   111   110   ar
    65   111   113   ar
    66     6     7   ar
    67   110   112   ar
    68    38    39    2
    69    38    37    1
    70    36    37    1
    71    55    56    1
    72   113   115   ar
    73    11    12    1
    74    11     9   ar
    75    37    40    1
    76     7     9   ar
    77    18    20   ar
    78    18    19   ar
    79   112   114   ar
    80    20    22   ar
    81    85    84    1
    82   115   114   ar
    83   115   116    1
    84    56    59    1
    85    56    57    1
    86    19    21   ar
    87    59    60    1
    88    98    99   ar
    89    98    96   ar
    90    84    83    1
    91    99    97   ar
    92    60    61    1
    93    57    58    2
    94    40    41    1
    95    22    23   ar
    96    96    93   ar
    97    63    61   am
    98    61    62    2
    99    83    82    1
   100    41    42    1
   101    21    23   ar
   102    97    95   ar
   103    64    65    1
   104    93    95   ar
   105    93    91   ar
   106    95    94   ar
   107    82    79    1
   108    42    43    1
   109    65    68    1
   110    65    66    1
   111    43    44    2
   112    91    90    1
   113    91    92   ar
   114    44    45    1
   115    44    46    1
   116    89    88    2
   117    79    78    1
   118    79    80    1
   119    94    92   ar
   120    68    69    1
   121    90    87    1
   122    74    76   ar
   123    74    71   ar
   124    87    88    1
   125    87    86    1
   126    76    77   ar
   127    66    67    2
   128    88   100   am
   129    81    80    2
   130    69    71   ar
   131    69    70   ar
   132    71    73   ar
   133    77    75   ar
   134   100   101    1
   135   101   102    1
   136   101   104    1
   137    70    72   ar
   138    73    75   ar
   139    73    72   ar
   140   102   103    2
