@<TRIPOS>MOLECULE
tmp/5yx4A00.pdb
 105 98 0 0 0
SMALL
GASTEIGER

@<TRIPOS>ATOM
      1  N        -22.5050   30.9180    3.2960 N.3    35  ARG35      -0.1245
      2  CA       -23.1080   31.8780    2.3860 C.3    35  ARG35       0.1563
      3  C        -22.0570   32.9380    2.0050 C.2    35  ARG35       0.2260
      4  O        -21.5060   33.6320    2.8610 O.2    35  ARG35      -0.2867
      5  CB       -24.3060   32.5070    3.0170 C.3    35  ARG35       0.0307
      6  CG       -25.0500   33.5340    2.1580 C.3    35  ARG35       0.0489
      7  CD       -24.4290   34.9310    2.0470 C.3    35  ARG35       0.2205
      8  NE       -25.4090   35.9300    1.6310 N.pl3  35  ARG35      -0.0865
      9  CZ       -25.6390   36.2740    0.3740 C.cat  35  ARG35       0.5346
     10  NH1      -24.9560   35.7680   -0.6370 N.pl3  35  ARG35       0.1354
     11  NH2      -26.5120   37.1740    0.1420 N.pl3  35  ARG35       0.1354
     12  N        -20.3740   35.4500   -1.6110 N.3    37  MET37      -0.1245
     13  CA       -20.5840   36.2370   -2.8720 C.3    37  MET37       0.1570
     14  C        -19.3000   36.1190   -3.6440 C.2    37  MET37       0.2261
     15  O        -18.1920   36.0600   -3.0360 O.2    37  MET37      -0.2867
     16  CB       -20.9230   37.6870   -2.5880 C.3    37  MET37       0.0387
     17  CG       -21.8860   37.8790   -1.4710 C.3    37  MET37       0.0595
     18  SD       -22.4480   39.5410   -1.0940 S.3    37  MET37      -0.1393
     19  CE       -23.3760   40.0440   -2.5110 C.3    37  MET37       0.0692
     20  N        -16.6650   37.9060   -5.9590 N.3    39  ILE39      -0.1245
     21  CA       -16.3440   39.3620   -6.0850 C.3    39  ILE39       0.1561
     22  C        -14.9560   39.3300   -6.5400 C.2    39  ILE39       0.2260
     23  O        -14.0910   38.8820   -5.8320 O.2    39  ILE39      -0.2867
     24  CB       -16.3850   40.1520   -4.7700 C.3    39  ILE39       0.0252
     25  CG1      -17.6600   39.8270   -3.9910 C.3    39  ILE39       0.0019
     26  CG2      -16.2500   41.6370   -5.0560 C.3    39  ILE39       0.0019
     27  CD1      -17.7210   40.3660   -2.5740 C.3    39  ILE39       0.0001
     28  N        -19.4940   35.3500    3.8200 N.3    46  PHE46      -0.1227
     29  CA       -20.1340   36.3110    4.6710 C.3    46  PHE46       0.1736
     30  C        -20.7500   35.7560    5.9490 C.2    46  PHE46       0.2596
     31  O        -20.6490   36.4020    7.0330 O.2    46  PHE46      -0.2718
     32  CB       -21.1590   37.0260    3.9300 C.3    46  PHE46       0.0547
     33  CG       -20.6320   38.1890    3.1580 C.ar   46  PHE46      -0.0202
     34  CD1      -20.0220   37.9870    1.9370 C.ar   46  PHE46      -0.0042
     35  CD2      -20.7150   39.4740    3.6850 C.ar   46  PHE46      -0.0042
     36  CE1      -19.5340   39.0640    1.2140 C.ar   46  PHE46      -0.0003
     37  CE2      -20.2120   40.5500    2.9760 C.ar   46  PHE46      -0.0003
     38  CZ       -19.6140   40.3460    1.7570 C.ar   46  PHE46      -0.0000
     39  N        -21.4350   34.6120    5.8210 N.am   47  THR47      -0.1953
     40  CA       -22.2330   34.0180    6.9270 C.3    47  THR47       0.1897
     41  C        -22.1360   32.4920    6.8570 C.2    47  THR47       0.2313
     42  O        -21.6850   31.9210    5.8230 O.2    47  THR47      -0.2863
     43  CB       -23.7020   34.4810    7.0010 C.3    47  THR47       0.1794
     44  OG1      -24.4600   34.0500    5.8510 O.3    47  THR47      -0.2208
     45  CG2      -23.8110   35.9750    7.1700 C.3    47  THR47       0.0378
     46  N        -24.7830   29.3600    7.6870 N.3    49  ILE49      -0.1245
     47  CA       -26.2350   29.1950    7.8760 C.3    49  ILE49       0.1561
     48  C        -26.5480   27.6960    8.2340 C.2    49  ILE49       0.2260
     49  O        -26.0740   26.8000    7.5490 O.2    49  ILE49      -0.2867
     50  CB       -27.0310   29.6220    6.6340 C.3    49  ILE49       0.0252
     51  CG1      -26.7400   31.1120    6.3180 C.3    49  ILE49       0.0019
     52  CG2      -28.5240   29.4990    6.8920 C.3    49  ILE49       0.0019
     53  CD1      -27.3740   31.6470    5.0620 C.3    49  ILE49       0.0001
     54  N        -21.9310   42.4520    9.9230 N.3   101  LEU101     -0.1245
     55  CA       -22.9720   43.1280    9.2250 C.3   101  LEU101      0.1561
     56  C        -23.8320   43.8860   10.2110 C.2   101  LEU101      0.2260
     57  O        -23.9530   43.4880   11.3720 O.2   101  LEU101     -0.2867
     58  CB       -23.8840   42.1000    8.5520 C.3   101  LEU101      0.0270
     59  CG       -23.3450   41.1670    7.4560 C.3   101  LEU101      0.0019
     60  CD1      -24.4260   40.1190    7.0830 C.3   101  LEU101      0.0001
     61  CD2      -22.9470   41.9830    6.2220 C.3   101  LEU101      0.0001
     62  N        -28.1820   46.9280    7.0940 N.3   105  GLN105     -0.1231
     63  CA       -27.6900   46.1990    5.9140 C.3   105  GLN105      0.1698
     64  C        -28.5090   44.8990    5.6580 C.2   105  GLN105      0.2592
     65  O        -29.1100   44.7700    4.6150 O.2   105  GLN105     -0.2718
     66  CB       -26.2510   45.7820    6.0370 C.3   105  GLN105      0.0381
     67  CG       -25.2200   46.8790    5.8600 C.3   105  GLN105      0.0905
     68  CD       -23.8120   46.3130    5.9830 C.2   105  GLN105      0.2608
     69  OE1      -23.4820   45.6670    6.9910 O.2   105  GLN105     -0.2717
     70  NE2      -22.9730   46.5330    4.9600 N.am  105  GLN105     -0.0878
     71  N        -28.5690   44.0010    6.6400 N.am  106  TYR106     -0.1976
     72  CA       -29.2310   42.7200    6.4740 C.3   106  TYR106      0.1639
     73  C        -30.6820   42.9540    6.1390 C.2   106  TYR106      0.2290
     74  O        -31.1360   42.4560    5.1320 O.2   106  TYR106     -0.2864
     75  CB       -29.0200   41.8050    7.7100 C.3   106  TYR106      0.0560
     76  CG       -29.5100   40.3890    7.5270 C.ar  106  TYR106     -0.0198
     77  CD1      -30.8570   40.0670    7.7260 C.ar  106  TYR106     -0.0009
     78  CD2      -28.6590   39.3970    7.0740 C.ar  106  TYR106     -0.0009
     79  CE1      -31.3320   38.7570    7.5000 C.ar  106  TYR106      0.0417
     80  CE2      -29.1040   38.0860    6.8650 C.ar  106  TYR106      0.0417
     81  CZ       -30.4400   37.7700    7.0790 C.ar  106  TYR106      0.1957
     82  OH       -30.8720   36.4560    6.8330 O.3   106  TYR106     -0.2866
     83  N        -31.3310   44.4580    2.6550 N.3   109  LYS109     -0.1231
     84  CA       -31.0950   43.5210    1.6120 C.3   109  LYS109      0.1693
     85  C        -32.2210   42.5260    1.4950 C.2   109  LYS109      0.2591
     86  O        -32.7200   42.3210    0.4270 O.2   109  LYS109     -0.2718
     87  CB       -29.7950   42.7830    1.8010 C.3   109  LYS109      0.0285
     88  CG       -29.3840   42.0700    0.5440 C.3   109  LYS109      0.0035
     89  CD       -28.3500   41.0180    0.7920 C.3   109  LYS109      0.0206
     90  CE       -27.0250   41.3940    0.1960 C.3   109  LYS109      0.1093
     91  NZ       -27.1860   42.2170   -1.0120 N.3   109  LYS109     -0.1314
     92  N        -32.6540   41.9300    2.5890 N.am  110  VAL110     -0.1980
     93  CA       -33.6900   40.9330    2.4530 C.3   110  VAL110      0.1595
     94  C        -35.0260   41.4980    2.0780 C.2   110  VAL110      0.2287
     95  O        -35.6550   40.9250    1.2100 O.2   110  VAL110     -0.2864
     96  CB       -33.8060   39.7390    3.5070 C.3   110  VAL110      0.0276
     97  CG1      -32.6330   39.5900    4.4190 C.3   110  VAL110      0.0022
     98  CG2      -35.1670   39.6520    4.2030 C.3   110  VAL110      0.0022
     99  N        -29.4080   31.9510   -1.6800 N.3   197  VAL197     -0.1245
    100  CA       -28.0020   32.4810   -1.5510 C.3   197  VAL197      0.1561
    101  C        -27.0420   31.4750   -0.9500 C.2   197  VAL197      0.2260
    102  O        -25.8310   31.6960   -0.9350 O.2   197  VAL197     -0.2867
    103  CB       -27.9640   33.8130   -0.7890 C.3   197  VAL197      0.0252
    104  CG1      -28.8140   34.8760   -1.4990 C.3   197  VAL197      0.0019
    105  CG2      -28.4480   33.6550    0.6350 C.3   197  VAL197      0.0019
@<TRIPOS>BOND
     1    22    21    1
     2    22    23    2
     3    21    20    1
     4    21    24    1
     5    26    24    1
     6    24    25    1
     7    25    27    1
     8    14    15    2
     9    14    13    1
    10    13    16    1
    11    13    12    1
    12    16    17    1
    13    19    18    1
    14    99   100    1
    15   100   101    1
    16   100   103    1
    17   104   103    1
    18    17    18    1
    19    91    90    1
    20   101   102    2
    21   103   105    1
    22    10     9    1
    23    11     9    1
    24    90    89    1
    25     9     8    2
    26    86    85    2
    27    88    89    1
    28    88    87    1
    29    95    94    2
    30    36    38   ar
    31    36    34   ar
    32    85    84    1
    33    85    92   am
    34    84    87    1
    35    84    83    1
    36     8     7    1
    37    38    37   ar
    38    34    33   ar
    39     3     2    1
    40     3     4    2
    41     7     6    1
    42    94    93    1
    43     6     5    1
    44     2     5    1
    45     2     1    1
    46    93    92    1
    47    93    96    1
    48    37    35   ar
    49    33    35   ar
    50    33    32    1
    51    96    98    1
    52    96    97    1
    53    28    29    1
    54    32    29    1
    55    65    64    2
    56    29    30    1
    57    70    68   am
    58    53    51    1
    59    74    73    2
    60    64    63    1
    61    64    71   am
    62    39    30   am
    63    39    40    1
    64    42    41    2
    65    44    43    1
    66    67    68    1
    67    67    66    1
    68    63    66    1
    69    63    62    1
    70    30    31    2
    71    68    69    2
    72    73    72    1
    73    61    59    1
    74    51    50    1
    75    72    71    1
    76    72    75    1
    77    50    52    1
    78    50    47    1
    79    82    81    1
    80    41    40    1
    81    80    78   ar
    82    80    81   ar
    83    40    43    1
    84    43    45    1
    85    78    76   ar
    86    81    79   ar
    87    60    59    1
    88    59    58    1
    89    79    77   ar
    90    76    75    1
    91    76    77   ar
    92    49    48    2
    93    46    47    1
    94    47    48    1
    95    58    55    1
    96    55    54    1
    97    55    56    1
    98    56    57    2
