@<TRIPOS>MOLECULE
tmp/5yxbA01.pdb
 252 244 0 0 0
SMALL
GASTEIGER

@<TRIPOS>ATOM
      1  N        -42.7500    5.7570  -23.0020 N.3    22  THR22      -0.1218
      2  CA       -42.8660    6.3280  -24.3900 C.3    22  THR22       0.1862
      3  C        -44.0200    6.2540  -25.4130 C.2    22  THR22       0.2287
      4  O        -44.2580    7.2390  -26.1300 O.2    22  THR22      -0.2866
      5  CB       -41.8310    5.6890  -25.2960 C.3    22  THR22       0.1770
      6  OG1      -40.6580    5.4650  -24.5590 O.3    22  THR22      -0.2211
      7  CG2      -41.5130    6.5870  -26.4740 C.3    22  THR22       0.0375
      8  N        -46.7130    8.8280  -26.8530 N.3    25  ILE25      -0.1245
      9  CA       -46.2610    9.7630  -27.8620 C.3    25  ILE25       0.1561
     10  C        -46.3660    9.1260  -29.2360 C.2    25  ILE25       0.2260
     11  O        -46.6730    9.7930  -30.1900 O.2    25  ILE25      -0.2867
     12  CB       -44.8160   10.2690  -27.6310 C.3    25  ILE25       0.0252
     13  CG1      -44.8120   11.1980  -26.4000 C.3    25  ILE25       0.0019
     14  CG2      -44.2680   10.9500  -28.8610 C.3    25  ILE25       0.0019
     15  CD1      -43.4370   11.5460  -25.9010 C.3    25  ILE25       0.0001
     16  N        -45.7570   14.7330  -20.7980 N.3    39  LEU39      -0.1245
     17  CA       -44.4080   15.1320  -20.4040 C.3    39  LEU39       0.1561
     18  C        -44.0870   14.9970  -18.9220 C.2    39  LEU39       0.2260
     19  O        -43.0660   14.4010  -18.5390 O.2    39  LEU39      -0.2867
     20  CB       -44.1550   16.5930  -20.7630 C.3    39  LEU39       0.0270
     21  CG       -43.8400   16.9240  -22.1970 C.3    39  LEU39       0.0019
     22  CD1      -43.2860   18.3490  -22.2950 C.3    39  LEU39       0.0001
     23  CD2      -42.8650   15.9040  -22.7530 C.3    39  LEU39       0.0001
     24  N        -43.8170   11.4830  -17.6880 N.3    42  MET42      -0.1230
     25  CA       -42.5350   10.9470  -18.0450 C.3    42  MET42       0.1702
     26  C        -41.4610   11.4870  -17.1370 C.2    42  MET42       0.2592
     27  O        -40.7420   10.7030  -16.5490 O.2    42  MET42      -0.2718
     28  CB       -42.2190   11.3230  -19.4720 C.3    42  MET42       0.0401
     29  CG       -40.8900   10.7930  -19.9810 C.3    42  MET42       0.0596
     30  SD       -40.7030   11.2950  -21.7030 S.3    42  MET42      -0.1393
     31  CE       -41.8840   10.2190  -22.5390 C.3    42  MET42       0.0692
     32  N        -41.3410   12.8090  -17.0180 N.am   43  ALA43      -0.1980
     33  CA       -40.3060   13.4180  -16.1530 C.3    43  ALA43       0.1597
     34  C        -40.4030   12.8710  -14.7050 C.2    43  ALA43       0.2287
     35  O        -39.4080   12.6030  -14.0250 O.2    43  ALA43      -0.2864
     36  CB       -40.4620   14.9210  -16.1410 C.3    43  ALA43       0.0319
     37  N        -39.0490    9.5840  -14.4810 N.3    46  HIS46      -0.1241
     38  CA       -37.5900    9.7740  -14.3790 C.3    46  HIS46       0.1621
     39  C        -37.1460   10.1650  -12.9780 C.2    46  HIS46       0.2264
     40  O        -36.2220    9.5750  -12.4520 O.2    46  HIS46      -0.2867
     41  CB       -37.0740   10.7930  -15.3920 C.3    46  HIS46       0.0745
     42  CG       -36.7740   10.2090  -16.7340 C.ar   46  HIS46       0.0817
     43  ND1      -37.3940   10.6350  -17.8910 N.ar   46  HIS46      -0.2268
     44  CD2      -35.9150    9.2380  -17.0980 C.ar   46  HIS46       0.1154
     45  CE1      -36.9380    9.9340  -18.9100 C.ar   46  HIS46       0.1986
     46  NE2      -36.0410    9.0800  -18.4550 N.ar   46  HIS46      -0.2212
     47  N        -31.9950   16.6830  -14.5190 N.3    77  VAL77      -0.1245
     48  CA       -32.1190   16.9170  -15.9440 C.3    77  VAL77       0.1561
     49  C        -31.1180   16.0690  -16.6770 C.2    77  VAL77       0.2260
     50  O        -31.4530   15.4150  -17.6430 O.2    77  VAL77      -0.2867
     51  CB       -31.9480   18.4080  -16.3010 C.3    77  VAL77       0.0252
     52  CG1      -31.8990   18.5920  -17.8150 C.3    77  VAL77       0.0019
     53  CG2      -33.0950   19.2310  -15.7000 C.3    77  VAL77       0.0019
     54  N        -32.1790   12.5220  -16.5150 N.3    80  MET80      -0.1230
     55  CA       -33.3540   12.3240  -17.3490 C.3    80  MET80       0.1702
     56  C        -32.9000   12.1130  -18.7970 C.2    80  MET80       0.2592
     57  O        -33.4350   11.2360  -19.4790 O.2    80  MET80      -0.2718
     58  CB       -34.3270   13.5000  -17.2240 C.3    80  MET80       0.0401
     59  CG       -35.5230   13.5080  -18.1910 C.3    80  MET80       0.0596
     60  SD       -36.3550   15.1160  -18.3120 S.3    80  MET80      -0.1393
     61  CE       -36.4450   15.5530  -16.5780 C.3    80  MET80       0.0692
     62  N        -31.8850   12.8680  -19.2380 N.am   81  PHE81      -0.1976
     63  CA       -31.3460   12.7520  -20.6040 C.3    81  PHE81       0.1639
     64  C        -30.5060   11.5180  -20.8060 C.2    81  PHE81       0.2290
     65  O        -30.6160   10.8120  -21.8100 O.2    81  PHE81      -0.2864
     66  CB       -30.4710   13.9480  -20.9430 C.3    81  PHE81       0.0560
     67  CG       -31.2310   15.0380  -21.5260 C.ar   81  PHE81      -0.0200
     68  CD1      -32.0740   15.8040  -20.7250 C.ar   81  PHE81      -0.0042
     69  CD2      -31.1980   15.2680  -22.8900 C.ar   81  PHE81      -0.0042
     70  CE1      -32.8280   16.8030  -21.2670 C.ar   81  PHE81      -0.0003
     71  CE2      -31.9820   16.2670  -23.4330 C.ar   81  PHE81      -0.0003
     72  CZ       -32.7640   17.0140  -22.6030 C.ar   81  PHE81      -0.0000
     73  N        -32.8020    8.6080  -21.1050 N.3    84  SER84      -0.1217
     74  CA       -33.4930    8.5970  -22.4150 C.3    84  SER84       0.1889
     75  C        -32.5890    8.0240  -23.5130 C.2    84  SER84       0.2288
     76  O        -33.0480    7.3130  -24.3820 O.2    84  SER84      -0.2866
     77  CB       -33.9290    9.9930  -22.8700 C.3    84  SER84       0.2089
     78  OG       -34.3420   10.8240  -21.8110 O.3    84  SER84      -0.2183
     79  N        -32.7220    4.3820  -23.3390 N.3    87  ILE87      -0.1231
     80  CA       -33.9700    3.9520  -23.9480 C.3    87  ILE87       0.1692
     81  C        -33.8830    4.0740  -25.4750 C.2    87  ILE87       0.2592
     82  O        -34.1510    3.1100  -26.1780 O.2    87  ILE87      -0.2718
     83  CB       -35.2450    4.6260  -23.3550 C.3    87  ILE87       0.0266
     84  CG1      -36.4310    3.6680  -23.4440 C.3    87  ILE87       0.0019
     85  CG2      -35.6960    5.8850  -24.1030 C.3    87  ILE87       0.0020
     86  CD1      -36.4980    2.6490  -22.3410 C.3    87  ILE87       0.0001
     87  N        -33.4530    5.2320  -25.9740 N.am   88  PHE88      -0.1976
     88  CA       -33.5480    5.5740  -27.4080 C.3    88  PHE88       0.1639
     89  C        -32.7260    4.6180  -28.2790 C.2    88  PHE88       0.2290
     90  O        -33.2470    3.9860  -29.1810 O.2    88  PHE88      -0.2864
     91  CB       -33.1500    7.0460  -27.6110 C.3    88  PHE88       0.0560
     92  CG       -33.2370    7.5300  -29.0330 C.ar   88  PHE88      -0.0200
     93  CD1      -32.2620    7.1750  -29.9660 C.ar   88  PHE88      -0.0042
     94  CD2      -34.2600    8.3840  -29.4300 C.ar   88  PHE88      -0.0042
     95  CE1      -32.3540    7.6020  -31.2820 C.ar   88  PHE88      -0.0003
     96  CE2      -34.3390    8.8420  -30.7350 C.ar   88  PHE88      -0.0003
     97  CZ       -33.3910    8.4490  -31.6620 C.ar   88  PHE88      -0.0000
     98  N        -40.6720    8.4450  -33.0810 N.3   100  LEU100     -0.1245
     99  CA       -40.5060    9.2090  -31.9000 C.3   100  LEU100      0.1561
    100  C        -39.8770   10.5660  -32.2050 C.2   100  LEU100      0.2260
    101  O        -40.4010   11.5880  -31.7530 O.2   100  LEU100     -0.2867
    102  CB       -39.6300    8.4390  -30.9130 C.3   100  LEU100      0.0270
    103  CG       -39.3630    9.1780  -29.5720 C.3   100  LEU100      0.0019
    104  CD1      -40.6020    9.1300  -28.6790 C.3   100  LEU100      0.0001
    105  CD2      -38.1290    8.6760  -28.8370 C.3   100  LEU100      0.0001
    106  N        -41.9030   14.2510  -31.9850 N.3   104  ILE104     -0.1245
    107  CA       -41.3110   15.3410  -31.2350 C.3   104  ILE104      0.1561
    108  C        -41.0490   16.5940  -32.0720 C.2   104  ILE104      0.2260
    109  O        -41.5230   17.6510  -31.7100 O.2   104  ILE104     -0.2867
    110  CB       -40.0310   14.8540  -30.5530 C.3   104  ILE104      0.0252
    111  CG1      -40.3920   14.0430  -29.3070 C.3   104  ILE104      0.0019
    112  CG2      -39.1250   16.0180  -30.1750 C.3   104  ILE104      0.0019
    113  CD1      -39.2950   13.0710  -28.8820 C.3   104  ILE104      0.0001
    114  N        -43.9090   18.4640  -31.9640 N.3   107  SER107     -0.1217
    115  CA       -44.2830   18.9800  -30.5920 C.3   107  SER107      0.1889
    116  C        -44.5240   20.4740  -30.4280 C.2   107  SER107      0.2288
    117  O        -45.1690   20.8830  -29.4920 O.2   107  SER107     -0.2866
    118  CB       -43.2470   18.5380  -29.5740 C.3   107  SER107      0.2089
    119  OG       -42.0000   19.1660  -29.8540 O.3   107  SER107     -0.2183
    120  N        -42.0260   22.2780  -29.8270 N.3   109  ILE109     -0.1245
    121  CA       -40.9160   22.4680  -28.9580 C.3   109  ILE109      0.1561
    122  C        -39.8690   22.6330  -30.0400 C.2   109  ILE109      0.2260
    123  O        -39.6210   21.7270  -30.8570 O.2   109  ILE109     -0.2867
    124  CB       -40.6350   21.2340  -28.0490 C.3   109  ILE109      0.0252
    125  CG1      -41.6530   21.0600  -26.9410 C.3   109  ILE109      0.0019
    126  CG2      -39.2560   21.3500  -27.4090 C.3   109  ILE109      0.0019
    127  CD1      -41.4490   19.7620  -26.1610 C.3   109  ILE109      0.0001
    128  N        -33.8860   23.7190  -29.0180 N.3   113  TYR113     -0.1227
    129  CA       -33.8000   22.6710  -28.0430 C.3   113  TYR113      0.1736
    130  C        -33.8040   21.2370  -28.6160 C.2   113  TYR113      0.2595
    131  O        -33.1090   20.3810  -28.0830 O.2   113  TYR113     -0.2718
    132  CB       -34.8570   22.8720  -26.9480 C.3   113  TYR113      0.0548
    133  CG       -34.8640   24.2880  -26.3590 C.ar  113  TYR113     -0.0200
    134  CD1      -33.6720   24.9170  -25.9160 C.ar  113  TYR113     -0.0009
    135  CD2      -36.0570   25.0000  -26.2610 C.ar  113  TYR113     -0.0009
    136  CE1      -33.7220   26.2170  -25.4160 C.ar  113  TYR113      0.0417
    137  CE2      -36.1030   26.2680  -25.7410 C.ar  113  TYR113      0.0417
    138  CZ       -34.9600   26.8740  -25.3140 C.ar  113  TYR113      0.1957
    139  OH       -35.0930   28.1510  -24.8000 O.3   113  TYR113     -0.2866
    140  N        -34.5340   20.9820  -29.7020 N.am  114  ILE114     -0.1980
    141  CA       -34.7180   19.6060  -30.2260 C.3   114  ILE114      0.1595
    142  C        -33.4630   19.0180  -30.8880 C.2   114  ILE114      0.2287
    143  O        -33.1590   17.8070  -30.7790 O.2   114  ILE114     -0.2864
    144  CB       -35.8550   19.5320  -31.2690 C.3   114  ILE114      0.0276
    145  CG1      -37.1720   20.1050  -30.7430 C.3   114  ILE114      0.0022
    146  CG2      -36.1300   18.0780  -31.6700 C.3   114  ILE114      0.0022
    147  CD1      -37.8570   19.2360  -29.7370 C.3   114  ILE114      0.0001
    148  N        -30.1430   19.7440  -30.5110 N.3   116  PRO116     -0.2102
    149  CA       -29.1090   19.2510  -29.5690 C.3   116  PRO116      0.1504
    150  C        -29.4750   17.9160  -28.8970 C.2   116  PRO116      0.2575
    151  O        -28.6100   17.0410  -28.7750 O.2   116  PRO116     -0.2718
    152  CB       -28.9850   20.3930  -28.5450 C.3   116  PRO116      0.0282
    153  CG       -29.3860   21.6350  -29.3020 C.3   116  PRO116      0.0208
    154  CD       -30.4310   21.1900  -30.3140 C.3   116  PRO116      0.0893
    155  N        -30.7400   17.7570  -28.4970 N.am  117  MET117     -0.1980
    156  CA       -31.2080   16.5000  -27.9150 C.3   117  MET117      0.1605
    157  C        -30.8740   15.2940  -28.8150 C.2   117  MET117      0.2287
    158  O        -30.2150   14.3380  -28.3970 O.2   117  MET117     -0.2864
    159  CB       -32.7140   16.5710  -27.6430 C.3   117  MET117      0.0413
    160  CG       -33.2000   15.4120  -26.7890 C.3   117  MET117      0.0598
    161  SD       -34.8930   15.4790  -26.2060 S.3   117  MET117     -0.1393
    162  CE       -35.7230   15.2550  -27.7560 C.3   117  MET117      0.0692
    163  N        -28.0350   12.2680  -28.5490 N.3   121  TYR121     -0.1241
    164  CA       -28.4290   10.8200  -28.5670 C.3   121  TYR121      0.1605
    165  C        -27.6950    9.9880  -29.5980 C.2   121  TYR121      0.2264
    166  O        -27.3300    8.8600  -29.3030 O.2   121  TYR121     -0.2867
    167  CB       -29.9150   10.5880  -28.9020 C.3   121  TYR121      0.0534
    168  CG       -30.9140   11.0100  -27.8880 C.ar  121  TYR121     -0.0201
    169  CD1      -30.5860   11.0880  -26.5370 C.ar  121  TYR121     -0.0009
    170  CD2      -32.2280   11.2910  -28.2680 C.ar  121  TYR121     -0.0009
    171  CE1      -31.5260   11.4570  -25.6010 C.ar  121  TYR121      0.0417
    172  CE2      -33.1730   11.6850  -27.3340 C.ar  121  TYR121      0.0417
    173  CZ       -32.7990   11.7500  -26.0080 C.ar  121  TYR121      0.1957
    174  OH       -33.6480   12.1450  -25.0430 O.3   121  TYR121     -0.2866
    175  N        -27.9850   20.9200  -21.3350 N.3   195  PHE195     -0.1241
    176  CA       -29.4710   20.7060  -21.1540 C.3   195  PHE195      0.1605
    177  C        -30.1000   21.4410  -19.9480 C.2   195  PHE195      0.2264
    178  O        -31.2720   21.8620  -20.0200 O.2   195  PHE195     -0.2867
    179  CB       -29.8690   19.2020  -21.1390 C.3   195  PHE195      0.0534
    180  CG       -29.4060   18.4520  -22.3600 C.ar  195  PHE195     -0.0203
    181  CD1      -29.8940   18.7710  -23.5990 C.ar  195  PHE195     -0.0042
    182  CD2      -28.4020   17.4980  -22.2900 C.ar  195  PHE195     -0.0042
    183  CE1      -29.4020   18.1760  -24.7460 C.ar  195  PHE195     -0.0003
    184  CE2      -27.9090   16.8860  -23.4310 C.ar  195  PHE195     -0.0003
    185  CZ       -28.4160   17.2260  -24.6640 C.ar  195  PHE195     -0.0000
    186  N        -31.0260   24.9060  -21.2450 N.3   198  HIS198     -0.1226
    187  CA       -32.2520   24.6830  -21.9910 C.3   198  HIS198      0.1752
    188  C        -33.4720   24.4140  -21.0860 C.2   198  HIS198      0.2596
    189  O        -34.5180   24.9970  -21.2950 O.2   198  HIS198     -0.2718
    190  CB       -32.0420   23.5380  -22.9650 C.3   198  HIS198      0.0759
    191  CG       -31.0950   23.8380  -24.0820 C.ar  198  HIS198      0.0818
    192  ND1      -30.4970   22.8460  -24.8320 N.ar  198  HIS198     -0.2268
    193  CD2      -30.6560   25.0110  -24.5940 C.ar  198  HIS198      0.1154
    194  CE1      -29.7930   23.3890  -25.8020 C.ar  198  HIS198      0.1986
    195  NE2      -29.8310   24.7030  -25.6490 N.ar  198  HIS198     -0.2212
    196  N        -33.2950   23.5750  -20.0740 N.am  199  HIS199     -0.1975
    197  CA       -34.3610   23.3250  -19.1130 C.3   199  HIS199      0.1656
    198  C        -34.8860   24.6210  -18.5420 C.2   199  HIS199      0.2291
    199  O        -35.9900   25.0530  -18.8920 O.2   199  HIS199     -0.2864
    200  CB       -33.8910   22.3690  -18.0190 C.3   199  HIS199      0.0771
    201  CG       -34.9370   22.0660  -17.0000 C.ar  199  HIS199      0.0820
    202  ND1      -35.9210   21.1380  -17.2360 N.ar  199  HIS199     -0.2267
    203  CD2      -35.1490   22.5390  -15.7420 C.ar  199  HIS199      0.1154
    204  CE1      -36.7270   21.0850  -16.1930 C.ar  199  HIS199      0.1986
    205  NE2      -36.2840   21.9310  -15.2760 N.ar  199  HIS199     -0.2212
    206  N        -36.8980   26.5050  -20.7870 N.3   202  MET202     -0.1245
    207  CA       -38.1490   25.8500  -21.1950 C.3   202  MET202      0.1570
    208  C        -39.1150   25.8870  -20.0630 C.2   202  MET202      0.2261
    209  O        -40.2900   26.1260  -20.2600 O.2   202  MET202     -0.2867
    210  CB       -37.8910   24.4070  -21.6510 C.3   202  MET202      0.0387
    211  CG       -37.3890   24.3760  -23.1130 C.3   202  MET202      0.0595
    212  SD       -36.9730   22.7550  -23.7750 S.3   202  MET202     -0.1393
    213  CE       -38.4310   21.7420  -23.5570 C.3   202  MET202      0.0692
    214  N        -42.9700   27.6650  -19.6440 N.3   206  TRP206     -0.1241
    215  CA       -44.1620   26.9490  -19.2230 C.3   206  TRP206      0.1605
    216  C        -44.8960   27.5560  -18.0230 C.2   206  TRP206      0.2264
    217  O        -46.0840   27.3120  -17.8300 O.2   206  TRP206     -0.2867
    218  CB       -43.8120   25.4850  -18.9710 C.3   206  TRP206      0.0550
    219  CG       -43.4640   24.7630  -20.2130 C.ar  206  TRP206      0.0003
    220  CD1      -43.8800   25.0490  -21.4810 C.ar  206  TRP206      0.0946
    221  CD2      -42.6570   23.6090  -20.3130 C.ar  206  TRP206      0.0152
    222  NE1      -43.3590   24.1580  -22.3600 N.ar  206  TRP206     -0.2442
    223  CE2      -42.6090   23.2510  -21.6660 C.ar  206  TRP206      0.0810
    224  CE3      -41.9490   22.8390  -19.3850 C.ar  206  TRP206      0.0012
    225  CZ2      -41.8850   22.1470  -22.1240 C.ar  206  TRP206      0.0191
    226  CZ3      -41.2160   21.7350  -19.8360 C.ar  206  TRP206      0.0001
    227  CH2      -41.1930   21.4030  -21.1920 C.ar  206  TRP206      0.0015
    228  N        -47.6250   21.2310  -12.8660 N.3   213  PHE213     -0.1241
    229  CA       -46.5590   20.2500  -12.6620 C.3   213  PHE213      0.1605
    230  C        -46.9250   19.3350  -11.5130 C.2   213  PHE213      0.2264
    231  O        -47.6390   19.7670  -10.5950 O.2   213  PHE213     -0.2867
    232  CB       -45.2190   20.9370  -12.3530 C.3   213  PHE213      0.0534
    233  CG       -44.6470   21.7060  -13.5120 C.ar  213  PHE213     -0.0203
    234  CD1      -45.1530   22.9520  -13.8400 C.ar  213  PHE213     -0.0042
    235  CD2      -43.6060   21.1960  -14.2730 C.ar  213  PHE213     -0.0042
    236  CE1      -44.6410   23.6780  -14.9010 C.ar  213  PHE213     -0.0003
    237  CE2      -43.0900   21.9150  -15.3450 C.ar  213  PHE213     -0.0003
    238  CZ       -43.6120   23.1550  -15.6640 C.ar  213  PHE213     -0.0000
    239  N        -37.6100   21.0800   -8.8490 N.3   221  TRP221     -0.1241
    240  CA       -37.2790   22.2310   -9.6610 C.3   221  TRP221      0.1605
    241  C        -37.7580   23.6020   -9.1750 C.2   221  TRP221      0.2264
    242  O        -37.6220   24.5750   -9.9190 O.2   221  TRP221     -0.2867
    243  CB       -37.7880   21.9750  -11.0800 C.3   221  TRP221      0.0550
    244  CG       -37.1170   20.8480  -11.7810 C.ar  221  TRP221      0.0003
    245  CD1      -35.8290   20.4060  -11.6020 C.ar  221  TRP221      0.0946
    246  CD2      -37.6760   20.0300  -12.8190 C.ar  221  TRP221      0.0152
    247  NE1      -35.5630   19.3660  -12.4500 N.ar  221  TRP221     -0.2442
    248  CE2      -36.6790   19.0990  -13.2030 C.ar  221  TRP221      0.0810
    249  CE3      -38.9180   19.9880  -13.4570 C.ar  221  TRP221      0.0012
    250  CZ2      -36.8980   18.1260  -14.2010 C.ar  221  TRP221      0.0191
    251  CZ3      -39.1310   19.0200  -14.4490 C.ar  221  TRP221      0.0001
    252  CH2      -38.1240   18.1110  -14.8100 C.ar  221  TRP221      0.0015
@<TRIPOS>BOND
     1    98    99    1
     2   100    99    1
     3   100   101    2
     4   108   109    2
     5   108   107    1
     6   106   107    1
     7   114   115    1
     8    99   102    1
     9   146   144    1
    10    97    95   ar
    11    97    96   ar
    12    95    93   ar
    13   144   145    1
    14   144   141    1
    15   107   110    1
    16   102   103    1
    17   142   143    2
    18   142   141    1
    19   123   122    2
    20   145   147    1
    21    96    94   ar
    22   115   116    1
    23   115   118    1
    24   110   112    1
    25   110   111    1
    26   148   154    1
    27   148   149    1
    28   116   117    2
    29   154   153    1
    30   141   140    1
    31    11    10    2
    32   122   121    1
    33    93    92   ar
    34   119   118    1
    35   120   121    1
    36   140   130   am
    37   165   166    2
    38   165   164    1
    39   103   105    1
    40   103   104    1
    41   149   150    1
    42   149   152    1
    43    94    92   ar
    44   111   113    1
    45   153   152    1
    46    10     9    1
    47    90    89    2
    48    92    91    1
    49   128   129    1
    50   121   124    1
    51   167   164    1
    52   167   168    1
    53   150   151    2
    54   150   155   am
    55    14    12    1
    56   157   158    2
    57   157   156    1
    58   130   131    2
    59   130   129    1
    60   164   163    1
    61   155   156    1
    62    89    88    1
    63   170   168   ar
    64   170   172   ar
    65   124   126    1
    66   124   125    1
    67   129   132    1
    68   156   159    1
    69   168   169   ar
    70     9    12    1
    71     9     8    1
    72   162   161    1
    73   159   160    1
    74    12    13    1
    75    91    88    1
    76    88    87    1
    77   172   173   ar
    78   132   133    1
    79   125   127    1
    80   160   161    1
    81   169   171   ar
    82     7     5    1
    83    13    15    1
    84   133   135   ar
    85   133   134   ar
    86   135   137   ar
    87    82    81    2
    88     4     3    2
    89   173   171   ar
    90   173   174    1
    91    87    81   am
    92   134   136   ar
    93   194   195   ar
    94   194   192   ar
    95   137   138   ar
    96   195   193   ar
    97    81    80    1
    98   136   138   ar
    99     3     2    1
   100   138   139    1
   101     5     6    1
   102     5     2    1
   103   192   191   ar
   104   183   185   ar
   105   183   181   ar
   106   185   184   ar
   107   193   191   ar
   108     2     1    1
   109    76    75    2
   110    85    83    1
   111   191   190    1
   112    80    83    1
   113    80    79    1
   114   212   213    1
   115   212   211    1
   116   181   180   ar
   117    75    74    1
   118    84    83    1
   119    84    86    1
   120    71    69   ar
   121    71    72   ar
   122   184   182   ar
   123   211   210    1
   124   190   187    1
   125    69    67   ar
   126    77    74    1
   127    77    78    1
   128    23    21    1
   129    72    70   ar
   130    31    30    1
   131    74    73    1
   132   222   223   ar
   133   222   220   ar
   134   180   182   ar
   135   180   179    1
   136    22    21    1
   137    21    20    1
   138   225   223   ar
   139   225   227   ar
   140   187   186    1
   141   187   188    1
   142    65    64    2
   143    30    29    1
   144   223   221   ar
   145   210   207    1
   146    67    66    1
   147    67    68   ar
   148   220   219   ar
   149   175   176    1
   150   189   188    2
   151    70    68   ar
   152   207   206    1
   153   207   208    1
   154   227   226   ar
   155   176   179    1
   156   176   177    1
   157   188   196   am
   158    66    63    1
   159    64    63    1
   160    16    17    1
   161    20    17    1
   162    63    62    1
   163    17    18    1
   164   221   219   ar
   165   221   224   ar
   166   209   208    2
   167   219   218    1
   168   196   197    1
   169   178   177    2
   170    29    28    1
   171   226   224   ar
   172   214   215    1
   173    57    56    2
   174    28    25    1
   175    62    56   am
   176   215   218    1
   177   215   216    1
   178   197   198    1
   179   197   200    1
   180    18    19    2
   181    45    46   ar
   182    45    43   ar
   183   199   198    2
   184    56    55    1
   185    46    44   ar
   186    60    59    1
   187    60    61    1
   188    59    58    1
   189    25    24    1
   190    25    26    1
   191   216   217    2
   192   200   201    1
   193    43    42   ar
   194    52    51    1
   195    50    49    2
   196    55    58    1
   197    55    54    1
   198   202   201   ar
   199   202   204   ar
   200    26    32   am
   201    26    27    2
   202    44    42   ar
   203    32    33    1
   204   201   203   ar
   205    42    41    1
   206    49    48    1
   207    51    48    1
   208    51    53    1
   209   204   205   ar
   210    33    36    1
   211    33    34    1
   212    48    47    1
   213   203   205   ar
   214   238   237   ar
   215   238   236   ar
   216    41    38    1
   217   237   235   ar
   218   236   234   ar
   219   252   251   ar
   220   252   250   ar
   221    34    35    2
   222    37    38    1
   223   251   249   ar
   224    38    39    1
   225   235   233   ar
   226   250   248   ar
   227   234   233   ar
   228   233   232    1
   229   249   246   ar
   230   248   246   ar
   231   248   247   ar
   232    39    40    2
   233   228   229    1
   234   246   244   ar
   235   229   232    1
   236   229   230    1
   237   247   245   ar
   238   244   245   ar
   239   244   243    1
   240   230   231    2
   241   243   240    1
   242   242   241    2
   243   240   241    1
   244   240   239    1
