@<TRIPOS>MOLECULE
tmp/5yxcB00.pdb
 133 131 0 0 0
SMALL
GASTEIGER

@<TRIPOS>ATOM
      1  N         -4.3550    9.5940   44.9980 N.3    48  VAL48      -0.1245
      2  CA        -5.7400    9.5790   45.4820 C.3    48  VAL48       0.1561
      3  C         -6.6200   10.4540   44.6080 C.2    48  VAL48       0.2260
      4  O         -7.7250   10.0620   44.2490 O.2    48  VAL48      -0.2867
      5  CB        -5.8340   10.0600   46.9590 C.3    48  VAL48       0.0252
      6  CG1       -7.2900   10.2120   47.4100 C.3    48  VAL48       0.0019
      7  CG2       -5.1060    9.1250   47.8870 C.3    48  VAL48       0.0019
      8  N         -9.7200    9.4650   42.0770 N.3    52  LYS52      -0.1245
      9  CA       -11.0590   10.0730   42.1650 C.3    52  LYS52       0.1561
     10  C        -11.4610   10.7580   40.8490 C.2    52  LYS52       0.2260
     11  O        -12.6080   10.6390   40.3970 O.2    52  LYS52      -0.2867
     12  CB       -11.1420   11.1010   43.3050 C.3    52  LYS52       0.0271
     13  CG       -11.0630   10.5170   44.6910 C.3    52  LYS52       0.0035
     14  CD       -11.1240   11.6060   45.7210 C.3    52  LYS52       0.0206
     15  CE       -11.1000   11.0370   47.1270 C.3    52  LYS52       0.1093
     16  NZ       -12.3790   10.3910   47.4870 N.3    52  LYS52      -0.1314
     17  N        -10.9410   21.0370   45.7600 N.3    67  TYR67      -0.1227
     18  CA       -11.9230   20.6570   46.7560 C.3    67  TYR67       0.1736
     19  C        -11.2660   20.1470   48.0300 C.2    67  TYR67       0.2595
     20  O        -11.6150   20.5670   49.1220 O.2    67  TYR67      -0.2718
     21  CB       -12.8370   19.5870   46.1740 C.3    67  TYR67       0.0548
     22  CG       -13.8820   19.0440   47.0990 C.ar   67  TYR67      -0.0200
     23  CD1      -15.0390   19.7400   47.3420 C.ar   67  TYR67      -0.0009
     24  CD2      -13.7230   17.8060   47.6830 C.ar   67  TYR67      -0.0009
     25  CE1      -15.9980   19.2240   48.1640 C.ar   67  TYR67       0.0417
     26  CE2      -14.6800   17.2760   48.4900 C.ar   67  TYR67       0.0417
     27  CZ       -15.8130   17.9880   48.7290 C.ar   67  TYR67       0.1957
     28  OH       -16.7660   17.4590   49.5540 O.3    67  TYR67      -0.2866
     29  N        -10.2760   19.2790   47.8840 N.am   68  TYR68      -0.1976
     30  CA        -9.6540   18.6980   49.0630 C.3    68  TYR68       0.1639
     31  C         -8.6270   19.6430   49.6230 C.2    68  TYR68       0.2290
     32  O         -8.3290   19.5490   50.7910 O.2    68  TYR68      -0.2864
     33  CB        -9.0260   17.3290   48.7690 C.3    68  TYR68       0.0560
     34  CG       -10.0730   16.2610   48.6360 C.ar   68  TYR68      -0.0198
     35  CD1      -10.7370   15.7790   49.7480 C.ar   68  TYR68      -0.0009
     36  CD2      -10.4370   15.7530   47.3890 C.ar   68  TYR68      -0.0009
     37  CE1      -11.7280   14.8270   49.6330 C.ar   68  TYR68       0.0417
     38  CE2      -11.4500   14.7940   47.2690 C.ar   68  TYR68       0.0417
     39  CZ       -12.0810   14.3350   48.4090 C.ar   68  TYR68       0.1957
     40  OH       -13.1020   13.4050   48.3300 O.3    68  TYR68      -0.2866
     41  N         -8.9000   20.2900   53.4810 N.3    72  TYR72      -0.1241
     42  CA        -7.9350   19.8290   54.4650 C.3    72  TYR72       0.1605
     43  C         -7.0900   20.9270   55.1190 C.2    72  TYR72       0.2264
     44  O         -6.4420   20.6830   56.1480 O.2    72  TYR72      -0.2867
     45  CB        -7.0020   18.8330   53.8240 C.3    72  TYR72       0.0534
     46  CG        -7.6410   17.5190   53.3930 C.ar   72  TYR72      -0.0201
     47  CD1       -8.7400   16.9930   54.0580 C.ar   72  TYR72      -0.0009
     48  CD2       -7.1170   16.8020   52.3320 C.ar   72  TYR72      -0.0009
     49  CE1       -9.2780   15.8080   53.6820 C.ar   72  TYR72       0.0417
     50  CE2       -7.6370   15.6120   51.9600 C.ar   72  TYR72       0.0417
     51  CZ        -8.7330   15.1180   52.6210 C.ar   72  TYR72       0.1957
     52  OH        -9.2980   13.9280   52.2360 O.3    72  TYR72      -0.2866
     53  N        -18.6360   10.2690   59.9890 N.3   138  HIS138     -0.1241
     54  CA       -19.3530    9.2760   59.2060 C.3   138  HIS138      0.1621
     55  C        -19.9220    8.1940   60.1090 C.2   138  HIS138      0.2264
     56  O        -20.2460    7.1120   59.6450 O.2   138  HIS138     -0.2867
     57  CB       -18.4310    8.6690   58.1390 C.3   138  HIS138      0.0745
     58  CG       -17.5950    9.6900   57.4220 C.ar  138  HIS138      0.0817
     59  ND1      -18.1420   10.6720   56.6270 N.ar  138  HIS138     -0.2268
     60  CD2      -16.2510    9.8870   57.4020 C.ar  138  HIS138      0.1154
     61  CE1      -17.1700   11.4440   56.1540 C.ar  138  HIS138      0.1986
     62  NE2      -16.0160   10.9850   56.6120 N.ar  138  HIS138     -0.2212
     63  N        -11.0760    8.1050   61.4590 N.3   147  HIS147     -0.1241
     64  CA       -10.5530    9.4100   61.0550 C.3   147  HIS147      0.1621
     65  C        -11.6890   10.3610   61.3740 C.2   147  HIS147      0.2264
     66  O        -12.8460    9.9440   61.4300 O.2   147  HIS147     -0.2867
     67  CB       -10.1570    9.4690   59.5750 C.3   147  HIS147      0.0745
     68  CG       -11.3110    9.5900   58.6140 C.ar  147  HIS147      0.0817
     69  ND1      -11.8860    8.4990   57.9910 N.ar  147  HIS147     -0.2268
     70  CD2      -11.9500   10.6760   58.1250 C.ar  147  HIS147      0.1154
     71  CE1      -12.8610    8.9090   57.1970 C.ar  147  HIS147      0.1986
     72  NE2      -12.8930   10.2270   57.2240 N.ar  147  HIS147     -0.2212
     73  N        -13.2380   14.6360   61.0160 N.3   149  HIS149     -0.1241
     74  CA       -13.2560   15.9930   60.5070 C.3   149  HIS149      0.1621
     75  C        -13.6610   16.8540   61.6770 C.2   149  HIS149      0.2264
     76  O        -14.5710   16.4900   62.4100 O.2   149  HIS149     -0.2867
     77  CB       -14.2410   16.1180   59.3400 C.3   149  HIS149      0.0745
     78  CG       -13.9620   15.1230   58.2580 C.ar  149  HIS149      0.0817
     79  ND1      -12.9770   15.3170   57.3180 N.ar  149  HIS149     -0.2268
     80  CD2      -14.4830   13.8950   58.0090 C.ar  149  HIS149      0.1154
     81  CE1      -12.9010   14.2540   56.5360 C.ar  149  HIS149      0.1986
     82  NE2      -13.8010   13.3720   56.9360 N.ar  149  HIS149     -0.2212
     83  N        -12.7470   21.4370   56.3660 N.3   167  TRP167     -0.1241
     84  CA       -13.0300   20.3500   57.3280 C.3   167  TRP167      0.1605
     85  C        -11.7300   19.5980   57.6300 C.2   167  TRP167      0.2264
     86  O        -11.5230   18.4920   57.1450 O.2   167  TRP167     -0.2867
     87  CB       -14.1100   19.4020   56.7970 C.3   167  TRP167      0.0550
     88  CG       -14.4370   19.5570   55.3510 C.ar  167  TRP167      0.0003
     89  CD1      -15.3780   20.3760   54.8050 C.ar  167  TRP167      0.0946
     90  CD2      -13.8200   18.8660   54.2510 C.ar  167  TRP167      0.0152
     91  NE1      -15.3920   20.2350   53.4380 N.ar  167  TRP167     -0.2442
     92  CE2      -14.4510   19.3090   53.0720 C.ar  167  TRP167      0.0810
     93  CE3      -12.8080   17.9110   54.1560 C.ar  167  TRP167      0.0012
     94  CZ2      -14.0870   18.8440   51.8160 C.ar  167  TRP167      0.0191
     95  CZ3      -12.4440   17.4420   52.9050 C.ar  167  TRP167      0.0001
     96  CH2      -13.0850   17.9100   51.7460 C.ar  167  TRP167      0.0015
     97  N         -8.9090   17.3230   58.6500 N.3   169  THR169     -0.1218
     98  CA        -9.0870   15.8870   58.6760 C.3   169  THR169      0.1862
     99  C         -7.8920   15.1990   59.3350 C.2   169  THR169      0.2287
    100  O         -6.7340   15.5090   59.0500 O.2   169  THR169     -0.2866
    101  CB        -9.2960   15.3680   57.2330 C.3   169  THR169      0.1770
    102  OG1      -10.4790   15.9840   56.7030 O.3   169  THR169     -0.2211
    103  CG2       -9.4790   13.8780   57.2180 C.3   169  THR169      0.0375
    104  N         -6.1050   11.5590   60.9440 N.3   171  TYR171     -0.1241
    105  CA        -5.9050   10.1170   61.0210 C.3   171  TYR171      0.1605
    106  C         -4.9960    9.8200   62.2100 C.2   171  TYR171      0.2264
    107  O         -4.2940   10.7140   62.6780 O.2   171  TYR171     -0.2867
    108  CB        -5.2630    9.5960   59.7410 C.3   171  TYR171      0.0534
    109  CG        -6.2790    9.2810   58.6740 C.ar  171  TYR171     -0.0201
    110  CD1       -6.9100   10.2910   57.9650 C.ar  171  TYR171     -0.0009
    111  CD2       -6.6250    7.9670   58.3940 C.ar  171  TYR171     -0.0009
    112  CE1       -7.8380    9.9900   56.9780 C.ar  171  TYR171      0.0417
    113  CE2       -7.5460    7.6650   57.4240 C.ar  171  TYR171      0.0417
    114  CZ        -8.1560    8.6730   56.7250 C.ar  171  TYR171      0.1957
    115  OH        -9.0920    8.3290   55.7500 O.3   171  TYR171     -0.2866
    116  N         -6.7710    6.1670   52.3060 N.3   184  MET184     -0.1245
    117  CA        -7.5140    7.1650   51.5560 C.3   184  MET184      0.1570
    118  C         -7.7770    6.6640   50.1310 C.2   184  MET184      0.2261
    119  O         -8.7430    7.0980   49.4960 O.2   184  MET184     -0.2867
    120  CB        -6.7670    8.5080   51.5350 C.3   184  MET184      0.0387
    121  CG        -6.6800    9.1980   52.9050 C.3   184  MET184      0.0595
    122  SD        -5.7220   10.7680   52.9660 S.3   184  MET184     -0.1393
    123  CE        -6.9560   11.9550   52.4620 C.3   184  MET184      0.0692
    124  N        -11.2330    4.9960   49.9440 N.3   187  HIS187     -0.1241
    125  CA       -12.4260    5.7740   50.2820 C.3   187  HIS187      0.1621
    126  C        -13.0720    6.4440   49.0600 C.2   187  HIS187      0.2264
    127  O        -14.1930    6.9600   49.1460 O.2   187  HIS187     -0.2867
    128  CB       -12.0780    6.8240   51.3380 C.3   187  HIS187      0.0745
    129  CG       -11.6930    6.2290   52.6510 C.ar  187  HIS187      0.0817
    130  ND1      -11.0120    6.9290   53.6250 N.ar  187  HIS187     -0.2268
    131  CD2      -11.8950    4.9880   53.1490 C.ar  187  HIS187      0.1154
    132  CE1      -10.8020    6.1370   54.6640 C.ar  187  HIS187      0.1986
    133  NE2      -11.3320    4.9560   54.4020 N.ar  187  HIS187     -0.2212
@<TRIPOS>BOND
     1    11    10    2
     2    10     9    1
     3     8     9    1
     4     9    12    1
     5    12    13    1
     6     4     3    2
     7     3     2    1
     8    13    14    1
     9     1     2    1
    10     2     5    1
    11    14    15    1
    12    17    18    1
    13    21    18    1
    14    21    22    1
    15    18    19    1
    16     5     6    1
    17     5     7    1
    18    22    23   ar
    19    22    24   ar
    20    15    16    1
    21    38    36   ar
    22    38    39   ar
    23    23    25   ar
    24    36    34   ar
    25    24    26   ar
    26    29    19   am
    27    29    30    1
    28    19    20    2
    29    25    27   ar
    30    40    39    1
    31    39    37   ar
    32    26    27   ar
    33    34    33    1
    34    34    35   ar
    35    27    28    1
    36    33    30    1
    37   126   127    2
    38   126   125    1
    39    30    31    1
    40   119   118    2
    41    31    32    2
    42    37    35   ar
    43   124   125    1
    44   118   117    1
    45   125   128    1
    46   128   129    1
    47   120   117    1
    48   120   121    1
    49   117   116    1
    50    96    94   ar
    51    96    95   ar
    52    94    92   ar
    53    50    48   ar
    54    50    51   ar
    55    52    51    1
    56    48    46   ar
    57   123   122    1
    58    51    49   ar
    59   129   131   ar
    60   129   130   ar
    61   121   122    1
    62    95    93   ar
    63    92    91   ar
    64    92    90   ar
    65   131   133   ar
    66    46    45    1
    67    46    47   ar
    68    91    89   ar
    69    41    42    1
    70   130   132   ar
    71    49    47   ar
    72    45    42    1
    73    93    90   ar
    74    90    88   ar
    75   133   132   ar
    76    42    43    1
    77    89    88   ar
    78    43    44    2
    79    88    87    1
    80   115   114    1
    81    61    62   ar
    82    61    59   ar
    83    83    84    1
    84    81    82   ar
    85    81    79   ar
    86    62    60   ar
    87    59    58   ar
    88   102   101    1
    89   114   112   ar
    90   114   113   ar
    91    87    84    1
    92    82    80   ar
    93   112   110   ar
    94    86    85    2
    95    71    72   ar
    96    71    69   ar
    97   103   101    1
    98    72    70   ar
    99   101    98    1
   100    79    78   ar
   101    84    85    1
   102    60    58   ar
   103    58    57    1
   104   113   111   ar
   105   110   109   ar
   106    69    68   ar
   107    80    78   ar
   108    70    68   ar
   109    57    54    1
   110    78    77    1
   111   111   109   ar
   112    68    67    1
   113    97    98    1
   114   109   108    1
   115    98    99    1
   116   100    99    2
   117    54    53    1
   118    54    55    1
   119    77    74    1
   120    67    64    1
   121    56    55    2
   122   108   105    1
   123    74    73    1
   124    74    75    1
   125   104   105    1
   126   105   106    1
   127    64    65    1
   128    64    63    1
   129    65    66    2
   130    75    76    2
   131   106   107    2
