@<TRIPOS>MOLECULE
tmp/5yxdA01.pdb
 194 188 0 0 0
SMALL
GASTEIGER

@<TRIPOS>ATOM
      1  N          7.8330    8.8130  -22.9830 N.3    41  PHE41      -0.1241
      2  CA         6.9470    8.7470  -21.8310 C.3    41  PHE41       0.1605
      3  C          7.4970    7.7980  -20.7490 C.2    41  PHE41       0.2264
      4  O          7.5870    8.1740  -19.6140 O.2    41  PHE41      -0.2867
      5  CB         5.5490    8.2940  -22.2430 C.3    41  PHE41       0.0534
      6  CG         4.6010    8.2860  -21.1110 C.ar   41  PHE41      -0.0203
      7  CD1        3.8660    9.4130  -20.8070 C.ar   41  PHE41      -0.0042
      8  CD2        4.5120    7.1720  -20.2740 C.ar   41  PHE41      -0.0042
      9  CE1        3.0180    9.4220  -19.7160 C.ar   41  PHE41      -0.0003
     10  CE2        3.6520    7.1640  -19.1850 C.ar   41  PHE41      -0.0003
     11  CZ         2.9170    8.2980  -18.9050 C.ar   41  PHE41      -0.0000
     12  N         10.0510    9.5010  -18.6610 N.3    44  LEU44      -0.1231
     13  CA         9.4790   10.5060  -17.7770 C.3    44  LEU44       0.1693
     14  C          8.8500    9.8910  -16.5240 C.2    44  LEU44       0.2592
     15  O          8.9090   10.4640  -15.4430 O.2    44  LEU44      -0.2718
     16  CB         8.4470   11.3460  -18.5270 C.3    44  LEU44       0.0284
     17  CG         8.7950   12.1010  -19.8380 C.3    44  LEU44       0.0019
     18  CD1        7.5770   12.9090  -20.3220 C.3    44  LEU44       0.0001
     19  CD2       10.0100   13.0210  -19.7930 C.3    44  LEU44       0.0001
     20  N          8.2580    8.7200  -16.6650 N.am   45  THR45      -0.1953
     21  CA         7.7280    8.0200  -15.5360 C.3    45  THR45       0.1897
     22  C          8.8320    7.6170  -14.5580 C.2    45  THR45       0.2313
     23  O          8.6540    7.7500  -13.3300 O.2    45  THR45      -0.2863
     24  CB         6.9600    6.7560  -15.9560 C.3    45  THR45       0.1794
     25  OG1        7.7770    5.9080  -16.7770 O.3    45  THR45      -0.2208
     26  CG2        5.7350    7.1350  -16.7210 C.3    45  THR45       0.0378
     27  N         10.0080   10.6610  -12.6600 N.3    48  ALA48      -0.1245
     28  CA         9.0150   11.1210  -11.7000 C.3    48  ALA48       0.1562
     29  C          9.0180   10.2440  -10.4310 C.2    48  ALA48       0.2260
     30  O          8.9300   10.7440   -9.3050 O.2    48  ALA48      -0.2867
     31  CB         7.6550   11.1570  -12.3730 C.3    48  ALA48       0.0290
     32  N         11.9610   11.2030   -8.3920 N.3    51  HIS51      -0.1241
     33  CA        11.7170   12.4000   -7.6150 C.3    51  HIS51       0.1621
     34  C         10.9300   12.1050   -6.3730 C.2    51  HIS51       0.2264
     35  O         11.2050   12.6520   -5.3270 O.2    51  HIS51      -0.2867
     36  CB        10.9710   13.4610   -8.4320 C.3    51  HIS51       0.0745
     37  CG        11.7600   14.0230   -9.5930 C.ar   51  HIS51       0.0817
     38  ND1       11.1760   14.3410  -10.8090 N.ar   51  HIS51      -0.2268
     39  CD2       13.0780   14.3080   -9.7210 C.ar   51  HIS51       0.1154
     40  CE1       12.0960   14.8000  -11.6290 C.ar   51  HIS51       0.1986
     41  NE2       13.2570   14.7870  -10.9950 N.ar   51  HIS51      -0.2212
     42  N          3.3340   17.1680   -5.8010 N.3    82  VAL82      -0.1245
     43  CA         3.3530   17.6850   -7.1460 C.3    82  VAL82       0.1561
     44  C          4.1970   18.9230   -7.2580 C.2    82  VAL82       0.2260
     45  O          4.9250   19.1070   -8.2540 O.2    82  VAL82      -0.2867
     46  CB         1.9340   18.0140   -7.5940 C.3    82  VAL82       0.0252
     47  CG1        1.9340   18.9650   -8.7890 C.3    82  VAL82       0.0019
     48  CG2        1.2050   16.7200   -7.9140 C.3    82  VAL82       0.0019
     49  N          7.9060   18.0440   -6.9620 N.3    85  MET85      -0.1230
     50  CA         8.3900   17.5060   -8.2270 C.3    85  MET85       0.1702
     51  C          8.6310   18.5320   -9.3180 C.2    85  MET85       0.2592
     52  O          9.5880   18.3970  -10.0450 O.2    85  MET85      -0.2718
     53  CB         7.4350   16.4620   -8.7720 C.3    85  MET85       0.0401
     54  CG         7.5630   15.1170   -8.1010 C.3    85  MET85       0.0596
     55  SD         6.1810   14.0580   -8.5570 S.3    85  MET85      -0.1393
     56  CE         5.7270   13.5420   -6.9230 C.3    85  MET85       0.0692
     57  N          7.7470   19.5120   -9.4810 N.am   86  PHE86      -0.1976
     58  CA         7.9630   20.5590  -10.4980 C.3    86  PHE86       0.1639
     59  C          9.1760   21.3950  -10.1720 C.2    86  PHE86       0.2290
     60  O          9.9500   21.7620  -11.0540 O.2    86  PHE86      -0.2864
     61  CB         6.7150   21.4170  -10.7050 C.3    86  PHE86       0.0560
     62  CG         5.8520   20.9030  -11.8110 C.ar   86  PHE86      -0.0200
     63  CD1        6.1820   21.1670  -13.1320 C.ar   86  PHE86      -0.0042
     64  CD2        4.7550   20.0700  -11.5470 C.ar   86  PHE86      -0.0042
     65  CE1        5.4150   20.6340  -14.1680 C.ar   86  PHE86      -0.0003
     66  CE2        3.9790   19.5350  -12.5820 C.ar   86  PHE86      -0.0003
     67  CZ         4.3130   19.8120  -13.8930 C.ar   86  PHE86      -0.0000
     68  N         12.4510   18.9450  -10.6920 N.3    89  SER89      -0.1217
     69  CA        12.4950   18.9610  -12.1340 C.3    89  SER89       0.1889
     70  C         13.1200   20.2030  -12.7150 C.2    89  SER89       0.2288
     71  O         13.9020   20.1390  -13.6460 O.2    89  SER89      -0.2866
     72  CB        11.0660   18.8790  -12.6590 C.3    89  SER89       0.2089
     73  OG        10.9630   19.4830  -13.9360 O.3    89  SER89      -0.2183
     74  N         10.4420   15.3120  -24.0510 N.3   109  ILE109     -0.1245
     75  CA         9.2540   15.8200  -23.3620 C.3   109  ILE109      0.1561
     76  C          8.1940   16.2530  -24.3500 C.2   109  ILE109      0.2260
     77  O          7.0410   15.9140  -24.1840 O.2   109  ILE109     -0.2867
     78  CB         9.6070   16.9900  -22.4230 C.3   109  ILE109      0.0252
     79  CG1       10.1170   16.4300  -21.0860 C.3   109  ILE109      0.0019
     80  CG2        8.4020   17.8720  -22.1680 C.3   109  ILE109      0.0019
     81  CD1       10.7360   17.4610  -20.1530 C.3   109  ILE109      0.0001
     82  N          2.0830   13.8310  -24.7240 N.3   114  ILE114     -0.1245
     83  CA         1.4900   14.8110  -23.8060 C.3   114  ILE114      0.1561
     84  C          1.2260   16.0550  -24.6430 C.2   114  ILE114      0.2260
     85  O          1.8820   16.2630  -25.6610 O.2   114  ILE114     -0.2867
     86  CB         2.4480   15.1730  -22.6250 C.3   114  ILE114      0.0252
     87  CG1        2.9270   13.9340  -21.8320 C.3   114  ILE114      0.0019
     88  CG2        1.8170   16.1760  -21.6570 C.3   114  ILE114      0.0019
     89  CD1        1.8530   13.1490  -21.1190 C.3   114  ILE114      0.0001
     90  N         -0.2340   21.5930  -21.3940 N.3   118  TYR118     -0.1227
     91  CA         0.6120   21.2590  -20.2200 C.3   118  TYR118      0.1736
     92  C          2.1240   21.5110  -20.4040 C.2   118  TYR118      0.2595
     93  O          2.7440   22.1650  -19.5640 O.2   118  TYR118     -0.2718
     94  CB         0.3950   19.8080  -19.8530 C.3   118  TYR118      0.0548
     95  CG        -1.0630   19.4660  -19.7640 C.ar  118  TYR118     -0.0200
     96  CD1       -1.8880   20.1300  -18.8680 C.ar  118  TYR118     -0.0009
     97  CD2       -1.6190   18.4940  -20.5780 C.ar  118  TYR118     -0.0009
     98  CE1       -3.2340   19.8310  -18.7820 C.ar  118  TYR118      0.0417
     99  CE2       -2.9560   18.1840  -20.5020 C.ar  118  TYR118      0.0417
    100  CZ        -3.7750   18.8560  -19.6060 C.ar  118  TYR118      0.1957
    101  OH        -5.1280   18.5370  -19.5300 O.3   118  TYR118     -0.2866
    102  N          2.6890   21.0080  -21.5040 N.am  119  ILE119     -0.1980
    103  CA         4.1050   21.1970  -21.8180 C.3   119  ILE119      0.1595
    104  C          4.5440   22.6840  -21.7600 C.2   119  ILE119      0.2287
    105  O          5.5980   22.9990  -21.1880 O.2   119  ILE119     -0.2864
    106  CB         4.4430   20.6660  -23.2150 C.3   119  ILE119      0.0276
    107  CG1        4.1450   19.1660  -23.3780 C.3   119  ILE119      0.0022
    108  CG2        5.8970   20.9120  -23.5330 C.3   119  ILE119      0.0022
    109  CD1        4.7510   18.2320  -22.3600 C.3   119  ILE119      0.0001
    110  N          4.9260   24.3660  -18.2830 N.3   122  MET122     -0.1245
    111  CA         6.0190   23.7660  -17.5870 C.3   122  MET122      0.1570
    112  C          7.2660   24.5210  -17.9870 C.2   122  MET122      0.2261
    113  O          7.8870   25.1760  -17.1480 O.2   122  MET122     -0.2867
    114  CB         6.1180   22.2940  -17.9170 C.3   122  MET122      0.0387
    115  CG         7.2910   21.6030  -17.2400 C.3   122  MET122      0.0595
    116  SD         7.2880   19.8000  -17.4990 S.3   122  MET122     -0.1393
    117  CE         7.8380   19.7290  -19.2180 C.3   122  MET122      0.0692
    118  N         10.0670   26.9000  -15.9060 N.3   126  TYR126     -0.1241
    119  CA        11.4940   26.6520  -15.9140 C.3   126  TYR126      0.1605
    120  C         12.2700   27.8950  -16.2020 C.2   126  TYR126      0.2264
    121  O         13.0600   28.3350  -15.3870 O.2   126  TYR126     -0.2867
    122  CB        11.8440   25.5790  -16.9370 C.3   126  TYR126      0.0534
    123  CG        11.4250   24.1590  -16.5490 C.ar  126  TYR126     -0.0201
    124  CD1       10.7860   23.8700  -15.3300 C.ar  126  TYR126     -0.0009
    125  CD2       11.7190   23.0910  -17.3930 C.ar  126  TYR126     -0.0009
    126  CE1       10.4390   22.5780  -14.9920 C.ar  126  TYR126      0.0417
    127  CE2       11.3980   21.7900  -17.0470 C.ar  126  TYR126      0.0417
    128  CZ        10.7540   21.5450  -15.8460 C.ar  126  TYR126      0.1957
    129  OH        10.4110   20.2630  -15.5040 O.3   126  TYR126     -0.2866
    130  N         -1.7300   19.1890  -13.0670 N.3   204  HIS204     -0.1241
    131  CA        -1.5380   17.7900  -12.7700 C.3   204  HIS204      0.1621
    132  C         -2.8560   17.0230  -12.7050 C.2   204  HIS204      0.2264
    133  O         -2.9890   15.9630  -13.2980 O.2   204  HIS204     -0.2867
    134  CB        -0.7650   17.6660  -11.4480 C.3   204  HIS204      0.0745
    135  CG        -0.7730   16.2910  -10.8520 C.ar  204  HIS204      0.0817
    136  ND1        0.1360   15.3250  -11.2160 N.ar  204  HIS204     -0.2268
    137  CD2       -1.5860   15.7240   -9.9230 C.ar  204  HIS204      0.1154
    138  CE1       -0.1070   14.2260  -10.5290 C.ar  204  HIS204      0.1986
    139  NE2       -1.1540   14.4380   -9.7460 N.ar  204  HIS204     -0.2212
    140  N         -4.3360   16.7400  -16.0790 N.3   207  MET207     -0.1230
    141  CA        -3.4470   15.9000  -16.8740 C.3   207  MET207      0.1702
    142  C         -3.5000   14.4230  -16.5960 C.2   207  MET207      0.2592
    143  O         -3.2100   13.6520  -17.4540 O.2   207  MET207     -0.2718
    144  CB        -2.0480   16.3740  -16.6460 C.3   207  MET207      0.0401
    145  CG        -0.9990   15.7020  -17.4620 C.3   207  MET207      0.0596
    146  SD         0.4090   16.8110  -17.3600 S.3   207  MET207     -0.1393
    147  CE         1.5430   15.7130  -18.2270 C.3   207  MET207      0.0692
    148  N         -3.8440   14.0300  -15.3990 N.am  208  LEU208     -0.1980
    149  CA        -4.1060   12.6360  -15.1370 C.3   208  LEU208      0.1596
    150  C         -5.2870   12.1340  -15.9310 C.2   208  LEU208      0.2287
    151  O         -5.2870   10.9850  -16.3470 O.2   208  LEU208     -0.2864
    152  CB        -4.3750   12.3660  -13.6410 C.3   208  LEU208      0.0297
    153  CG        -3.1810   12.4190  -12.6950 C.3   208  LEU208      0.0022
    154  CD1       -3.6000   11.9110  -11.3280 C.3   208  LEU208      0.0001
    155  CD2       -1.9920   11.6240  -13.2250 C.3   208  LEU208      0.0001
    156  N         -4.3860   11.9180  -20.0010 N.3   211  TRP211     -0.1241
    157  CA        -3.4940   10.8440  -20.3630 C.3   211  TRP211      0.1605
    158  C         -3.8850    9.4470  -19.8590 C.2   211  TRP211      0.2264
    159  O         -3.3550    8.4740  -20.3810 O.2   211  TRP211     -0.2867
    160  CB        -2.0910   11.1820  -19.9130 C.3   211  TRP211      0.0550
    161  CG        -1.2180   10.0240  -19.9090 C.ar  211  TRP211      0.0003
    162  CD1       -0.7930    9.3520  -18.8070 C.ar  211  TRP211      0.0946
    163  CD2       -0.6690    9.3310  -21.0570 C.ar  211  TRP211      0.0152
    164  NE1        0.0150    8.3020  -19.1810 N.ar  211  TRP211     -0.2442
    165  CE2        0.1200    8.2680  -20.5530 C.ar  211  TRP211      0.0810
    166  CE3       -0.7540    9.5130  -22.4540 C.ar  211  TRP211      0.0012
    167  CZ2        0.8360    7.3750  -21.4060 C.ar  211  TRP211      0.0191
    168  CZ3       -0.0410    8.6300  -23.3000 C.ar  211  TRP211      0.0001
    169  CH2        0.7360    7.5700  -22.7670 C.ar  211  TRP211      0.0015
    170  N          0.6110    3.4070  -13.7060 N.3   218  PHE218     -0.1241
    171  CA         1.9080    3.8480  -13.2340 C.3   218  PHE218      0.1605
    172  C          2.4760    2.9460  -12.1320 C.2   218  PHE218      0.2264
    173  O          1.7160    2.2440  -11.4530 O.2   218  PHE218     -0.2867
    174  CB         1.7610    5.2610  -12.6790 C.3   218  PHE218      0.0534
    175  CG         1.3670    6.3050  -13.7000 C.ar  218  PHE218     -0.0203
    176  CD1        0.0390    6.5600  -13.9820 C.ar  218  PHE218     -0.0042
    177  CD2        2.3410    7.0830  -14.3360 C.ar  218  PHE218     -0.0042
    178  CE1       -0.3120    7.5570  -14.8920 C.ar  218  PHE218     -0.0003
    179  CE2        2.0000    8.0680  -15.2470 C.ar  218  PHE218     -0.0003
    180  CZ         0.6700    8.3080  -15.5210 C.ar  218  PHE218     -0.0000
    181  N          0.2960    9.9730   -5.8710 N.3   226  TRP226     -0.1241
    182  CA        -0.6720   10.7950   -6.5840 C.3   226  TRP226      0.1605
    183  C         -2.0950   10.3730   -6.2930 C.2   226  TRP226      0.2264
    184  O         -3.0380   11.0450   -6.6510 O.2   226  TRP226     -0.2867
    185  CB        -0.3760   10.7680   -8.0900 C.3   226  TRP226      0.0550
    186  CG         0.8830   11.5230   -8.4880 C.ar  226  TRP226      0.0003
    187  CD1        1.5550   12.4720   -7.7540 C.ar  226  TRP226      0.0946
    188  CD2        1.5790   11.4240   -9.7310 C.ar  226  TRP226      0.0152
    189  NE1        2.6080   12.9560   -8.4660 N.ar  226  TRP226     -0.2442
    190  CE2        2.6500   12.3290   -9.6850 C.ar  226  TRP226      0.0810
    191  CE3        1.3950   10.6580  -10.8920 C.ar  226  TRP226      0.0012
    192  CZ2        3.5400   12.4880  -10.7560 C.ar  226  TRP226      0.0191
    193  CZ3        2.2740   10.8180  -11.9520 C.ar  226  TRP226      0.0001
    194  CH2        3.3360   11.7210  -11.8700 C.ar  226  TRP226      0.0015
@<TRIPOS>BOND
     1    85    84    2
     2    82    83    1
     3    84    83    1
     4    76    77    2
     5    76    75    1
     6    74    75    1
     7    83    86    1
     8   108   106    1
     9   107   106    1
    10   107   109    1
    11    75    78    1
    12   168   169   ar
    13   168   166   ar
    14   106   103    1
    15     1     2    1
    16   169   167   ar
    17    86    87    1
    18    86    88    1
    19   166   163   ar
    20    78    80    1
    21    78    79    1
    22     5     2    1
    23     5     6    1
    24    87    89    1
    25     2     3    1
    26   103   104    1
    27   103   102    1
    28   104   105    2
    29   102    92   am
    30   167   165   ar
    31    90    91    1
    32     6     7   ar
    33     6     8   ar
    34    79    81    1
    35   163   165   ar
    36   163   161   ar
    37     7     9   ar
    38     3     4    2
    39    97    99   ar
    40    97    95   ar
    41   165   164   ar
    42    99   100   ar
    43    92    91    1
    44    92    93    2
    45   159   158    2
    46   157   156    1
    47   157   160    1
    48   157   158    1
    49    18    17    1
    50     8    10   ar
    51    91    94    1
    52   160   161    1
    53   161   162   ar
    54    94    95    1
    55    17    19    1
    56    17    16    1
    57    95    96   ar
    58     9    11   ar
    59   100   101    1
    60   100    98   ar
    61   117   116    1
    62    10    11   ar
    63   164   162   ar
    64    96    98   ar
    65    12    13    1
    66    16    13    1
    67   110   111    1
    68   147   146    1
    69   112   111    1
    70   112   113    2
    71   114   111    1
    72   114   115    1
    73    13    14    1
    74   116   115    1
    75   145   146    1
    76   145   144    1
    77   143   142    2
    78   125   127   ar
    79   125   123   ar
    80   127   128   ar
    81   122   123    1
    82   122   119    1
    83   141   144    1
    84   141   142    1
    85   141   140    1
    86    25    24    1
    87    26    24    1
    88    20    14   am
    89    20    21    1
    90   142   148   am
    91   123   124   ar
    92    14    15    2
    93   151   150    2
    94   120   119    1
    95   120   121    2
    96    24    21    1
    97   150   149    1
    98   119   118    1
    99   128   129    1
   100   128   126   ar
   101    21    22    1
   102   180   179   ar
   103   180   178   ar
   104   148   149    1
   105   124   126   ar
   106   179   177   ar
   107   149   152    1
   108   178   176   ar
   109    22    23    2
   110   177   175   ar
   111    65    67   ar
   112    65    63   ar
   113   176   175   ar
   114    73    72    1
   115    67    66   ar
   116   170   171    1
   117   175   174    1
   118    71    70    2
   119   152   153    1
   120   133   132    2
   121   171   174    1
   122   171   172    1
   123   155   153    1
   124    63    62   ar
   125   130   131    1
   126   131   132    1
   127   131   134    1
   128    70    69    1
   129   153   154    1
   130    27    28    1
   131    72    69    1
   132    66    64   ar
   133    31    28    1
   134    69    68    1
   135   172   173    2
   136   193   194   ar
   137   193   191   ar
   138   194   192   ar
   139    62    64   ar
   140    62    61    1
   141    28    29    1
   142    40    41   ar
   143    40    38   ar
   144   134   135    1
   145   136   135   ar
   146   136   138   ar
   147    60    59    2
   148    41    39   ar
   149   191   188   ar
   150   135   137   ar
   151    38    37   ar
   152   192   190   ar
   153    61    58    1
   154   138   139   ar
   155    58    59    1
   156    58    57    1
   157    29    30    2
   158    52    51    2
   159   137   139   ar
   160   188   190   ar
   161   188   186   ar
   162    39    37   ar
   163   190   189   ar
   164    37    36    1
   165    57    51   am
   166    51    50    1
   167    47    46    1
   168    53    50    1
   169    53    54    1
   170    55    54    1
   171    55    56    1
   172   186   185    1
   173   186   187   ar
   174   189   187   ar
   175    36    33    1
   176    32    33    1
   177    45    44    2
   178    50    49    1
   179   185   182    1
   180    48    46    1
   181    33    34    1
   182    46    43    1
   183    44    43    1
   184    43    42    1
   185   184   183    2
   186   182   183    1
   187   182   181    1
   188    34    35    2
