@<TRIPOS>MOLECULE
tmp/5yxhA00.pdb
 167 163 0 0 0
SMALL
GASTEIGER

@<TRIPOS>ATOM
      1  N        -24.3230   36.6540  -23.9710 N.3    13  ARG13      -0.1231
      2  CA       -24.5950   37.1220  -25.3340 C.3    13  ARG13       0.1694
      3  C        -24.6530   35.9610  -26.3200 C.2    13  ARG13       0.2593
      4  O        -23.9570   34.9640  -26.1550 O.2    13  ARG13      -0.2718
      5  CB       -23.5440   38.1340  -25.8010 C.3    13  ARG13       0.0321
      6  CG       -22.1250   37.7070  -25.4860 C.3    13  ARG13       0.0489
      7  CD       -21.0900   38.2970  -26.4240 C.3    13  ARG13       0.2205
      8  NE       -19.7590   37.9060  -25.9680 N.pl3  13  ARG13      -0.0865
      9  CZ       -19.1090   38.4700  -24.9480 C.cat  13  ARG13       0.5346
     10  NH1      -19.6370   39.4840  -24.2620 N.pl3  13  ARG13       0.1354
     11  NH2      -17.9120   38.0190  -24.6150 N.pl3  13  ARG13       0.1354
     12  N        -25.4940   36.1160  -27.3390 N.am   14  SER14      -0.1938
     13  CA       -25.7020   35.1170  -28.4010 C.3    14  SER14       0.2055
     14  C        -26.2900   33.7560  -27.9600 C.2    14  SER14       0.2643
     15  O        -26.1700   32.7690  -28.6850 O.2    14  SER14      -0.2714
     16  CB       -24.4250   34.9380  -29.2460 C.3    14  SER14       0.2130
     17  OG       -23.2690   34.7290  -28.4500 O.3    14  SER14      -0.2179
     18  N        -26.9560   33.7060  -26.8040 N.am   15  VAL15      -0.1963
     19  CA       -27.6860   32.4940  -26.3930 C.3    15  VAL15       0.1727
     20  C        -29.0300   32.3720  -27.1020 C.2    15  VAL15       0.2617
     21  O        -29.5720   31.2740  -27.2430 O.2    15  VAL15      -0.2715
     22  CB       -27.9230   32.4130  -24.8640 C.3    15  VAL15       0.0290
     23  CG1      -26.5960   32.3310  -24.1230 C.3    15  VAL15       0.0023
     24  CG2      -28.7730   33.5680  -24.3490 C.3    15  VAL15       0.0023
     25  N        -29.5660   33.5070  -27.5390 N.am   16  GLY16      -0.1940
     26  CA       -30.8460   33.5430  -28.2460 C.3    16  GLY16       0.2014
     27  C        -31.9550   34.2440  -27.4890 C.2    16  GLY16       0.2639
     28  O        -33.1400   33.9850  -27.7450 O.2    16  GLY16      -0.2714
     29  N        -31.5770   35.1370  -26.5710 N.am   17  LYS17      -0.1963
     30  CA       -32.5320   35.9310  -25.8030 C.3    17  LYS17       0.1728
     31  C        -33.4510   36.7100  -26.7290 C.2    17  LYS17       0.2617
     32  O        -34.6750   36.6600  -26.5910 O.2    17  LYS17      -0.2715
     33  CB       -31.8070   36.9420  -24.9140 C.3    17  LYS17       0.0311
     34  CG       -31.0150   36.3590  -23.7590 C.3    17  LYS17       0.0038
     35  CD       -30.4500   37.4720  -22.8780 C.3    17  LYS17       0.0206
     36  CE       -29.4680   38.3710  -23.6190 C.3    17  LYS17       0.1093
     37  NZ       -28.2910   37.6330  -24.1590 N.3    17  LYS17      -0.1314
     38  N        -32.8440   37.4520  -27.6560 N.am   18  SER18      -0.1936
     39  CA       -33.6010   38.2330  -28.6200 C.3    18  SER18       0.2055
     40  C        -34.3940   37.3120  -29.5310 C.2    18  SER18       0.2643
     41  O        -35.6080   37.4750  -29.6570 O.2    18  SER18      -0.2714
     42  CB       -32.6840   39.1560  -29.4330 C.3    18  SER18       0.2130
     43  OG       -32.1460   40.1880  -28.6170 O.3    18  SER18      -0.2179
     44  N        -33.7200   36.3340  -30.1390 N.am   19  SER19      -0.1949
     45  CA       -34.3870   35.4000  -31.0530 C.3    19  SER19       0.1924
     46  C        -35.6070   34.7460  -30.4260 C.2    19  SER19       0.2314
     47  O        -36.6490   34.6460  -31.0680 O.2    19  SER19      -0.2863
     48  CB       -33.4250   34.3190  -31.5610 C.3    19  SER19       0.2116
     49  OG       -32.5380   34.8450  -32.5280 O.3    19  SER19      -0.2180
     50  N        -38.6220   33.7450  -36.8090 N.3    29  PHE29      -0.1227
     51  CA       -37.2520   33.5110  -36.3680 C.3    29  PHE29       0.1736
     52  C        -36.2890   34.4660  -37.0780 C.2    29  PHE29       0.2595
     53  O        -36.1940   34.4600  -38.3060 O.2    29  PHE29      -0.2718
     54  CB       -36.8730   32.0470  -36.6230 C.3    29  PHE29       0.0547
     55  CG       -35.4270   31.7430  -36.3750 C.ar   29  PHE29      -0.0202
     56  CD1      -34.9020   31.8000  -35.0900 C.ar   29  PHE29      -0.0042
     57  CD2      -34.5890   31.4070  -37.4240 C.ar   29  PHE29      -0.0042
     58  CE1      -33.5620   31.5290  -34.8610 C.ar   29  PHE29      -0.0003
     59  CE2      -33.2540   31.1300  -37.2050 C.ar   29  PHE29      -0.0003
     60  CZ       -32.7360   31.1880  -35.9210 C.ar   29  PHE29      -0.0000
     61  N        -35.5700   35.2710  -36.2980 N.am   30  VAL30      -0.1966
     62  CA       -34.6900   36.3130  -36.8390 C.3    30  VAL30       0.1727
     63  C        -33.2140   35.9080  -36.7580 C.2    30  VAL30       0.2616
     64  O        -32.7730   35.3160  -35.7680 O.2    30  VAL30      -0.2715
     65  CB       -34.9090   37.6610  -36.1070 C.3    30  VAL30       0.0290
     66  CG1      -34.2260   37.6750  -34.7440 C.3    30  VAL30       0.0023
     67  CG2      -34.4190   38.8260  -36.9540 C.3    30  VAL30       0.0023
     68  N        -32.4680   36.2190  -37.8170 N.am   31  ASP31      -0.1971
     69  CA       -31.0120   36.0510  -37.8410 C.3    31  ASP31       0.1709
     70  C        -30.3630   37.3870  -37.5310 C.2    31  ASP31       0.2293
     71  O        -29.5520   37.5020  -36.6130 O.2    31  ASP31      -0.2864
     72  CB       -30.5370   35.5710  -39.2160 C.3    31  ASP31       0.1436
     73  CG       -31.0270   34.1740  -39.5550 C.2    31  ASP31       0.3671
     74  OD1      -31.1960   33.3500  -38.6320 O.co2  31  ASP31      -0.2456
     75  OD2      -31.2350   33.9000  -40.7560 O.co2  31  ASP31      -0.2456
     76  N        -30.3980   40.3790  -35.7990 N.3    33  TYR33      -0.1227
     77  CA       -30.7780   41.2620  -34.6970 C.3    33  TYR33       0.1736
     78  C        -29.5310   41.6500  -33.8930 C.2    33  TYR33       0.2595
     79  O        -28.6920   40.8010  -33.5930 O.2    33  TYR33      -0.2718
     80  CB       -31.8320   40.6130  -33.7970 C.3    33  TYR33       0.0548
     81  CG       -32.6710   41.6210  -33.0370 C.ar   33  TYR33      -0.0200
     82  CD1      -33.7870   42.2150  -33.6270 C.ar   33  TYR33      -0.0009
     83  CD2      -32.3450   41.9900  -31.7320 C.ar   33  TYR33      -0.0009
     84  CE1      -34.5570   43.1410  -32.9380 C.ar   33  TYR33       0.0417
     85  CE2      -33.1080   42.9140  -31.0350 C.ar   33  TYR33       0.0417
     86  CZ       -34.2130   43.4870  -31.6390 C.ar   33  TYR33       0.1957
     87  OH       -34.9700   44.4040  -30.9440 O.3    33  TYR33      -0.2866
     88  N        -29.4250   42.9360  -33.5530 N.am   34  ASP34      -0.1960
     89  CA       -28.1970   43.5010  -32.9600 C.3    34  ASP34       0.1825
     90  C        -28.0430   43.2010  -31.4550 C.2    34  ASP34       0.2464
     91  O        -28.9100   43.5630  -30.6580 O.2    34  ASP34      -0.2730
     92  CB       -28.0950   45.0140  -33.2210 C.3    34  ASP34       0.1450
     93  CG       -29.3250   45.7820  -32.7730 C.2    34  ASP34       0.3671
     94  OD1      -30.4400   45.2230  -32.8520 O.co2  34  ASP34      -0.2456
     95  OD2      -29.1770   46.9500  -32.3540 O.co2  34  ASP34      -0.2456
     96  N        -26.9280   42.5450  -31.0640 N.am   35  PRO35      -0.2727
     97  CA       -26.7130   42.1340  -29.6650 C.3    35  PRO35       0.1402
     98  C        -26.3030   43.2130  -28.6550 C.2    35  PRO35       0.2269
     99  O        -25.8780   42.8680  -27.5510 O.2    35  PRO35      -0.2865
    100  CB       -25.5750   41.1000  -29.7720 C.3    35  PRO35       0.0296
    101  CG       -25.5010   40.7150  -31.2070 C.3    35  PRO35       0.0237
    102  CD       -25.9360   41.9270  -31.9620 C.3    35  PRO35       0.0939
    103  N        -32.7520   41.9360  -22.2880 N.3    59  THR59      -0.1203
    104  CA       -31.4910   42.5980  -21.9770 C.3    59  THR59       0.1994
    105  C        -30.4650   42.3790  -23.0850 C.2    59  THR59       0.2617
    106  O        -30.5850   41.4540  -23.8920 O.2    59  THR59      -0.2717
    107  CB       -30.9060   42.1210  -20.6320 C.3    59  THR59       0.1784
    108  OG1      -30.7620   40.6950  -20.6320 O.3    59  THR59      -0.2211
    109  CG2      -31.8100   42.5390  -19.4790 C.3    59  THR59       0.0376
    110  N        -29.4770   43.2640  -23.1380 N.am   60  ALA60      -0.1979
    111  CA       -28.3660   43.1210  -24.0640 C.3    60  ALA60       0.1597
    112  C        -27.7050   41.7650  -23.8290 C.2    60  ALA60       0.2287
    113  O        -27.5390   40.9680  -24.7530 O.2    60  ALA60      -0.2864
    114  CB       -27.3650   44.2520  -23.8600 C.3    60  ALA60       0.0319
    115  N        -31.6650   27.1590  -24.4830 N.3   113  ASN113     -0.1225
    116  CA       -32.0360   27.4050  -25.8790 C.3   113  ASN113      0.1785
    117  C        -31.0820   26.7560  -26.9050 C.2   113  ASN113      0.2597
    118  O        -30.0070   26.2760  -26.5540 O.2   113  ASN113     -0.2718
    119  CB       -32.1110   28.9110  -26.1170 C.3   113  ASN113      0.1169
    120  CG       -32.8380   29.2700  -27.3940 C.2   113  ASN113      0.2627
    121  OD1      -33.8610   28.6710  -27.7330 O.2   113  ASN113     -0.2716
    122  ND2      -32.3050   30.2390  -28.1230 N.am  113  ASN113     -0.0877
    123  N        -31.5030   26.7610  -28.1730 N.am  114  LYS114     -0.1980
    124  CA       -30.7400   26.2280  -29.3060 C.3   114  LYS114      0.1596
    125  C        -30.7540   24.7110  -29.3220 C.2   114  LYS114      0.2287
    126  O        -29.8390   24.0820  -29.8610 O.2   114  LYS114     -0.2864
    127  CB       -29.2940   26.7500  -29.3430 C.3   114  LYS114      0.0298
    128  CG       -29.1630   28.2550  -29.2300 C.3   114  LYS114      0.0038
    129  CD       -27.9290   28.7380  -29.9710 C.3   114  LYS114      0.0206
    130  CE       -27.7430   30.2380  -29.8430 C.3   114  LYS114      0.1093
    131  NZ       -26.4300   30.6760  -30.3960 N.3   114  LYS114     -0.1314
    132  N        -32.3950   22.7810  -31.0780 N.3   116  ASP116     -0.1225
    133  CA       -32.4750   22.2750  -32.4460 C.3   116  ASP116      0.1805
    134  C        -31.1040   21.9230  -33.0370 C.2   116  ASP116      0.2597
    135  O        -31.0310   21.1630  -34.0020 O.2   116  ASP116     -0.2718
    136  CB       -33.1880   23.2890  -33.3500 C.3   116  ASP116      0.1424
    137  CG       -32.4790   24.6330  -33.3970 C.2   116  ASP116      0.3668
    138  OD1      -32.7000   25.4540  -32.4810 O.co2 116  ASP116     -0.2456
    139  OD2      -31.6980   24.8740  -34.3440 O.co2 116  ASP116     -0.2456
    140  N        -30.0280   22.4570  -32.4590 N.am  117  LEU117     -0.1979
    141  CA       -28.6770   22.2490  -32.9930 C.3   117  LEU117      0.1596
    142  C        -28.0060   20.9780  -32.4460 C.2   117  LEU117      0.2287
    143  O        -27.0110   21.0440  -31.7150 O.2   117  LEU117     -0.2864
    144  CB       -27.8080   23.4860  -32.7310 C.3   117  LEU117      0.0297
    145  CG       -28.1540   24.7390  -33.5400 C.3   117  LEU117      0.0022
    146  CD1      -27.2540   25.9100  -33.1510 C.3   117  LEU117      0.0001
    147  CD2      -28.0440   24.4500  -35.0310 C.3   117  LEU117      0.0001
    148  N        -36.1720   26.1090  -28.7520 N.3   143  SER143     -0.1202
    149  CA       -35.5710   26.5200  -30.0120 C.3   143  SER143      0.2020
    150  C        -36.3000   27.7630  -30.4680 C.2   143  SER143      0.2619
    151  O        -37.5230   27.7350  -30.6520 O.2   143  SER143     -0.2717
    152  CB       -35.7110   25.4310  -31.0810 C.3   143  SER143      0.2103
    153  OG       -35.3010   25.9080  -32.3580 O.3   143  SER143     -0.2182
    154  N        -35.5550   28.8510  -30.6520 N.am  144  ALA144     -0.1965
    155  CA       -36.1040   30.0760  -31.2340 C.3   144  ALA144      0.1728
    156  C        -36.6700   29.8790  -32.6500 C.2   144  ALA144      0.2616
    157  O        -37.4290   30.7280  -33.1270 O.2   144  ALA144     -0.2715
    158  CB       -35.0510   31.1750  -31.2390 C.3   144  ALA144      0.0334
    159  N        -36.2930   28.7760  -33.3100 N.am  145  LYS145     -0.1977
    160  CA       -36.8760   28.3760  -34.6040 C.3   145  LYS145      0.1596
    161  C        -38.2540   27.7340  -34.4870 C.2   145  LYS145      0.2287
    162  O        -38.9240   27.5350  -35.5030 O.2   145  LYS145     -0.2864
    163  CB       -35.9850   27.3500  -35.3190 C.3   145  LYS145      0.0298
    164  CG       -34.6100   27.8370  -35.7170 C.3   145  LYS145      0.0038
    165  CD       -34.0450   26.9540  -36.8180 C.3   145  LYS145      0.0206
    166  CE       -32.6720   27.4270  -37.2510 C.3   145  LYS145      0.1093
    167  NZ       -32.0910   26.5460  -38.3020 N.3   145  LYS145     -0.1314
@<TRIPOS>BOND
     1    75    73   ar
     2    73    72    1
     3    73    74   ar
     4    72    69    1
     5    53    52    2
     6   167   166    1
     7    69    68    1
     8    69    70    1
     9    68    63   am
    10    70    71    2
    11    57    59   ar
    12    57    55   ar
    13   166   165    1
    14    59    60   ar
    15    52    51    1
    16    52    61   am
    17    67    65    1
    18    62    63    1
    19    62    61    1
    20    62    65    1
    21   165   164    1
    22    50    51    1
    23    63    64    2
    24    54    55    1
    25    54    51    1
    26    55    56   ar
    27    65    66    1
    28    60    58   ar
    29    76    77    1
    30   164   163    1
    31   162   161    2
    32   163   160    1
    33    56    58   ar
    34   147   145    1
    35    77    78    1
    36    77    80    1
    37   160   161    1
    38   160   159    1
    39   139   137   ar
    40   135   134    2
    41    78    79    2
    42    78    88   am
    43    80    81    1
    44    82    81   ar
    45    82    84   ar
    46    88    89    1
    47   145   146    1
    48   145   144    1
    49   137   136    1
    50   137   138   ar
    51   136   133    1
    52   159   156   am
    53    92    89    1
    54    92    93    1
    55   157   156    2
    56   134   140   am
    57   134   133    1
    58    81    83   ar
    59   141   144    1
    60   141   140    1
    61   141   142    1
    62    89    90    1
    63    84    86   ar
    64    94    93   ar
    65    93    95   ar
    66   156   155    1
    67    49    48    1
    68   142   143    2
    69   133   132    1
    70   153   152    1
    71   102   101    1
    72   102    96    1
    73    83    85   ar
    74    86    85   ar
    75    86    87    1
    76    48    45    1
    77    90    96   am
    78    90    91    2
    79   158   155    1
    80   155   154    1
    81   101   100    1
    82   152   149    1
    83    47    46    2
    84    96    97    1
    85    45    46    1
    86    45    44    1
    87   151   150    2
    88   154   150   am
    89   150   149    1
    90   131   130    1
    91    44    40   am
    92   149   148    1
    93   129   130    1
    94   129   128    1
    95   126   125    2
    96   100    97    1
    97    97    98    1
    98    41    40    2
    99    40    39    1
   100    42    39    1
   101    42    43    1
   102   127   124    1
   103   127   128    1
   104   125   124    1
   105   124   123    1
   106    16    17    1
   107    16    13    1
   108    15    14    2
   109    98    99    2
   110    39    38    1
   111    13    14    1
   112    13    12    1
   113    26    25    1
   114    26    27    1
   115   123   117   am
   116   122   120   am
   117    14    18   am
   118    28    27    2
   119   121   120    2
   120    38    31   am
   121    25    20   am
   122    27    29   am
   123   120   119    1
   124    12     3   am
   125    21    20    2
   126    20    19    1
   127   117   118    2
   128   117   116    1
   129    18    19    1
   130    31    32    2
   131    31    30    1
   132    29    30    1
   133     7     8    1
   134     7     6    1
   135    19    22    1
   136     3     4    2
   137     3     2    1
   138   119   116    1
   139     8     9    2
   140   116   115    1
   141    30    33    1
   142     5     6    1
   143     5     2    1
   144     2     1    1
   145     9    11    1
   146     9    10    1
   147    33    34    1
   148    22    24    1
   149    22    23    1
   150   113   112    2
   151    37    36    1
   152   111   114    1
   153   111   112    1
   154   111   110    1
   155   106   105    2
   156    34    35    1
   157    36    35    1
   158   110   105   am
   159   105   104    1
   160   103   104    1
   161   104   107    1
   162   108   107    1
   163   107   109    1
