@<TRIPOS>MOLECULE
tmp/5yxjB01.pdb
 258 251 0 0 0
SMALL
GASTEIGER

@<TRIPOS>ATOM
      1  N        -23.7370  -12.9720   45.8760 N.3    22  MET22      -0.1245
      2  CA       -22.6180  -13.6150   45.1660 C.3    22  MET22       0.1570
      3  C        -21.4940  -12.6050   45.0050 C.2    22  MET22       0.2261
      4  O        -21.6960  -11.5770   44.3640 O.2    22  MET22      -0.2867
      5  CB       -23.0140  -14.1290   43.7880 C.3    22  MET22       0.0387
      6  CG       -21.8690  -14.8320   43.0720 C.3    22  MET22       0.0595
      7  SD       -22.5120  -15.7530   41.6580 S.3    22  MET22      -0.1393
      8  CE       -23.1030  -17.2560   42.4670 C.3    22  MET22       0.0692
      9  N        -16.6640  -24.7910   33.4640 N.3    41  PHE41      -0.1241
     10  CA       -17.0150  -25.6890   34.5110 C.3    41  PHE41       0.1605
     11  C        -16.4680  -25.1820   35.8250 C.2    41  PHE41       0.2264
     12  O        -17.2120  -25.1140   36.8190 O.2    41  PHE41      -0.2867
     13  CB       -16.4330  -27.0420   34.2290 C.3    41  PHE41       0.0534
     14  CG       -16.8510  -28.0670   35.2030 C.ar   41  PHE41      -0.0203
     15  CD1      -18.1250  -28.5880   35.1300 C.ar   41  PHE41      -0.0042
     16  CD2      -15.9930  -28.5010   36.1930 C.ar   41  PHE41      -0.0042
     17  CE1      -18.5450  -29.5350   36.0180 C.ar   41  PHE41      -0.0003
     18  CE2      -16.3990  -29.4500   37.0940 C.ar   41  PHE41      -0.0003
     19  CZ       -17.6850  -29.9720   37.0050 C.ar   41  PHE41      -0.0000
     20  N        -18.4150  -22.6840   37.3440 N.3    44  LEU44      -0.1231
     21  CA       -19.6420  -23.2620   37.9160 C.3    44  LEU44       0.1693
     22  C        -19.3230  -23.8470   39.2400 C.2    44  LEU44       0.2592
     23  O        -20.0710  -23.6470   40.1780 O.2    44  LEU44      -0.2718
     24  CB       -20.3120  -24.3080   37.0150 C.3    44  LEU44       0.0284
     25  CG       -20.8070  -23.8630   35.6370 C.3    44  LEU44       0.0019
     26  CD1      -21.5000  -25.0160   34.9300 C.3    44  LEU44       0.0001
     27  CD2      -21.7560  -22.6990   35.7340 C.3    44  LEU44       0.0001
     28  N        -18.1930  -24.5360   39.3010 N.am   45  THR45      -0.1953
     29  CA       -17.6220  -25.0600   40.5500 C.3    45  THR45       0.1897
     30  C        -17.5120  -23.9650   41.5980 C.2    45  THR45       0.2313
     31  O        -18.0030  -24.1070   42.7130 O.2    45  THR45      -0.2863
     32  CB       -16.2530  -25.6700   40.2770 C.3    45  THR45       0.1794
     33  OG1      -16.4570  -26.8970   39.6080 O.3    45  THR45      -0.2208
     34  CG2      -15.4930  -25.9710   41.5230 C.3    45  THR45       0.0378
     35  N        -18.9860  -21.1690   41.8190 N.3    47  MET47      -0.1230
     36  CA       -20.2400  -20.5140   42.1550 C.3    47  MET47       0.1702
     37  C        -21.0120  -21.4220   43.0730 C.2    47  MET47       0.2592
     38  O        -21.6200  -20.9580   44.0390 O.2    47  MET47      -0.2718
     39  CB       -21.0720  -20.2100   40.8960 C.3    47  MET47       0.0401
     40  CG       -20.5800  -19.0320   40.0850 C.3    47  MET47       0.0596
     41  SD       -21.5960  -18.8410   38.6200 S.3    47  MET47      -0.1393
     42  CE       -21.0240  -17.2650   37.9530 C.3    47  MET47       0.0692
     43  N        -20.9920  -22.7110   42.7520 N.am   48  ALA48      -0.1980
     44  CA       -21.6160  -23.7080   43.5850 C.3    48  ALA48       0.1597
     45  C        -21.0200  -23.6750   45.0140 C.2    48  ALA48       0.2287
     46  O        -21.7660  -23.7440   46.0060 O.2    48  ALA48      -0.2864
     47  CB       -21.4480  -25.0870   42.9560 C.3    48  ALA48       0.0319
     48  N        -22.6730  -20.9310   46.5780 N.3    51  HIS51      -0.1241
     49  CA       -24.0340  -21.3000   46.9820 C.3    51  HIS51       0.1621
     50  C        -24.0570  -21.9140   48.4010 C.2    51  HIS51       0.2264
     51  O        -24.9840  -21.6510   49.1710 O.2    51  HIS51      -0.2867
     52  CB       -24.7490  -22.2460   46.0040 C.3    51  HIS51       0.0745
     53  CG       -24.9330  -21.6910   44.6230 C.ar   51  HIS51       0.0817
     54  ND1      -25.2280  -20.3680   44.3760 N.ar   51  HIS51      -0.2268
     55  CD2      -24.8510  -22.2840   43.4080 C.ar   51  HIS51       0.1154
     56  CE1      -25.3160  -20.1710   43.0770 C.ar   51  HIS51       0.1986
     57  NE2      -25.0890  -21.3190   42.4670 N.ar   51  HIS51      -0.2212
     58  N        -29.0500  -29.2420   47.8310 N.3    82  VAL82      -0.1245
     59  CA       -29.3560  -29.2950   46.4070 C.3    82  VAL82       0.1561
     60  C        -30.5470  -28.4170   46.0700 C.2    82  VAL82       0.2260
     61  O        -30.4860  -27.6180   45.1310 O.2    82  VAL82      -0.2867
     62  CB       -29.6710  -30.7210   45.9250 C.3    82  VAL82       0.0252
     63  CG1      -30.1070  -30.7120   44.4660 C.3    82  VAL82       0.0019
     64  CG2      -28.4680  -31.6270   46.0640 C.3    82  VAL82       0.0019
     65  N        -29.5380  -24.6570   46.6900 N.3    85  MET85      -0.1230
     66  CA       -28.5590  -24.1750   45.7110 C.3    85  MET85       0.1702
     67  C        -29.1910  -23.8400   44.3590 C.2    85  MET85       0.2592
     68  O        -28.8720  -22.7950   43.7900 O.2    85  MET85      -0.2718
     69  CB       -27.4970  -25.2250   45.4800 C.3    85  MET85       0.0401
     70  CG       -26.5490  -25.3440   46.6320 C.3    85  MET85       0.0596
     71  SD       -25.5390  -26.7870   46.4120 S.3    85  MET85      -0.1393
     72  CE       -24.4610  -26.2820   45.0920 C.3    85  MET85       0.0692
     73  N        -30.0830  -24.7050   43.8620 N.am   86  PHE86      -0.1976
     74  CA       -30.8360  -24.4060   42.6480 C.3    86  PHE86       0.1639
     75  C        -31.7360  -23.2120   42.7770 C.2    86  PHE86       0.2290
     76  O        -31.8470  -22.4220   41.8230 O.2    86  PHE86      -0.2864
     77  CB       -31.6610  -25.6010   42.1400 C.3    86  PHE86       0.0560
     78  CG       -30.8460  -26.5840   41.3520 C.ar   86  PHE86      -0.0200
     79  CD1      -30.4100  -26.2770   40.0780 C.ar   86  PHE86      -0.0042
     80  CD2      -30.4720  -27.7930   41.9120 C.ar   86  PHE86      -0.0042
     81  CE1      -29.6210  -27.1710   39.3650 C.ar   86  PHE86      -0.0003
     82  CE2      -29.7110  -28.6980   41.2060 C.ar   86  PHE86      -0.0003
     83  CZ       -29.2770  -28.3800   39.9380 C.ar   86  PHE86      -0.0000
     84  N        -29.5610  -20.0360   42.7730 N.3    89  SER89      -0.1217
     85  CA       -29.0290  -19.7400   41.4320 C.3    89  SER89       0.1889
     86  C        -30.1200  -19.2820   40.4800 C.2    89  SER89       0.2288
     87  O        -29.8520  -18.4980   39.5960 O.2    89  SER89      -0.2866
     88  CB       -28.3110  -20.9420   40.8280 C.3    89  SER89       0.2089
     89  OG       -29.2360  -21.9770   40.4830 O.3    89  SER89      -0.2183
     90  N        -30.5140  -15.6200   41.2940 N.3    92  ILE92      -0.1231
     91  CA       -29.4060  -14.8720   40.7130 C.3    92  ILE92       0.1692
     92  C        -29.5690  -14.7650   39.2040 C.2    92  ILE92       0.2592
     93  O        -29.3620  -13.7040   38.6370 O.2    92  ILE92      -0.2718
     94  CB       -28.0340  -15.5030   40.9910 C.3    92  ILE92       0.0266
     95  CG1      -27.7070  -15.4330   42.4950 C.3    92  ILE92       0.0019
     96  CG2      -26.9470  -14.8050   40.1450 C.3    92  ILE92       0.0020
     97  CD1      -26.4130  -16.1290   42.8790 C.3    92  ILE92       0.0001
     98  N        -29.9100  -15.8740   38.5530 N.am   93  PHE93      -0.1976
     99  CA       -29.9980  -15.8730   37.1050 C.3    93  PHE93       0.1639
    100  C        -31.1300  -14.9340   36.6200 C.2    93  PHE93       0.2290
    101  O        -30.9920  -14.2950   35.5750 O.2    93  PHE93      -0.2864
    102  CB       -30.1870  -17.2810   36.5720 C.3    93  PHE93       0.0560
    103  CG       -30.2860  -17.3350   35.0790 C.ar   93  PHE93      -0.0200
    104  CD1      -29.1280  -17.3090   34.2810 C.ar   93  PHE93      -0.0042
    105  CD2      -31.5300  -17.3720   34.4550 C.ar   93  PHE93      -0.0042
    106  CE1      -29.2220  -17.3560   32.8940 C.ar   93  PHE93      -0.0003
    107  CE2      -31.6280  -17.4090   33.0770 C.ar   93  PHE93      -0.0003
    108  CZ       -30.4740  -17.3920   32.2960 C.ar   93  PHE93      -0.0000
    109  N        -23.4170  -16.3480   30.8160 N.3   100  LEU100     -0.1245
    110  CA       -23.3290  -17.4130   31.8210 C.3   100  LEU100      0.1561
    111  C        -24.0540  -18.6450   31.3210 C.2   100  LEU100      0.2260
    112  O        -23.5500  -19.7580   31.4400 O.2   100  LEU100     -0.2867
    113  CB       -23.9220  -16.9840   33.1410 C.3   100  LEU100      0.0270
    114  CG       -23.8830  -18.0380   34.2520 C.3   100  LEU100      0.0019
    115  CD1      -22.5230  -18.7220   34.5030 C.3   100  LEU100      0.0001
    116  CD2      -24.3680  -17.4040   35.5340 C.3   100  LEU100      0.0001
    117  N        -22.4120  -22.1410   30.6890 N.3   104  ILE104     -0.1245
    118  CA       -23.0560  -23.3350   31.2170 C.3   104  ILE104      0.1561
    119  C        -23.2080  -24.3910   30.1420 C.2   104  ILE104      0.2260
    120  O        -22.8600  -25.5390   30.3780 O.2   104  ILE104     -0.2867
    121  CB       -24.4010  -23.0420   31.9180 C.3   104  ILE104      0.0252
    122  CG1      -24.0990  -22.5110   33.3150 C.3   104  ILE104      0.0019
    123  CG2      -25.2570  -24.3100   32.0270 C.3   104  ILE104      0.0019
    124  CD1      -25.2430  -21.8010   33.9670 C.3   104  ILE104      0.0001
    125  N        -20.9550  -30.3790   30.6150 N.3   109  ILE109     -0.1245
    126  CA       -22.1090  -30.9810   31.3010 C.3   109  ILE109      0.1561
    127  C        -23.1360  -31.3850   30.2690 C.2   109  ILE109      0.2260
    128  O        -23.5010  -30.5980   29.4040 O.2   109  ILE109     -0.2867
    129  CB       -22.7820  -29.9610   32.2390 C.3   109  ILE109      0.0252
    130  CG1      -21.9130  -29.6950   33.4600 C.3   109  ILE109      0.0019
    131  CG2      -24.1570  -30.4130   32.6910 C.3   109  ILE109      0.0019
    132  CD1      -22.2300  -28.3470   34.0850 C.3   109  ILE109      0.0001
    133  N        -29.0090  -32.4190   32.0050 N.3   113  TYR113     -0.1227
    134  CA       -28.9590  -31.6930   33.2630 C.3   113  TYR113      0.1736
    135  C        -29.2070  -30.2080   33.0350 C.2   113  TYR113      0.2595
    136  O        -29.9010  -29.5890   33.8310 O.2   113  TYR113     -0.2718
    137  CB       -27.6370  -31.9820   33.9970 C.3   113  TYR113      0.0548
    138  CG       -27.4300  -33.4900   34.1070 C.ar  113  TYR113     -0.0200
    139  CD1      -28.2770  -34.2690   34.8770 C.ar  113  TYR113     -0.0009
    140  CD2      -26.4640  -34.1310   33.3690 C.ar  113  TYR113     -0.0009
    141  CE1      -28.1400  -35.6360   34.9400 C.ar  113  TYR113      0.0417
    142  CE2      -26.2940  -35.4860   33.4410 C.ar  113  TYR113      0.0417
    143  CZ       -27.1400  -36.2410   34.2210 C.ar  113  TYR113      0.1957
    144  OH       -26.9640  -37.6120   34.2860 O.3   113  TYR113     -0.2866
    145  N        -28.6800  -29.6560   31.9360 N.am  114  ILE114     -0.1980
    146  CA       -28.8130  -28.2320   31.6010 C.3   114  ILE114      0.1595
    147  C        -30.2810  -27.8170   31.3620 C.2   114  ILE114      0.2287
    148  O        -30.7480  -26.8010   31.9160 O.2   114  ILE114     -0.2864
    149  CB       -28.0340  -27.9060   30.3230 C.3   114  ILE114      0.0276
    150  CG1      -26.5260  -28.2190   30.4740 C.3   114  ILE114      0.0022
    151  CG2      -28.2530  -26.4620   29.8930 C.3   114  ILE114      0.0022
    152  CD1      -25.8870  -27.6740   31.7300 C.3   114  ILE114      0.0001
    153  N        -32.7510  -27.7520   34.3520 N.3   117  MET117     -0.1245
    154  CA       -32.3560  -26.5380   35.0920 C.3   117  MET117      0.1570
    155  C        -33.0110  -25.2540   34.5290 C.2   117  MET117      0.2261
    156  O        -33.8050  -24.5750   35.2270 O.2   117  MET117     -0.2867
    157  CB       -30.8440  -26.3610   35.1310 C.3   117  MET117      0.0387
    158  CG       -30.4220  -25.1330   35.9330 C.3   117  MET117      0.0595
    159  SD       -28.6620  -25.0010   36.2420 S.3   117  MET117     -0.1393
    160  CE       -28.0500  -24.6330   34.6010 C.3   117  MET117      0.0692
    161  N        -35.7950  -22.3460   35.9120 N.3   121  TYR121     -0.1241
    162  CA       -35.6390  -20.8880   36.0870 C.3   121  TYR121      0.1605
    163  C        -36.7510  -20.1250   35.3620 C.2   121  TYR121      0.2264
    164  O        -37.3440  -19.2030   35.9300 O.2   121  TYR121     -0.2867
    165  CB       -34.2780  -20.3740   35.6130 C.3   121  TYR121      0.0534
    166  CG       -33.0350  -20.9440   36.2990 C.ar  121  TYR121     -0.0201
    167  CD1      -33.0840  -21.5320   37.5610 C.ar  121  TYR121     -0.0009
    168  CD2      -31.7780  -20.8550   35.6660 C.ar  121  TYR121     -0.0009
    169  CE1      -31.9280  -22.0290   38.1440 C.ar  121  TYR121      0.0417
    170  CE2      -30.6270  -21.3290   36.2580 C.ar  121  TYR121      0.0417
    171  CZ       -30.7090  -21.9120   37.4850 C.ar  121  TYR121      0.1957
    172  OH       -29.5590  -22.3710   38.0480 O.3   121  TYR121     -0.2866
    173  N        -34.7280  -32.0310   41.2790 N.3   195  PHE195     -0.1241
    174  CA       -33.2970  -31.8270   41.2410 C.3   195  PHE195      0.1605
    175  C        -32.4860  -32.6630   42.2620 C.2   195  PHE195      0.2264
    176  O        -31.2960  -32.8260   42.1020 O.2   195  PHE195     -0.2867
    177  CB       -33.0030  -30.3190   41.3160 C.3   195  PHE195      0.0534
    178  CG       -33.4040  -29.5950   40.0670 C.ar  195  PHE195     -0.0203
    179  CD1      -32.5800  -29.6290   38.9250 C.ar  195  PHE195     -0.0042
    180  CD2      -34.6360  -28.9640   39.9770 C.ar  195  PHE195     -0.0042
    181  CE1      -32.9750  -29.0120   37.7490 C.ar  195  PHE195     -0.0003
    182  CE2      -35.0220  -28.3370   38.7980 C.ar  195  PHE195     -0.0003
    183  CZ       -34.1960  -28.3620   37.6960 C.ar  195  PHE195     -0.0000
    184  N        -31.7650  -35.4700   39.7370 N.3   198  HIS198     -0.1226
    185  CA       -30.8860  -34.9690   38.6470 C.3   198  HIS198      0.1752
    186  C        -29.4680  -34.7860   39.1160 C.2   198  HIS198      0.2596
    187  O        -28.5290  -35.1590   38.4250 O.2   198  HIS198     -0.2718
    188  CB       -31.3860  -33.6680   38.0240 C.3   198  HIS198      0.0759
    189  CG       -32.4220  -33.8760   36.9610 C.ar  198  HIS198      0.0818
    190  ND1      -33.5640  -33.1060   36.8730 N.ar  198  HIS198     -0.2268
    191  CD2      -32.4970  -34.7810   35.9520 C.ar  198  HIS198      0.1154
    192  CE1      -34.2910  -33.5190   35.8490 C.ar  198  HIS198      0.1986
    193  NE2      -33.6640  -34.5310   35.2730 N.ar  198  HIS198     -0.2212
    194  N        -29.3270  -34.2400   40.3180 N.am  199  HIS199     -0.1975
    195  CA       -28.0210  -34.0710   40.9760 C.3   199  HIS199      0.1656
    196  C        -27.3110  -35.4080   41.2990 C.2   199  HIS199      0.2291
    197  O        -26.1360  -35.5870   40.9630 O.2   199  HIS199     -0.2864
    198  CB       -28.2010  -33.2100   42.2300 C.3   199  HIS199      0.0771
    199  CG       -27.0470  -33.2520   43.1600 C.ar  199  HIS199      0.0820
    200  ND1      -25.9350  -32.4850   42.9720 N.ar  199  HIS199     -0.2267
    201  CD2      -26.8160  -33.9920   44.2740 C.ar  199  HIS199      0.1154
    202  CE1      -25.0680  -32.7280   43.9420 C.ar  199  HIS199      0.1986
    203  NE2      -25.5720  -33.6520   44.7370 N.ar  199  HIS199     -0.2212
    204  N        -25.7410  -36.5820   38.0730 N.3   202  MET202     -0.1230
    205  CA       -24.5590  -35.8480   37.6280 C.3   202  MET202      0.1702
    206  C        -23.2890  -36.2210   38.3630 C.2   202  MET202      0.2592
    207  O        -22.2190  -36.1940   37.7620 O.2   202  MET202     -0.2718
    208  CB       -24.7400  -34.3720   37.8080 C.3   202  MET202      0.0401
    209  CG       -25.6840  -33.7630   36.8200 C.3   202  MET202      0.0596
    210  SD       -25.7500  -32.0250   37.2050 S.3   202  MET202     -0.1393
    211  CE       -24.1090  -31.5310   36.8410 C.3   202  MET202      0.0692
    212  N        -23.3830  -36.5460   39.6480 N.am  203  LEU203     -0.1980
    213  CA       -22.2290  -37.1140   40.3200 C.3   203  LEU203      0.1596
    214  C        -21.8430  -38.5130   39.7370 C.2   203  LEU203      0.2287
    215  O        -20.6690  -38.8110   39.7460 O.2   203  LEU203     -0.2864
    216  CB       -22.4080  -37.1030   41.8640 C.3   203  LEU203      0.0297
    217  CG       -22.6220  -35.7230   42.5350 C.3   203  LEU203      0.0022
    218  CD1      -22.9870  -35.8490   44.0030 C.3   203  LEU203      0.0001
    219  CD2      -21.4150  -34.7970   42.4030 C.3   203  LEU203      0.0001
    220  N        -18.7170  -38.0770   36.9070 N.3   206  TRP206     -0.1241
    221  CA       -17.2680  -37.8260   37.3310 C.3   206  TRP206      0.1605
    222  C        -16.8150  -38.6690   38.4920 C.2   206  TRP206      0.2264
    223  O        -15.8240  -39.4130   38.4070 O.2   206  TRP206     -0.2867
    224  CB       -16.9860  -36.3620   37.7700 C.3   206  TRP206      0.0550
    225  CG       -17.5400  -35.5010   36.8640 C.ar  206  TRP206      0.0003
    226  CD1      -17.1120  -35.2810   35.5980 C.ar  206  TRP206      0.0946
    227  CD2      -18.7310  -34.7830   37.0350 C.ar  206  TRP206      0.0152
    228  NE1      -17.9660  -34.4370   34.9520 N.ar  206  TRP206     -0.2442
    229  CE2      -18.9760  -34.1030   35.8190 C.ar  206  TRP206      0.0810
    230  CE3      -19.6170  -34.6220   38.1060 C.ar  206  TRP206      0.0012
    231  CZ2      -20.0800  -33.2640   35.6430 C.ar  206  TRP206      0.0191
    232  CZ3      -20.7030  -33.7930   37.9400 C.ar  206  TRP206      0.0001
    233  CH2      -20.9320  -33.1290   36.7130 C.ar  206  TRP206      0.0015
    234  N        -13.4280  -31.6630   43.2370 N.3   210  PHE210     -0.1241
    235  CA       -14.2960  -30.6300   43.8200 C.3   210  PHE210      0.1605
    236  C        -13.6890  -29.9640   45.0820 C.2   210  PHE210      0.2264
    237  O        -12.8490  -30.5900   45.7490 O.2   210  PHE210     -0.2867
    238  CB       -15.6690  -31.2580   44.1740 C.3   210  PHE210      0.0534
    239  CG       -16.6040  -31.4440   42.9960 C.ar  210  PHE210     -0.0203
    240  CD1      -17.0580  -30.3460   42.2610 C.ar  210  PHE210     -0.0042
    241  CD2      -17.0790  -32.6920   42.6620 C.ar  210  PHE210     -0.0042
    242  CE1      -17.9330  -30.5000   41.1780 C.ar  210  PHE210     -0.0003
    243  CE2      -17.9620  -32.8540   41.5930 C.ar  210  PHE210     -0.0003
    244  CZ       -18.3870  -31.7600   40.8450 C.ar  210  PHE210     -0.0000
    245  N        -22.0320  -32.4540   49.6750 N.3   218  TRP218     -0.1241
    246  CA       -22.6380  -33.4640   48.7830 C.3   218  TRP218      0.1605
    247  C        -22.2980  -34.9090   49.1270 C.2   218  TRP218      0.2264
    248  O        -22.7750  -35.8160   48.4320 O.2   218  TRP218     -0.2867
    249  CB       -22.2210  -33.2460   47.3350 C.3   218  TRP218      0.0550
    250  CG       -22.7160  -32.0230   46.6850 C.ar  218  TRP218      0.0003
    251  CD1      -23.8310  -31.3320   46.9880 C.ar  218  TRP218      0.0946
    252  CD2      -22.1460  -31.3840   45.5590 C.ar  218  TRP218      0.0152
    253  NE1      -23.9840  -30.2700   46.1580 N.ar  218  TRP218     -0.2442
    254  CE2      -22.9590  -30.2670   45.2620 C.ar  218  TRP218      0.0810
    255  CE3      -21.0140  -31.6290   44.7720 C.ar  218  TRP218      0.0012
    256  CZ2      -22.6860  -29.3940   44.1960 C.ar  218  TRP218      0.0191
    257  CZ3      -20.7470  -30.7460   43.7000 C.ar  218  TRP218      0.0001
    258  CH2      -21.5760  -29.6470   43.4380 C.ar  218  TRP218      0.0015
@<TRIPOS>BOND
     1   128   127    2
     2   151   149    1
     3   119   120    2
     4   119   118    1
     5   127   126    1
     6   149   150    1
     7   149   146    1
     8   150   152    1
     9   125   126    1
    10   117   118    1
    11   109   110    1
    12   118   121    1
    13   126   129    1
    14   111   112    2
    15   111   110    1
    16   147   146    1
    17   147   148    2
    18   146   145    1
    19   110   113    1
    20   121   123    1
    21   121   122    1
    22   145   135   am
    23   133   134    1
    24   129   131    1
    25   129   130    1
    26   108   106   ar
    27   108   107   ar
    28   106   104   ar
    29   135   134    1
    30   135   136    2
    31   107   105   ar
    32   113   114    1
    33   134   137    1
    34   122   124    1
    35   140   142   ar
    36   140   138   ar
    37   142   143   ar
    38   130   132    1
    39     9    10    1
    40   137   138    1
    41   138   139   ar
    42   143   144    1
    43   143   141   ar
    44    13    10    1
    45    13    14    1
    46   114   115    1
    47   114   116    1
    48   104   103   ar
    49   153   154    1
    50   105   103   ar
    51    10    11    1
    52   155   154    1
    53   155   156    2
    54   160   159    1
    55   139   141   ar
    56    26    25    1
    57   228   226   ar
    58   228   229   ar
    59   103   102    1
    60   154   157    1
    61    15    14   ar
    62    15    17   ar
    63   157   158    1
    64    14    16   ar
    65   193   192   ar
    66   193   191   ar
    67   163   164    2
    68   163   162    1
    69   101   100    2
    70   226   225   ar
    71   165   162    1
    72   165   166    1
    73    25    27    1
    74    25    24    1
    75   231   229   ar
    76   231   233   ar
    77   168   170   ar
    78   168   166   ar
    79   229   227   ar
    80    11    12    2
    81   192   190   ar
    82   161   162    1
    83   158   159    1
    84   191   189   ar
    85    17    19   ar
    86    16    18   ar
    87   170   171   ar
    88   166   167   ar
    89   102    99    1
    90   100    99    1
    91   233   232   ar
    92   209   210    1
    93   209   208    1
    94   211   210    1
    95   225   227   ar
    96   225   224    1
    97   190   189   ar
    98   220   221    1
    99   189   188    1
   100    19    18   ar
   101    24    21    1
   102   227   230   ar
   103    99    98    1
   104   221   224    1
   105   221   222    1
   106    20    21    1
   107   171   172    1
   108   171   169   ar
   109   167   169   ar
   110   205   208    1
   111   205   204    1
   112   205   206    1
   113   183   181   ar
   114   183   182   ar
   115   181   179   ar
   116   207   206    2
   117    21    22    1
   118   232   230   ar
   119    42    41    1
   120   188   185    1
   121   206   212   am
   122   223   222    2
   123   187   186    2
   124    98    92   am
   125    41    40    1
   126    93    92    2
   127   185   186    1
   128   185   184    1
   129   182   180   ar
   130   179   178   ar
   131   186   194   am
   132    92    91    1
   133    22    28   am
   134    22    23    2
   135    28    29    1
   136    81    83   ar
   137    81    79   ar
   138    87    86    2
   139    33    32    1
   140   212   213    1
   141   214   215    2
   142   214   213    1
   143    83    82   ar
   144   180   178   ar
   145   178   177    1
   146    79    78   ar
   147    40    39    1
   148    96    94    1
   149    32    29    1
   150    32    34    1
   151   194   195    1
   152   213   216    1
   153    86    85    1
   154    89    88    1
   155    29    30    1
   156    91    94    1
   157    91    90    1
   158    88    85    1
   159   244   242   ar
   160   244   243   ar
   161    39    36    1
   162   197   196    2
   163   195   196    1
   164   195   198    1
   165    94    95    1
   166   242   240   ar
   167    82    80   ar
   168   174   173    1
   169   174   177    1
   170   174   175    1
   171    78    80   ar
   172    78    77    1
   173    85    84    1
   174   243   241   ar
   175    30    31    2
   176     7     8    1
   177     7     6    1
   178    35    36    1
   179    76    75    2
   180   216   217    1
   181   176   175    2
   182    77    74    1
   183    36    37    1
   184   198   199    1
   185   240   239   ar
   186   219   217    1
   187    57    56   ar
   188    57    55   ar
   189    95    97    1
   190   217   218    1
   191    74    75    1
   192    74    73    1
   193   241   239   ar
   194    43    37   am
   195    43    44    1
   196    47    44    1
   197   200   199   ar
   198   200   202   ar
   199   239   238    1
   200     6     5    1
   201    37    38    2
   202    56    54   ar
   203   199   201   ar
   204   234   235    1
   205    55    53   ar
   206   258   257   ar
   207   258   256   ar
   208    44    45    1
   209   257   255   ar
   210     5     2    1
   211    68    67    2
   212   235   238    1
   213   235   236    1
   214    73    67   am
   215   202   203   ar
   216   256   254   ar
   217   201   203   ar
   218    67    66    1
   219     4     3    2
   220    54    53   ar
   221    63    62    1
   222    53    52    1
   223   255   252   ar
   224     3     2    1
   225    45    46    2
   226   236   237    2
   227    72    71    1
   228    61    60    2
   229     2     1    1
   230   254   252   ar
   231   254   253   ar
   232    69    66    1
   233    69    70    1
   234   252   250   ar
   235    66    65    1
   236    62    64    1
   237    62    59    1
   238    52    49    1
   239    60    59    1
   240   253   251   ar
   241    59    58    1
   242    71    70    1
   243    48    49    1
   244   250   251   ar
   245   250   249    1
   246    49    50    1
   247   249   246    1
   248    50    51    2
   249   248   247    2
   250   246   247    1
   251   246   245    1
