@<TRIPOS>MOLECULE
tmp/5yxlC00.pdb
 68 64 0 0 0
SMALL
GASTEIGER

@<TRIPOS>ATOM
      1  N         27.9600   52.4150  103.8280 N.3    54  VAL54      -0.1245
      2  CA        27.7180   53.7400  104.4590 C.3    54  VAL54       0.1561
      3  C         28.9850   54.6150  104.5020 C.2    54  VAL54       0.2260
      4  O         28.9160   55.8030  104.2590 O.2    54  VAL54      -0.2867
      5  CB        27.1780   53.5850  105.8730 C.3    54  VAL54       0.0252
      6  CG1       26.9380   54.9590  106.5280 C.3    54  VAL54       0.0019
      7  CG2       25.8550   52.8670  105.8330 C.3    54  VAL54       0.0019
      8  N         29.5910   55.8050  101.1070 N.3    57  THR57      -0.1203
      9  CA        28.5230   56.7270  100.6380 C.3    57  THR57       0.1994
     10  C         28.7570   58.1380  101.1940 C.2    57  THR57       0.2617
     11  O         28.7540   59.1090  100.4650 O.2    57  THR57      -0.2717
     12  CB        27.1340   56.2140  101.0320 C.3    57  THR57       0.1784
     13  OG1       26.8930   54.9720  100.3380 O.3    57  THR57      -0.2211
     14  CG2       26.0440   57.1700  100.6310 C.3    57  THR57       0.0376
     15  N         29.1020   58.2340  102.4690 N.am   58  LYS58      -0.1979
     16  CA        29.2050   59.5600  103.0740 C.3    58  LYS58       0.1596
     17  C         30.3800   60.3400  102.5960 C.2    58  LYS58       0.2287
     18  O         30.3750   61.5390  102.7350 O.2    58  LYS58      -0.2864
     19  CB        29.2010   59.4720  104.5840 C.3    58  LYS58       0.0298
     20  CG        30.5000   59.0130  105.1780 C.3    58  LYS58       0.0038
     21  CD        30.1470   58.5350  106.5700 C.3    58  LYS58       0.0206
     22  CE        31.1760   58.9670  107.5870 C.3    58  LYS58       0.1093
     23  NZ        30.5100   59.2460  108.8870 N.3    58  LYS58      -0.1314
     24  N         27.6640   64.1770   98.0800 N.3    63  PHE63      -0.1227
     25  CA        26.6520   63.4910   98.8910 C.3    63  PHE63       0.1736
     26  C         26.2730   64.3000  100.1330 C.2    63  PHE63       0.2595
     27  O         25.0930   64.3720  100.4770 O.2    63  PHE63      -0.2718
     28  CB        27.1010   62.0750   99.3120 C.3    63  PHE63       0.0547
     29  CG        26.0270   61.3080  100.0720 C.ar   63  PHE63      -0.0202
     30  CD1       25.0270   60.6310   99.3900 C.ar   63  PHE63      -0.0042
     31  CD2       26.0170   61.2620  101.4500 C.ar   63  PHE63      -0.0042
     32  CE1       24.0580   59.9430  100.0640 C.ar   63  PHE63      -0.0003
     33  CE2       25.0510   60.5840  102.1410 C.ar   63  PHE63      -0.0003
     34  CZ        24.0660   59.9170  101.4410 C.ar   63  PHE63      -0.0000
     35  N         27.2640   64.8810  100.8200 N.am   64  GLN64      -0.1979
     36  CA        26.9850   65.7070  102.0140 C.3    64  GLN64       0.1601
     37  C         26.1870   67.0090  101.7540 C.2    64  GLN64       0.2287
     38  O         25.5830   67.5500  102.6810 O.2    64  GLN64      -0.2864
     39  CB        28.2760   66.0140  102.7840 C.3    64  GLN64       0.0394
     40  CG        28.8640   64.8810  103.6510 C.3    64  GLN64       0.0908
     41  CD        27.8610   64.0270  104.4680 C.2    64  GLN64       0.2608
     42  OE1       27.8990   63.9490  105.6920 O.2    64  GLN64      -0.2717
     43  NE2       27.0290   63.3190  103.7760 N.am   64  GLN64      -0.0878
     44  N         19.3900   61.8800  101.5140 N.3    71  GLN71      -0.1231
     45  CA        20.5280   61.0400  101.8390 C.3    71  GLN71       0.1698
     46  C         20.1190   59.6940  102.3830 C.2    71  GLN71       0.2592
     47  O         20.6700   58.6570  101.9450 O.2    71  GLN71      -0.2718
     48  CB        21.4020   61.6900  102.8830 C.3    71  GLN71       0.0381
     49  CG        22.2400   62.8520  102.3580 C.3    71  GLN71       0.0905
     50  CD        23.1130   63.4680  103.4570 C.2    71  GLN71       0.2608
     51  OE1       22.9770   63.1500  104.6090 O.2    71  GLN71      -0.2717
     52  NE2       24.0600   64.2590  103.0710 N.am   71  GLN71      -0.0878
     53  N         19.1530   59.7060  103.3000 N.am   72  ILE72      -0.1980
     54  CA        18.6780   58.4690  103.9090 C.3    72  ILE72       0.1595
     55  C         17.9690   57.6350  102.8730 C.2    72  ILE72       0.2287
     56  O         18.1620   56.4240  102.8430 O.2    72  ILE72      -0.2864
     57  CB        17.7510   58.7350  105.1160 C.3    72  ILE72       0.0276
     58  CG1       18.5110   59.4530  106.2310 C.3    72  ILE72       0.0022
     59  CG2       17.1240   57.4440  105.6330 C.3    72  ILE72       0.0022
     60  CD1       19.6600   58.6490  106.7780 C.3    72  ILE72       0.0001
     61  N         20.4250   55.9360  100.7190 N.3    75  LEU75      -0.1245
     62  CA        21.0670   54.8370  101.4000 C.3    75  LEU75       0.1561
     63  C         20.1620   53.6200  101.4240 C.2    75  LEU75       0.2260
     64  O         20.5720   52.5470  101.0790 O.2    75  LEU75      -0.2867
     65  CB        21.4230   55.1900  102.8270 C.3    75  LEU75       0.0270
     66  CG        22.8260   55.4260  103.2990 C.3    75  LEU75       0.0019
     67  CD1       22.7810   55.2890  104.8420 C.3    75  LEU75       0.0001
     68  CD2       23.8550   54.4210  102.7690 C.3    75  LEU75       0.0001
@<TRIPOS>BOND
     1    24    25    1
     2    25    28    1
     3    25    26    1
     4    28    29    1
     5    30    32   ar
     6    30    29   ar
     7    32    34   ar
     8    29    31   ar
     9    26    27    2
    10    26    35   am
    11    13    12    1
    12    11    10    2
    13    14    12    1
    14     9    12    1
    15     9     8    1
    16     9    10    1
    17    61    62    1
    18    35    36    1
    19    64    63    2
    20    10    15   am
    21    62    63    1
    22    62    65    1
    23    34    33   ar
    24    31    33   ar
    25    44    45    1
    26    37    36    1
    27    37    38    2
    28    45    46    1
    29    45    48    1
    30    47    46    2
    31    36    39    1
    32    49    48    1
    33    49    50    1
    34    46    53   am
    35    15    16    1
    36    17    18    2
    37    17    16    1
    38    68    66    1
    39    39    40    1
    40    65    66    1
    41    56    55    2
    42    55    54    1
    43    52    50   am
    44    16    19    1
    45    66    67    1
    46    53    54    1
    47    50    51    2
    48    40    41    1
    49    43    41   am
    50     1     2    1
    51    54    57    1
    52     4     3    2
    53     2     3    1
    54     2     5    1
    55    41    42    2
    56    19    20    1
    57    57    59    1
    58    57    58    1
    59    20    21    1
    60     7     5    1
    61     5     6    1
    62    58    60    1
    63    21    22    1
    64    22    23    1
