@<TRIPOS>MOLECULE
tmp/5yxlA01.pdb
 232 223 0 0 0
SMALL
GASTEIGER

@<TRIPOS>ATOM
      1  N         27.8360   40.6000   46.3440 N.3    39  PHE39      -0.1241
      2  CA        28.7590   41.7100   46.5020 C.3    39  PHE39       0.1605
      3  C         28.2530   42.9580   45.7630 C.2    39  PHE39       0.2264
      4  O         28.2370   44.0360   46.3150 O.2    39  PHE39      -0.2867
      5  CB        30.1530   41.3450   45.9940 C.3    39  PHE39       0.0534
      6  CG        31.2060   42.3370   46.3690 C.ar   39  PHE39      -0.0203
      7  CD1       31.4510   43.4390   45.5600 C.ar   39  PHE39      -0.0042
      8  CD2       31.8930   42.2200   47.5490 C.ar   39  PHE39      -0.0042
      9  CE1       32.4030   44.3930   45.9180 C.ar   39  PHE39      -0.0003
     10  CE2       32.8830   43.1410   47.8920 C.ar   39  PHE39      -0.0003
     11  CZ        33.1240   44.2340   47.0870 C.ar   39  PHE39      -0.0000
     12  N         25.4270   44.6160   47.7230 N.3    42  LEU42      -0.1231
     13  CA        25.9740   45.3550   48.8390 C.3    42  LEU42       0.1693
     14  C         26.6290   46.6740   48.3450 C.2    42  LEU42       0.2592
     15  O         26.5040   47.7020   48.9910 O.2    42  LEU42      -0.2718
     16  CB        26.9560   44.5260   49.5810 C.3    42  LEU42       0.0284
     17  CG        26.3620   43.2410   50.2000 C.3    42  LEU42       0.0019
     18  CD1       27.5100   42.5310   50.9170 C.3    42  LEU42       0.0001
     19  CD2       25.1790   43.4620   51.1090 C.3    42  LEU42       0.0001
     20  N         27.2450   46.6260   47.1780 N.am   43  THR43      -0.1953
     21  CA        27.8190   47.7970   46.5400 C.3    43  THR43       0.1897
     22  C         26.7610   48.8180   46.1720 C.2    43  THR43       0.2313
     23  O         26.8990   50.0000   46.4950 O.2    43  THR43      -0.2863
     24  CB        28.6010   47.3990   45.2620 C.3    43  THR43       0.1794
     25  OG1       29.6480   46.5020   45.6380 O.3    43  THR43      -0.2208
     26  CG2       29.2530   48.6090   44.6020 C.3    43  THR43       0.0378
     27  N         23.8960   49.0880   47.5460 N.3    45  MET45      -0.1230
     28  CA        23.3570   49.5740   48.7900 C.3    45  MET45       0.1702
     29  C         24.2650   50.6420   49.4140 C.2    45  MET45       0.2592
     30  O         23.7580   51.6960   49.8620 O.2    45  MET45      -0.2718
     31  CB        23.1610   48.4270   49.8020 C.3    45  MET45       0.0401
     32  CG        21.9590   47.5290   49.5020 C.3    45  MET45       0.0596
     33  SD        21.8350   46.1600   50.7090 S.3    45  MET45      -0.1393
     34  CE        21.0610   47.0460   52.0530 C.3    45  MET45       0.0692
     35  N         25.5490   50.3330   49.4840 N.am   46  ALA46      -0.1980
     36  CA        26.5440   51.2440   50.0650 C.3    46  ALA46       0.1597
     37  C         26.5860   52.6100   49.3170 C.2    46  ALA46       0.2287
     38  O         26.6130   53.6750   49.9510 O.2    46  ALA46      -0.2864
     39  CB        27.9370   50.6160   49.9760 C.3    46  ALA46       0.0319
     40  N         23.5650   54.5180   50.2600 N.3    49  HIS49      -0.1241
     41  CA        23.8120   55.1230   51.6000 C.3    49  HIS49       0.1621
     42  C         24.6090   56.4090   51.5260 C.2    49  HIS49       0.2264
     43  O         24.2280   57.3770   52.1360 O.2    49  HIS49      -0.2867
     44  CB        24.5480   54.2120   52.5990 C.3    49  HIS49       0.0745
     45  CG        23.8460   52.9350   52.9180 C.ar   49  HIS49       0.0817
     46  ND1       22.4850   52.7710   52.7530 N.ar   49  HIS49      -0.2268
     47  CD2       24.3260   51.7440   53.3730 C.ar   49  HIS49       0.1154
     48  CE1       22.1700   51.5170   53.0650 C.ar   49  HIS49       0.1986
     49  NE2       23.2730   50.8780   53.4210 N.ar   49  HIS49      -0.2212
     50  N         32.5460   56.7850   56.6460 N.3    80  VAL80      -0.1245
     51  CA        32.5520   55.4010   57.0590 C.3    80  VAL80       0.1561
     52  C         31.5930   55.2040   58.2440 C.2    80  VAL80       0.2260
     53  O         30.7590   54.3220   58.2210 O.2    80  VAL80      -0.2867
     54  CB        33.9590   54.8830   57.3890 C.3    80  VAL80       0.0252
     55  CG1       33.8850   53.4920   58.0050 C.3    80  VAL80       0.0019
     56  CG2       34.7580   54.8900   56.1150 C.3    80  VAL80       0.0019
     57  N         27.7180   55.8520   57.0540 N.3    83  MET83      -0.1230
     58  CA        27.2330   54.7850   56.2320 C.3    83  MET83       0.1702
     59  C         26.9770   53.5380   57.0770 C.2    83  MET83       0.2592
     60  O         26.0320   52.8560   56.8390 O.2    83  MET83      -0.2718
     61  CB        28.3320   54.3050   55.2510 C.3    83  MET83       0.0401
     62  CG        28.7180   55.3240   54.2130 C.3    83  MET83       0.0596
     63  SD        30.1890   54.6710   53.3620 S.3    83  MET83      -0.1393
     64  CE        29.3460   53.3630   52.3720 C.3    83  MET83       0.0692
     65  N         27.9340   53.2010   57.9610 N.am   84  PHE84      -0.1976
     66  CA        27.7880   52.0450   58.7740 C.3    84  PHE84       0.1639
     67  C         26.5830   52.1910   59.6960 C.2    84  PHE84       0.2290
     68  O         25.7990   51.2530   59.8410 O.2    84  PHE84      -0.2864
     69  CB        29.0680   51.6920   59.5390 C.3    84  PHE84       0.0560
     70  CG        29.4010   50.3060   59.4130 C.ar   84  PHE84      -0.0200
     71  CD1       30.0100   49.8480   58.2580 C.ar   84  PHE84      -0.0042
     72  CD2       29.0060   49.4020   60.3650 C.ar   84  PHE84      -0.0042
     73  CE1       30.2790   48.5000   58.0660 C.ar   84  PHE84      -0.0003
     74  CE2       29.2820   48.0630   60.2100 C.ar   84  PHE84      -0.0003
     75  CZ        29.9070   47.6190   59.0480 C.ar   84  PHE84      -0.0000
     76  N         23.4900   51.7640   57.6080 N.3    87  SER87      -0.1217
     77  CA        23.2710   50.3310   57.2450 C.3    87  SER87       0.1889
     78  C         22.7150   49.5620   58.4370 C.2    87  SER87       0.2288
     79  O         21.8270   48.7280   58.2660 O.2    87  SER87      -0.2866
     80  CB        24.5210   49.6600   56.6970 C.3    87  SER87       0.2089
     81  OG        25.4800   49.4590   57.7500 O.3    87  SER87      -0.2183
     82  N         19.2600   39.2090   53.6050 N.3    97  LEU97      -0.1245
     83  CA        20.3990   40.1100   53.4130 C.3    97  LEU97       0.1561
     84  C         21.5900   39.5920   54.2270 C.2    97  LEU97       0.2260
     85  O         22.7480   39.5960   53.7940 O.2    97  LEU97      -0.2867
     86  CB        20.0560   41.5630   53.8250 C.3    97  LEU97       0.0270
     87  CG        21.1920   42.5860   53.7290 C.3    97  LEU97       0.0019
     88  CD1       21.6530   42.7770   52.2750 C.3    97  LEU97       0.0001
     89  CD2       20.7410   43.9120   54.3670 C.3    97  LEU97       0.0001
     90  N         25.2470   38.7580   52.7410 N.3   101  ILE101     -0.1245
     91  CA        26.4810   39.3100   53.3250 C.3   101  ILE101      0.1561
     92  C         27.4370   38.1940   53.7160 C.2   101  ILE101      0.2260
     93  O         28.6130   38.2730   53.4000 O.2   101  ILE101     -0.2867
     94  CB        26.1960   40.1990   54.5570 C.3   101  ILE101      0.0252
     95  CG1       25.4810   41.4740   54.1660 C.3   101  ILE101      0.0019
     96  CG2       27.4900   40.5620   55.2580 C.3   101  ILE101      0.0019
     97  CD1       24.7290   42.1130   55.3480 C.3   101  ILE101      0.0001
     98  N         33.3720   38.2710   51.5520 N.3   106  ILE106     -0.1245
     99  CA        33.9820   39.1840   52.5120 C.3   106  ILE106      0.1561
    100  C         34.3770   38.2790   53.6770 C.2   106  ILE106      0.2260
    101  O         33.6480   37.4010   54.0790 O.2   106  ILE106     -0.2867
    102  CB        33.0370   40.3170   52.9670 C.3   106  ILE106      0.0252
    103  CG1       32.7130   41.1880   51.7680 C.3   106  ILE106      0.0019
    104  CG2       33.6740   41.1910   54.0250 C.3   106  ILE106      0.0019
    105  CD1       31.5330   42.0750   51.9610 C.3   106  ILE106      0.0001
    106  N         35.8180   40.9670   59.0340 N.3   110  TYR110     -0.1227
    107  CA        34.9870   42.1460   58.8800 C.3   110  TYR110      0.1736
    108  C         33.5010   41.8960   59.1450 C.2   110  TYR110      0.2595
    109  O         32.8210   42.7500   59.7490 O.2   110  TYR110     -0.2718
    110  CB        35.2220   42.7250   57.5070 C.3   110  TYR110      0.0548
    111  CG        36.7040   42.7920   57.2230 C.ar  110  TYR110     -0.0200
    112  CD1       37.5580   43.5090   58.0780 C.ar  110  TYR110     -0.0009
    113  CD2       37.2690   42.1220   56.1520 C.ar  110  TYR110     -0.0009
    114  CE1       38.9310   43.5300   57.8880 C.ar  110  TYR110      0.0417
    115  CE2       38.6270   42.1600   55.9310 C.ar  110  TYR110      0.0417
    116  CZ        39.4520   42.8660   56.7910 C.ar  110  TYR110      0.1957
    117  OH        40.7920   42.9360   56.5870 O.3   110  TYR110     -0.2866
    118  N         32.9990   40.7500   58.7340 N.am  111  ILE111     -0.1980
    119  CA        31.5930   40.3830   58.9530 C.3   111  ILE111      0.1595
    120  C         31.2720   40.2750   60.4510 C.2   111  ILE111      0.2287
    121  O         30.2810   40.7900   60.9230 O.2   111  ILE111     -0.2864
    122  CB        31.2000   38.9960   58.3300 C.3   111  ILE111      0.0276
    123  CG1       31.4800   38.8320   56.8380 C.3   111  ILE111      0.0022
    124  CG2       29.7240   38.7760   58.5320 C.3   111  ILE111      0.0022
    125  CD1       31.0580   40.0010   55.9830 C.3   111  ILE111      0.0001
    126  N         30.7780   43.6140   62.1950 N.3   114  MET114     -0.1245
    127  CA        29.6070   44.2520   61.6090 C.3   114  MET114      0.1570
    128  C         28.2970   43.7660   62.2990 C.2   114  MET114      0.2261
    129  O         27.5080   44.5760   62.7340 O.2   114  MET114     -0.2867
    130  CB        29.5060   43.9650   60.1070 C.3   114  MET114      0.0387
    131  CG        28.1860   44.4490   59.4360 C.3   114  MET114      0.0595
    132  SD        27.8910   44.0400   57.6500 S.3   114  MET114     -0.1393
    133  CE        29.0280   42.6820   57.4310 C.3   114  MET114      0.0692
    134  N         25.5310   45.6110   64.5720 N.3   118  TYR118     -0.1241
    135  CA        24.0940   45.5900   64.2440 C.3   118  TYR118      0.1605
    136  C         23.2230   45.0840   65.3840 C.2   118  TYR118      0.2264
    137  O         22.1790   45.6550   65.6700 O.2   118  TYR118     -0.2867
    138  CB        23.8000   44.6980   63.0120 C.3   118  TYR118      0.0534
    139  CG        24.1690   45.2630   61.6470 C.ar  118  TYR118     -0.0201
    140  CD1       24.8020   46.4880   61.5130 C.ar  118  TYR118     -0.0009
    141  CD2       23.9500   44.5040   60.4840 C.ar  118  TYR118     -0.0009
    142  CE1       25.1930   46.9690   60.2780 C.ar  118  TYR118      0.0417
    143  CE2       24.3230   44.9850   59.2350 C.ar  118  TYR118      0.0417
    144  CZ        24.9370   46.2370   59.1460 C.ar  118  TYR118      0.1957
    145  OH        25.3210   46.7330   57.9280 O.3   118  TYR118     -0.2866
    146  N         34.9450   51.2040   63.4280 N.3   192  PHE192     -0.1241
    147  CA        34.8770   50.7940   62.0090 C.3   192  PHE192      0.1605
    148  C         35.8100   51.5460   61.0690 C.2   192  PHE192      0.2264
    149  O         36.0050   51.1160   59.9110 O.2   192  PHE192     -0.2867
    150  CB        33.4310   50.7830   61.4730 C.3   192  PHE192      0.0534
    151  CG        32.6540   49.6080   61.9670 C.ar  192  PHE192     -0.0203
    152  CD1       32.7250   48.4280   61.2970 C.ar  192  PHE192     -0.0042
    153  CD2       32.0230   49.6460   63.2230 C.ar  192  PHE192     -0.0042
    154  CE1       32.1050   47.2930   61.8240 C.ar  192  PHE192     -0.0003
    155  CE2       31.3960   48.5410   63.7420 C.ar  192  PHE192     -0.0003
    156  CZ        31.4430   47.3600   63.0520 C.ar  192  PHE192     -0.0000
    157  N         38.5760   48.9480   60.7160 N.3   195  HIS195     -0.1226
    158  CA        38.0540   47.8650   59.9430 C.3   195  HIS195      0.1752
    159  C         37.9680   48.2250   58.4470 C.2   195  HIS195      0.2596
    160  O         38.4980   47.5120   57.5850 O.2   195  HIS195     -0.2718
    161  CB        36.6720   47.4560   60.4610 C.3   195  HIS195      0.0759
    162  CG        36.7120   46.7840   61.8090 C.ar  195  HIS195      0.0818
    163  ND1       37.7500   45.9720   62.2030 N.ar  195  HIS195     -0.2268
    164  CD2       35.8560   46.8300   62.8670 C.ar  195  HIS195      0.1154
    165  CE1       37.5160   45.5220   63.4280 C.ar  195  HIS195      0.1986
    166  NE2       36.3880   46.0460   63.8600 N.ar  195  HIS195     -0.2212
    167  N         37.3670   49.3730   58.1570 N.am  196  HIS196     -0.1975
    168  CA        37.2390   49.8540   56.7600 C.3   196  HIS196      0.1656
    169  C         38.5890   50.0250   56.0530 C.2   196  HIS196      0.2291
    170  O         38.7470   49.5670   54.9050 O.2   196  HIS196     -0.2864
    171  CB        36.4840   51.1700   56.7390 C.3   196  HIS196      0.0771
    172  CG        36.5520   51.8970   55.4430 C.ar  196  HIS196      0.0820
    173  ND1       35.6850   51.6490   54.4050 N.ar  196  HIS196     -0.2267
    174  CD2       37.3480   52.9190   55.0370 C.ar  196  HIS196      0.1154
    175  CE1       35.9430   52.4800   53.4100 C.ar  196  HIS196      0.1986
    176  NE2       36.9410   53.2840   53.7700 N.ar  196  HIS196     -0.2212
    177  N         39.8630   46.6180   55.2270 N.3   199  MET199     -0.1230
    178  CA        39.1760   46.0090   54.1220 C.3   199  MET199      0.1702
    179  C         39.5220   46.5530   52.7680 C.2   199  MET199      0.2592
    180  O         39.5600   45.7720   51.8430 O.2   199  MET199     -0.2718
    181  CB        37.6930   46.1920   54.2080 C.3   199  MET199      0.0401
    182  CG        37.0470   45.4120   55.2390 C.3   199  MET199      0.0596
    183  SD        35.2880   45.5390   54.9820 S.3   199  MET199     -0.1393
    184  CE        34.9280   44.9430   53.3530 C.3   199  MET199      0.0692
    185  N         39.6800   47.8700   52.6400 N.am  200  LEU200     -0.1980
    186  CA        40.0930   48.4500   51.3590 C.3   200  LEU200      0.1596
    187  C         41.4250   47.9180   50.8660 C.2   200  LEU200      0.2287
    188  O         41.5990   47.8640   49.7230 O.2   200  LEU200     -0.2864
    189  CB        40.1800   49.9800   51.3980 C.3   200  LEU200      0.0297
    190  CG        38.8670   50.7510   51.3500 C.3   200  LEU200      0.0022
    191  CD1       39.2200   52.2380   51.4810 C.3   200  LEU200      0.0001
    192  CD2       38.0860   50.3980   50.0890 C.3   200  LEU200      0.0001
    193  N         38.5060   42.6220   48.0500 N.3   205  VAL205     -0.1245
    194  CA        37.7680   43.8890   48.0620 C.3   205  VAL205      0.1561
    195  C         38.3010   44.8640   47.0570 C.2   205  VAL205      0.2260
    196  O         37.4990   45.4720   46.3400 O.2   205  VAL205     -0.2867
    197  CB        37.7470   44.5290   49.4710 C.3   205  VAL205      0.0252
    198  CG1       37.0020   45.8490   49.4840 C.3   205  VAL205      0.0019
    199  CG2       37.0720   43.5860   50.4660 C.3   205  VAL205      0.0019
    200  N         34.4640   49.5570   42.2670 N.3   210  PHE210     -0.1241
    201  CA        33.5120   50.2360   43.1360 C.3   210  PHE210      0.1605
    202  C         32.9460   51.2490   42.2320 C.2   210  PHE210      0.2264
    203  O         33.6380   51.6310   41.2720 O.2   210  PHE210     -0.2867
    204  CB        34.1700   50.8610   44.3400 C.3   210  PHE210      0.0534
    205  CG        34.6010   49.8520   45.3620 C.ar  210  PHE210     -0.0203
    206  CD1       33.6540   49.0080   45.9890 C.ar  210  PHE210     -0.0042
    207  CD2       35.9460   49.7420   45.7210 C.ar  210  PHE210     -0.0042
    208  CE1       34.0570   48.0740   46.9250 C.ar  210  PHE210     -0.0003
    209  CE2       36.3410   48.8130   46.6700 C.ar  210  PHE210     -0.0003
    210  CZ        35.3970   47.9720   47.2510 C.ar  210  PHE210     -0.0000
    211  N         31.6090   55.8120   45.5040 N.3   214  LEU214     -0.1245
    212  CA        32.3320   55.1260   46.5580 C.3   214  LEU214      0.1561
    213  C         33.8570   55.3680   46.4750 C.2   214  LEU214      0.2260
    214  O         34.5170   55.6820   47.4590 O.2   214  LEU214     -0.2867
    215  CB        32.0140   53.6370   46.5380 C.3   214  LEU214      0.0270
    216  CG        30.6390   53.2260   47.0290 C.3   214  LEU214      0.0019
    217  CD1       30.5540   51.6920   46.8700 C.3   214  LEU214      0.0001
    218  CD2       30.4720   53.6570   48.4610 C.3   214  LEU214      0.0001
    219  N         35.6210   57.4150   49.5600 N.3   218  TRP218     -0.1241
    220  CA        36.5880   56.6380   50.3000 C.3   218  TRP218      0.1605
    221  C         38.0690   56.9660   49.9490 C.2   218  TRP218      0.2264
    222  O         38.9550   56.2940   50.4220 O.2   218  TRP218     -0.2867
    223  CB        36.3390   55.1560   50.0250 C.3   218  TRP218      0.0550
    224  CG        35.1400   54.5600   50.6980 C.ar  218  TRP218      0.0003
    225  CD1       34.4360   55.0560   51.7340 C.ar  218  TRP218      0.0946
    226  CD2       34.5100   53.3560   50.3120 C.ar  218  TRP218      0.0152
    227  NE1       33.4120   54.2170   52.0620 N.ar  218  TRP218     -0.2442
    228  CE2       33.4500   53.1450   51.1990 C.ar  218  TRP218      0.0810
    229  CE3       34.7780   52.3980   49.3300 C.ar  218  TRP218      0.0012
    230  CZ2       32.6400   52.0000   51.1470 C.ar  218  TRP218      0.0191
    231  CZ3       33.9310   51.2770   49.2480 C.ar  218  TRP218      0.0001
    232  CH2       32.8820   51.0980   50.1620 C.ar  218  TRP218      0.0015
@<TRIPOS>BOND
     1   203   202    2
     2   202   201    1
     3   200   201    1
     4   201   204    1
     5   204   205    1
     6    26    24    1
     7    24    25    1
     8    24    21    1
     9   205   207   ar
    10   205   206   ar
    11   211   212    1
    12     7     9   ar
    13     7     6   ar
    14   207   209   ar
    15     3     4    2
    16     3     2    1
    17     9    11   ar
    18   206   208   ar
    19     5     6    1
    20     5     2    1
    21    22    23    2
    22    22    21    1
    23   196   195    2
    24     1     2    1
    25     6     8   ar
    26   213   212    1
    27   213   214    2
    28   215   212    1
    29   215   216    1
    30    21    20    1
    31   209   210   ar
    32   217   216    1
    33   208   210   ar
    34   216   218    1
    35   195   194    1
    36    11    10   ar
    37    20    14   am
    38    27    28    1
    39     8    10   ar
    40    12    13    1
    41   193   194    1
    42   194   197    1
    43    14    13    1
    44    14    15    2
    45    28    29    1
    46    28    31    1
    47    13    16    1
    48   231   229   ar
    49   231   232   ar
    50    37    38    2
    51    37    36    1
    52   229   226   ar
    53    29    35   am
    54    29    30    2
    55   197   198    1
    56   197   199    1
    57    35    36    1
    58    32    31    1
    59    32    33    1
    60   219   220    1
    61    16    17    1
    62   188   187    2
    63   221   220    1
    64   221   222    2
    65    39    36    1
    66   223   220    1
    67   223   224    1
    68   192   190    1
    69   232   230   ar
    70    17    18    1
    71    17    19    1
    72    40    41    1
    73   226   224   ar
    74   226   228   ar
    75   224   225   ar
    76    33    34    1
    77   187   186    1
    78   230   228   ar
    79   228   227   ar
    80   190   189    1
    81   190   191    1
    82   186   189    1
    83   186   185    1
    84    42    41    1
    85    42    43    2
    86    98    99    1
    87    41    44    1
    88   225   227   ar
    89   103   105    1
    90   103   102    1
    91   180   179    2
    92    88    87    1
    93    64    63    1
    94    99   102    1
    95    99   100    1
    96    44    45    1
    97   185   179   am
    98    90    91    1
    99    46    45   ar
   100    46    48   ar
   101   179   178    1
   102    45    47   ar
   103   102   104    1
   104    48    49   ar
   105    91    92    1
   106    91    94    1
   107   184   183    1
   108    63    62    1
   109    47    49   ar
   110    93    92    2
   111   175   176   ar
   112   175   173   ar
   113    83    82    1
   114    83    86    1
   115    83    84    1
   116   100   101    2
   117    87    86    1
   118    87    89    1
   119   176   174   ar
   120    85    84    2
   121   178   181    1
   122   178   177    1
   123    95    94    1
   124    95    97    1
   125   181   182    1
   126    62    61    1
   127   173   172   ar
   128    94    96    1
   129   170   169    2
   130   183   182    1
   131   174   172   ar
   132    61    58    1
   133   172   171    1
   134   115   113   ar
   135   115   116   ar
   136   125   123    1
   137   169   168    1
   138    56    54    1
   139   113   111   ar
   140    58    57    1
   141    58    59    1
   142   117   116    1
   143    50    51    1
   144    80    77    1
   145    80    81    1
   146   171   168    1
   147   168   167    1
   148   116   114   ar
   149   123   122    1
   150    60    59    2
   151    51    54    1
   152    51    52    1
   153    59    65   am
   154   111   110    1
   155   111   112   ar
   156    77    76    1
   157    77    78    1
   158    54    55    1
   159   133   132    1
   160   110   107    1
   161   160   159    2
   162   132   131    1
   163   114   112   ar
   164   145   144    1
   165    65    66    1
   166    73    71   ar
   167    73    75   ar
   168   167   159   am
   169    53    52    2
   170    71    70   ar
   171    79    78    2
   172   122   124    1
   173   122   119    1
   174   159   158    1
   175   118   119    1
   176   118   108   am
   177    66    69    1
   178    66    67    1
   179   107   106    1
   180   107   108    1
   181   119   120    1
   182    75    74   ar
   183   108   109    2
   184   144   143   ar
   185   144   142   ar
   186   143   141   ar
   187    70    69    1
   188    70    72   ar
   189   131   130    1
   190    67    68    2
   191   149   148    2
   192   158   161    1
   193   158   157    1
   194   130   127    1
   195    74    72   ar
   196   142   140   ar
   197   120   121    2
   198   161   162    1
   199   141   139   ar
   200   148   147    1
   201   152   154   ar
   202   152   151   ar
   203   150   151    1
   204   150   147    1
   205   140   139   ar
   206   127   126    1
   207   127   128    1
   208   139   138    1
   209   162   163   ar
   210   162   164   ar
   211   154   156   ar
   212   151   153   ar
   213   147   146    1
   214   163   165   ar
   215   128   129    2
   216   164   166   ar
   217   138   135    1
   218   156   155   ar
   219   153   155   ar
   220   165   166   ar
   221   135   134    1
   222   135   136    1
   223   136   137    2
