@<TRIPOS>MOLECULE
tmp/5yy1A01.pdb
 185 178 0 0 0
SMALL
GASTEIGER

@<TRIPOS>ATOM
      1  N         19.4170    0.6520   15.7640 N.3    10  VAL10      -0.1231
      2  CA        20.0810   -0.3940   16.5430 C.3    10  VAL10       0.1692
      3  C         21.0940   -1.1250   15.6770 C.2    10  VAL10       0.2592
      4  O         21.1260   -0.9440   14.4570 O.2    10  VAL10      -0.2718
      5  CB        19.0760   -1.3990   17.1760 C.3    10  VAL10       0.0266
      6  CG1       18.0400   -0.6650   18.0220 C.3    10  VAL10       0.0020
      7  CG2       18.3960   -2.2450   16.1200 C.3    10  VAL10       0.0020
      8  N         21.9280   -1.9400   16.3220 N.am   11  GLY11      -0.1957
      9  CA        23.0070   -2.6540   15.6420 C.3    11  GLY11       0.1869
     10  C         24.2900   -2.5780   16.4480 C.2    11  GLY11       0.2309
     11  O         24.4120   -1.7540   17.3560 O.2    11  GLY11      -0.2863
     12  N         28.2720   -2.1340   17.7560 N.3    13  CYS13      -0.1221
     13  CA        29.2150   -1.0130   17.7470 C.3    13  CYS13       0.1808
     14  C         29.9320   -0.9190   16.4090 C.2    13  CYS13       0.2601
     15  O         30.3410   -1.9350   15.8380 O.2    13  CYS13      -0.2717
     16  CB        30.2640   -1.1720   18.8490 C.3    13  CYS13       0.0970
     17  SG        29.6320   -1.0200   20.5030 S.3    13  CYS13      -0.0800
     18  N         30.0740    0.3090   15.9170 N.am   14  GLY14      -0.1957
     19  CA        30.8920    0.6000   14.7560 C.3    14  GLY14       0.1869
     20  C         30.2480    0.4080   13.3970 C.2    14  GLY14       0.2309
     21  O         30.9160    0.5670   12.3850 O.2    14  GLY14      -0.2863
     22  N         25.5850    3.6770   13.1520 N.3    17  LYS17      -0.1245
     23  CA        24.3030    4.1740   13.6780 C.3    17  LYS17       0.1561
     24  C         24.3300    5.6810   13.8900 C.2    17  LYS17       0.2260
     25  O         23.4110    6.4020   13.4930 O.2    17  LYS17      -0.2867
     26  CB        23.9620    3.5070   15.0130 C.3    17  LYS17       0.0271
     27  CG        23.8640    1.9860   14.9610 C.3    17  LYS17       0.0035
     28  CD        23.4630    1.3910   16.2980 C.3    17  LYS17       0.0206
     29  CE        24.5090    1.5880   17.3910 C.3    17  LYS17       0.1093
     30  NZ        25.7670    0.8800   17.0700 N.3    17  LYS17      -0.1314
     31  N         31.3540    6.5550   20.9090 N.3    35  PRO35      -0.2116
     32  CA        30.4790    5.3860   21.0360 C.3    35  PRO35       0.1372
     33  C         29.6960    5.2980   22.3570 C.2    35  PRO35       0.2244
     34  O         28.7890    4.4710   22.4630 O.2    35  PRO35      -0.2868
     35  CB        31.4490    4.2060   20.9070 C.3    35  PRO35       0.0268
     36  CG        32.7640    4.7540   21.3440 C.3    35  PRO35       0.0207
     37  CD        32.7770    6.1620   20.8450 C.3    35  PRO35       0.0892
     38  N         24.6460    8.0300   23.7930 N.3    38  GLU38      -0.1245
     39  CA        23.3300    7.5990   23.3440 C.3    38  GLU38       0.1567
     40  C         22.4010    8.7870   23.5420 C.2    38  GLU38       0.2260
     41  O         22.3420    9.3540   24.6320 O.2    38  GLU38      -0.2867
     42  CB        22.8470    6.4050   24.1610 C.3    38  GLU38       0.0388
     43  CG        21.3900    6.0670   23.9360 C.3    38  GLU38       0.1160
     44  CD        20.9870    4.7230   24.4900 C.2    38  GLU38       0.3649
     45  OE1       21.7340    3.7440   24.3070 O.co2  38  GLU38      -0.2457
     46  OE2       19.8980    4.6500   25.0950 O.co2  38  GLU38      -0.2457
     47  N         20.9990    4.4240   19.6380 N.3    59  THR59      -0.1203
     48  CA        21.4100    3.5990   20.7790 C.3    59  THR59       0.1994
     49  C         22.9250    3.4620   20.8200 C.2    59  THR59       0.2618
     50  O         23.5730    3.4270   19.7870 O.2    59  THR59      -0.2717
     51  CB        20.7700    2.1940   20.7560 C.3    59  THR59       0.1784
     52  OG1       21.1920    1.4730   19.5940 O.3    59  THR59      -0.2211
     53  CG2       19.2580    2.3050   20.7710 C.3    59  THR59       0.0376
     54  N         23.4790    3.3780   22.0250 N.am   60  ALA60      -0.1965
     55  CA        24.9260    3.3600   22.1930 C.3    60  ALA60       0.1728
     56  C         25.2840    2.8240   23.5740 C.2    60  ALA60       0.2617
     57  O         24.5260    2.0500   24.1520 O.2    60  ALA60      -0.2715
     58  CB        25.4880    4.7660   21.9810 C.3    60  ALA60       0.0334
     59  N         26.4410    3.2240   24.0940 N.am   61  GLY61      -0.1940
     60  CA        26.8170    2.8900   25.4630 C.3    61  GLY61       0.2014
     61  C         27.4220    1.5090   25.5640 C.2    61  GLY61       0.2639
     62  O         28.4600    1.2330   24.9540 O.2    61  GLY61      -0.2714
     63  N         26.7720    0.6420   26.3350 N.am   62  GLN62      -0.1963
     64  CA        27.2860   -0.7010   26.6130 C.3    62  GLN62       0.1733
     65  C         26.2380   -1.7510   26.2920 C.2    62  GLN62       0.2616
     66  O         25.0680   -1.4200   26.1260 O.2    62  GLN62      -0.2715
     67  CB        27.6370   -0.8180   28.0940 C.3    62  GLN62       0.0408
     68  CG        28.6190    0.2200   28.5930 C.3    62  GLN62       0.0908
     69  CD        30.0520   -0.1860   28.3670 C.2    62  GLN62       0.2608
     70  OE1       30.5830   -0.0690   27.2610 O.2    62  GLN62      -0.2717
     71  NE2       30.6980   -0.6640   29.4250 N.am   62  GLN62      -0.0878
     72  N         26.6550   -3.0130   26.2120 N.am   63  GLU63      -0.1963
     73  CA        25.6960   -4.1120   26.2250 C.3    63  GLU63       0.1733
     74  C         25.2420   -4.3150   27.6660 C.2    63  GLU63       0.2616
     75  O         25.9540   -4.9030   28.4840 O.2    63  GLU63      -0.2715
     76  CB        26.2610   -5.4180   25.6490 C.3    63  GLU63       0.0429
     77  CG        25.1970   -6.5280   25.6530 C.3    63  GLU63       0.1163
     78  CD        25.6100   -7.8190   24.9750 C.2    63  GLU63       0.3649
     79  OE1       26.6750   -7.8640   24.3190 O.co2  63  GLU63      -0.2457
     80  OE2       24.8480   -8.8040   25.1120 O.co2  63  GLU63      -0.2457
     81  N         24.0620   -3.7950   27.9720 N.am   64  GLU64      -0.1963
     82  CA        23.4440   -3.9810   29.2750 C.3    64  GLU64       0.1733
     83  C         21.9400   -3.8890   29.1140 C.2    64  GLU64       0.2616
     84  O         21.4550   -3.2580   28.1770 O.2    64  GLU64      -0.2715
     85  CB        23.9630   -2.9580   30.2900 C.3    64  GLU64       0.0429
     86  CG        24.0200   -1.5080   29.8000 C.3    64  GLU64       0.1163
     87  CD        22.6870   -0.7870   29.8640 C.2    64  GLU64       0.3649
     88  OE1       21.8310   -1.1650   30.6960 O.co2  64  GLU64      -0.2457
     89  OE2       22.5000    0.1720   29.0820 O.co2  64  GLU64      -0.2457
     90  N         21.2090   -4.5180   30.0260 N.am   65  TYR65      -0.1974
     91  CA        19.7800   -4.7150   29.8390 C.3    65  TYR65       0.1639
     92  C         18.9850   -4.0710   30.9640 C.2    65  TYR65       0.2290
     93  O         18.1290   -4.7000   31.5790 O.2    65  TYR65      -0.2864
     94  CB        19.4890   -6.2130   29.6770 C.3    65  TYR65       0.0560
     95  CG        20.1910   -6.7800   28.4610 C.ar   65  TYR65      -0.0198
     96  CD1       21.5010   -7.2440   28.5370 C.ar   65  TYR65      -0.0009
     97  CD2       19.5560   -6.8110   27.2240 C.ar   65  TYR65      -0.0009
     98  CE1       22.1550   -7.7370   27.4120 C.ar   65  TYR65       0.0417
     99  CE2       20.1940   -7.3000   26.1020 C.ar   65  TYR65       0.0417
    100  CZ        21.4920   -7.7620   26.1960 C.ar   65  TYR65       0.1957
    101  OH        22.1160   -8.2420   25.0690 O.3    65  TYR65      -0.2866
    102  N         16.1780    0.8700   29.7000 N.3    69  ARG69      -0.1231
    103  CA        16.3820    0.5030   28.3030 C.3    69  ARG69       0.1694
    104  C         15.2020   -0.3000   27.7470 C.2    69  ARG69       0.2592
    105  O         14.7020    0.0200   26.6800 O.2    69  ARG69      -0.2718
    106  CB        17.6970   -0.2620   28.1450 C.3    69  ARG69       0.0321
    107  CG        17.9810   -0.7410   26.7390 C.3    69  ARG69       0.0489
    108  CD        19.4470   -1.0860   26.5790 C.3    69  ARG69       0.2205
    109  NE        20.2530    0.0510   26.1350 N.pl3  69  ARG69      -0.0865
    110  CZ        21.5700   -0.0050   25.9560 C.cat  69  ARG69       0.5346
    111  NH1       22.2330   -1.1290   26.1890 N.pl3  69  ARG69       0.1354
    112  NH2       22.2290    1.0600   25.5330 N.pl3  69  ARG69       0.1354
    113  N         14.7510   -1.3260   28.4640 N.am   70  ASP70      -0.1974
    114  CA        13.6030   -2.1280   28.0040 C.3    70  ASP70       0.1709
    115  C         12.3690   -1.2580   27.7780 C.2    70  ASP70       0.2293
    116  O         11.6910   -1.3900   26.7600 O.2    70  ASP70      -0.2864
    117  CB        13.2430   -3.2260   29.0110 C.3    70  ASP70       0.1436
    118  CG        13.9210   -4.5560   28.7210 C.2    70  ASP70       0.3671
    119  OD1       14.8630   -4.6040   27.9030 O.co2  70  ASP70      -0.2456
    120  OD2       13.5090   -5.5630   29.3310 O.co2  70  ASP70      -0.2456
    121  N         13.0250    1.1190   24.9350 N.3    73  MET73      -0.1245
    122  CA        12.9680    0.4190   23.6630 C.3    73  MET73       0.1570
    123  C         11.5420    0.0090   23.3050 C.2    73  MET73       0.2261
    124  O         11.1790   -0.0170   22.1320 O.2    73  MET73      -0.2867
    125  CB        13.8970   -0.7960   23.6960 C.3    73  MET73       0.0387
    126  CG        15.3750   -0.4140   23.7770 C.3    73  MET73       0.0595
    127  SD        15.9510    0.5230   22.3420 S.3    73  MET73      -0.1393
    128  CE        15.9010   -0.7520   21.1150 C.3    73  MET73       0.0692
    129  N         20.2430  -11.1630   16.9440 N.3    96  HIS96      -0.1226
    130  CA        20.1220  -10.6820   18.3170 C.3    96  HIS96       0.1752
    131  C         19.2370   -9.4400   18.4440 C.2    96  HIS96       0.2596
    132  O         18.3400   -9.3810   19.2900 O.2    96  HIS96      -0.2718
    133  CB        21.5120  -10.3750   18.8650 C.3    96  HIS96       0.0759
    134  CG        21.5030   -9.7210   20.2040 C.ar   96  HIS96       0.0818
    135  ND1       21.1970  -10.4020   21.3640 N.ar   96  HIS96      -0.2268
    136  CD2       21.7920   -8.4520   20.5760 C.ar   96  HIS96       0.1154
    137  CE1       21.2840   -9.5730   22.3910 C.ar   96  HIS96       0.1986
    138  NE2       21.6500   -8.3860   21.9390 N.ar   96  HIS96      -0.2212
    139  N         19.4910   -8.4410   17.6050 N.am   97  TYR97      -0.1976
    140  CA        18.7130   -7.2050   17.6590 C.3    97  TYR97       0.1639
    141  C         17.2420   -7.4570   17.3140 C.2    97  TYR97       0.2290
    142  O         16.3510   -6.9360   17.9820 O.2    97  TYR97      -0.2864
    143  CB        19.3560   -6.1140   16.7900 C.3    97  TYR97       0.0560
    144  CG        20.6520   -5.6580   17.4190 C.ar   97  TYR97      -0.0198
    145  CD1       20.6530   -4.7030   18.4230 C.ar   97  TYR97      -0.0009
    146  CD2       21.8560   -6.2470   17.0780 C.ar   97  TYR97      -0.0009
    147  CE1       21.8310   -4.3090   19.0430 C.ar   97  TYR97       0.0417
    148  CE2       23.0370   -5.8650   17.6950 C.ar   97  TYR97       0.0417
    149  CZ        23.0140   -4.9000   18.6760 C.ar   97  TYR97       0.1957
    150  OH        24.1870   -4.5160   19.2890 O.3    97  TYR97      -0.2866
    151  N         15.6220   -9.2560   20.3750 N.3   100  GLN100     -0.1231
    152  CA        15.4690   -8.3700   21.5210 C.3   100  GLN100      0.1698
    153  C         14.3270   -7.3870   21.3120 C.2   100  GLN100      0.2592
    154  O         13.5980   -7.0770   22.2470 O.2   100  GLN100     -0.2718
    155  CB        16.7830   -7.6540   21.8290 C.3   100  GLN100      0.0381
    156  CG        17.8460   -8.6040   22.3480 C.3   100  GLN100      0.0905
    157  CD        17.3710   -9.3280   23.5860 C.2   100  GLN100      0.2608
    158  OE1       16.9620   -8.6920   24.5490 O.2   100  GLN100     -0.2717
    159  NE2       17.3670  -10.6580   23.5460 N.am  100  GLN100     -0.0878
    160  N         14.1620   -6.9100   20.0790 N.am  101  ILE101     -0.1980
    161  CA        12.9850   -6.1190   19.7410 C.3   101  ILE101      0.1595
    162  C         11.7140   -6.9580   19.9180 C.2   101  ILE101      0.2287
    163  O         10.7420   -6.4820   20.4970 O.2   101  ILE101     -0.2864
    164  CB        13.0590   -5.5560   18.2960 C.3   101  ILE101      0.0276
    165  CG1       14.2000   -4.5460   18.1790 C.3   101  ILE101      0.0022
    166  CG2       11.7520   -4.8640   17.9340 C.3   101  ILE101      0.0022
    167  CD1       14.7050   -4.3530   16.7650 C.3   101  ILE101      0.0001
    168  N         11.3200   -9.5370   21.8480 N.3   103  ARG103     -0.1231
    169  CA        11.1370   -9.7750   23.2780 C.3   103  ARG103      0.1694
    170  C         10.4220   -8.6080   23.9590 C.2   103  ARG103      0.2591
    171  O          9.4080   -8.8140   24.6370 O.2   103  ARG103     -0.2718
    172  CB        12.4850  -10.0420   23.9690 C.3   103  ARG103      0.0321
    173  CG        12.3630  -10.3560   25.4730 C.3   103  ARG103      0.0489
    174  CD        13.7120  -10.5520   26.1440 C.3   103  ARG103      0.2205
    175  NE        14.5750   -9.3800   26.0110 N.pl3 103  ARG103     -0.0865
    176  CZ        14.4700   -8.2630   26.7320 C.cat 103  ARG103      0.5346
    177  NH1       13.5240   -8.1320   27.6590 N.pl3 103  ARG103      0.1354
    178  NH2       15.3190   -7.2630   26.5290 N.pl3 103  ARG103      0.1354
    179  N         10.9490   -7.3950   23.7900 N.am  104  VAL104     -0.1980
    180  CA        10.4170   -6.2210   24.5040 C.3   104  VAL104      0.1595
    181  C          9.0670   -5.7350   23.9700 C.2   104  VAL104      0.2287
    182  O          8.2660   -5.2030   24.7400 O.2   104  VAL104     -0.2864
    183  CB        11.4090   -5.0170   24.5530 C.3   104  VAL104      0.0276
    184  CG1       12.6990   -5.4110   25.2600 C.3   104  VAL104      0.0022
    185  CG2       11.6900   -4.4350   23.1600 C.3   104  VAL104      0.0022
@<TRIPOS>BOND
     1    21    20    2
     2    22    23    1
     3    20    19    1
     4    25    24    2
     5    23    24    1
     6    23    26    1
     7     4     3    2
     8    19    18    1
     9    27    26    1
    10    27    28    1
    11     9     8    1
    12     9    10    1
    13     3     8   am
    14     3     2    1
    15     1     2    1
    16    15    14    2
    17    18    14   am
    18     7     5    1
    19    28    29    1
    20    14    13    1
    21    10    11    2
    22     2     5    1
    23   167   165    1
    24   143   144    1
    25   143   140    1
    26   129   130    1
    27    30    29    1
    28   146   144   ar
    29   146   148   ar
    30     5     6    1
    31   141   140    1
    32   141   142    2
    33   144   145   ar
    34   139   140    1
    35   139   131   am
    36   148   149   ar
    37    13    12    1
    38    13    16    1
    39   166   164    1
    40   165   164    1
    41   164   161    1
    42   130   131    1
    43   130   133    1
    44   145   147   ar
    45   131   132    2
    46   149   147   ar
    47   149   150    1
    48    16    17    1
    49   133   134    1
    50    52    51    1
    51    47    48    1
    52   161   162    1
    53   161   160    1
    54    50    49    2
    55   162   163    2
    56   160   153   am
    57   134   136   ar
    58   134   135   ar
    59   151   152    1
    60   136   138   ar
    61    51    53    1
    62    51    48    1
    63    48    49    1
    64    49    54   am
    65    37    31    1
    66    37    36    1
    67    35    32    1
    68    35    36    1
    69    31    32    1
    70    32    33    1
    71   128   127    1
    72   153   152    1
    73   153   154    2
    74   135   137   ar
    75   152   155    1
    76   155   156    1
    77   168   169    1
    78   138   137   ar
    79    58    55    1
    80    54    55    1
    81   124   123    2
    82    55    56    1
    83   127   126    1
    84   156   157    1
    85    33    34    2
    86   185   183    1
    87   169   170    1
    88   169   172    1
    89   123   122    1
    90    39    40    1
    91    39    38    1
    92    39    42    1
    93    40    41    2
    94   159   157   am
    95    56    59   am
    96    56    57    2
    97   157   158    2
    98   122   125    1
    99   122   121    1
   100   125   126    1
   101   179   170   am
   102   179   180    1
   103    43    42    1
   104    43    44    1
   105   170   171    2
   106   172   173    1
   107   181   180    1
   108   181   182    2
   109    59    60    1
   110    45    44   ar
   111    79    78   ar
   112    44    46   ar
   113   180   183    1
   114   183   184    1
   115    62    61    2
   116    78    80   ar
   117    78    77    1
   118   101   100    1
   119    60    61    1
   120   173   174    1
   121   112   110    1
   122    61    63   am
   123    76    77    1
   124    76    73    1
   125   110   109    2
   126   110   111    1
   127   175   174    1
   128   175   176    2
   129    99   100   ar
   130    99    97   ar
   131    66    65    2
   132   109   108    1
   133   100    98   ar
   134    72    73    1
   135    72    65   am
   136    73    74    1
   137    65    64    1
   138    63    64    1
   139   178   176    1
   140   108   107    1
   141    64    67    1
   142   105   104    2
   143   176   177    1
   144   107   106    1
   145   116   115    2
   146    97    95   ar
   147    70    69    2
   148    98    96   ar
   149    74    81   am
   150    74    75    2
   151   104   103    1
   152   104   113   am
   153   115   114    1
   154   119   118   ar
   155    81    82    1
   156   114   113    1
   157   114   117    1
   158    67    68    1
   159   106   103    1
   160    84    83    2
   161   103   102    1
   162    69    68    1
   163    69    71   am
   164    95    96   ar
   165    95    94    1
   166   118   117    1
   167   118   120   ar
   168    89    87   ar
   169    83    82    1
   170    83    90   am
   171    82    85    1
   172    94    91    1
   173    86    87    1
   174    86    85    1
   175    91    90    1
   176    91    92    1
   177    87    88   ar
   178    92    93    2
