@<TRIPOS>MOLECULE
tmp/5yy7B00.pdb
 214 203 0 0 0
SMALL
GASTEIGER

@<TRIPOS>ATOM
      1  N        -13.2880  -14.4710  -19.2050 N.3   186  HIS186     -0.1241
      2  CA       -13.6510  -14.4860  -20.6140 C.3   186  HIS186      0.1621
      3  C        -12.8550  -13.4310  -21.3680 C.2   186  HIS186      0.2264
      4  O        -12.3610  -12.4600  -20.7910 O.2   186  HIS186     -0.2867
      5  CB       -15.1570  -14.2610  -20.8190 C.3   186  HIS186      0.0745
      6  CG       -15.6720  -12.9860  -20.2260 C.ar  186  HIS186      0.0817
      7  ND1      -16.4200  -12.9540  -19.0700 N.ar  186  HIS186     -0.2268
      8  CD2      -15.5620  -11.7010  -20.6390 C.ar  186  HIS186      0.1154
      9  CE1      -16.7430  -11.7040  -18.7910 C.ar  186  HIS186      0.1986
     10  NE2      -16.2340  -10.9230  -19.7270 N.ar  186  HIS186     -0.2212
     11  N        -13.1620  -11.0160  -24.8770 N.3   188  VAL188     -0.1245
     12  CA       -14.1300  -10.4630  -25.8160 C.3   188  VAL188      0.1561
     13  C        -13.3870   -9.7920  -26.9620 C.2   188  VAL188      0.2260
     14  O        -12.3370   -9.1720  -26.7570 O.2   188  VAL188     -0.2867
     15  CB       -15.0770   -9.4700  -25.1140 C.3   188  VAL188      0.0252
     16  CG1      -16.1660   -9.0010  -26.0650 C.3   188  VAL188      0.0019
     17  CG2      -15.6830  -10.1100  -23.8770 C.3   188  VAL188      0.0019
     18  N        -27.2860   -1.8970  -25.3930 N.3   214  SER214     -0.1217
     19  CA       -27.3280   -0.6130  -26.0820 C.3   214  SER214      0.1889
     20  C        -25.9380   -0.2180  -26.5650 C.2   214  SER214      0.2288
     21  O        -25.1110    0.2590  -25.7810 O.2   214  SER214     -0.2866
     22  CB       -27.9060    0.4660  -25.1660 C.3   214  SER214      0.2089
     23  OG       -27.9670    1.7170  -25.8300 O.3   214  SER214     -0.2183
     24  N        -24.1750   -2.5480  -28.7880 N.3   216  LEU216     -0.1245
     25  CA       -23.4660   -3.7640  -29.1630 C.3   216  LEU216      0.1561
     26  C        -24.4730   -4.8820  -29.3930 C.2   216  LEU216      0.2260
     27  O        -25.6490   -4.7750  -29.0380 O.2   216  LEU216     -0.2867
     28  CB       -22.4380   -4.1570  -28.0950 C.3   216  LEU216      0.0270
     29  CG       -22.8470   -4.1290  -26.6200 C.3   216  LEU216      0.0019
     30  CD1      -23.5300   -5.4230  -26.2020 C.3   216  LEU216      0.0001
     31  CD2      -21.6330   -3.8560  -25.7480 C.3   216  LEU216      0.0001
     32  N        -24.1930   -8.8350  -28.4750 N.3   218  SER218     -0.1217
     33  CA       -23.3550   -9.8160  -27.8030 C.3   218  SER218      0.1889
     34  C        -23.8160  -11.2380  -28.1000 C.2   218  SER218      0.2288
     35  O        -24.9900  -11.4870  -28.3880 O.2   218  SER218     -0.2866
     36  CB       -23.3580   -9.5760  -26.2930 C.3   218  SER218      0.2089
     37  OG       -24.6760   -9.6160  -25.7750 O.3   218  SER218     -0.2183
     38  N        -22.1800  -14.9480  -26.4590 N.3   220  VAL220     -0.1245
     39  CA       -21.1080  -15.6360  -25.7490 C.3   220  VAL220      0.1561
     40  C        -21.0170  -17.0760  -26.2320 C.2   220  VAL220      0.2260
     41  O        -22.0350  -17.7340  -26.4790 O.2   220  VAL220     -0.2867
     42  CB       -21.3420  -15.5690  -24.2300 C.3   220  VAL220      0.0252
     43  CG1      -20.1750  -16.1970  -23.4810 C.3   220  VAL220      0.0019
     44  CG2      -21.5510  -14.1310  -23.7870 C.3   220  VAL220      0.0019
     45  N        -16.9030  -14.2740  -25.5900 N.3   231  PRO231     -0.2116
     46  CA       -17.9690  -13.4570  -26.1810 C.3   231  PRO231      0.1372
     47  C        -17.4540  -12.6220  -27.3430 C.2   231  PRO231      0.2244
     48  O        -16.2730  -12.2770  -27.4190 O.2   231  PRO231     -0.2868
     49  CB       -18.4230  -12.5640  -25.0190 C.3   231  PRO231      0.0268
     50  CG       -17.8460  -13.1920  -23.7800 C.3   231  PRO231      0.0207
     51  CD       -16.5780  -13.8430  -24.2220 C.3   231  PRO231      0.0892
     52  N        -18.7800   -9.1940  -29.9350 N.3   233  ASN233     -0.1240
     53  CA       -19.6990   -8.0680  -30.0150 C.3   233  ASN233      0.1653
     54  C        -19.5980   -7.3980  -31.3790 C.2   233  ASN233      0.2266
     55  O        -18.5360   -7.3840  -32.0070 O.2   233  ASN233     -0.2867
     56  CB       -19.4180   -7.0410  -28.9110 C.3   233  ASN233      0.1155
     57  CG       -19.5950   -7.6140  -27.5210 C.2   233  ASN233      0.2627
     58  OD1      -20.3770   -8.5410  -27.3150 O.2   233  ASN233     -0.2716
     59  ND2      -18.8710   -7.0600  -26.5570 N.am  233  ASN233     -0.0877
     60  N        -20.1510    2.2380  -29.2870 N.3   241  GLN241     -0.1245
     61  CA       -18.8990    2.0460  -28.5630 C.3   241  GLN241      0.1566
     62  C        -17.9750    1.0340  -29.2270 C.2   241  GLN241      0.2260
     63  O        -16.8080    0.9360  -28.8320 O.2   241  GLN241     -0.2867
     64  CB       -19.1840    1.6140  -27.1220 C.3   241  GLN241      0.0367
     65  CG       -19.9360    2.6480  -26.2940 C.3   241  GLN241      0.0905
     66  CD       -21.4320    2.6350  -26.5470 C.2   241  GLN241      0.2608
     67  OE1      -21.9460    1.7710  -27.2580 O.2   241  GLN241     -0.2717
     68  NE2      -22.1390    3.5950  -25.9620 N.am  241  GLN241     -0.0878
     69  N        -11.3190   -7.1250  -27.3470 N.3   255  GLN255     -0.1231
     70  CA       -11.8310   -5.9780  -26.6090 C.3   255  GLN255      0.1698
     71  C        -11.1960   -5.8840  -25.2270 C.2   255  GLN255      0.2592
     72  O        -10.3090   -5.0550  -25.0050 O.2   255  GLN255     -0.2718
     73  CB       -13.3550   -6.0530  -26.4920 C.3   255  GLN255      0.0381
     74  CG       -13.9800   -4.8740  -25.7610 C.3   255  GLN255      0.0905
     75  CD       -15.4930   -4.8870  -25.8250 C.2   255  GLN255      0.2608
     76  OE1      -16.1700   -4.6540  -24.8230 O.2   255  GLN255     -0.2717
     77  NE2      -16.0330   -5.1530  -27.0080 N.am  255  GLN255     -0.0878
     78  N        -11.6370   -6.7260  -24.2930 N.am  256  HIS256     -0.1976
     79  CA       -11.1370   -6.6780  -22.9270 C.3   256  HIS256      0.1656
     80  C        -10.9150   -8.0960  -22.4190 C.2   256  HIS256      0.2291
     81  O        -11.1140   -9.0800  -23.1380 O.2   256  HIS256     -0.2864
     82  CB       -12.0950   -5.9090  -22.0090 C.3   256  HIS256      0.0771
     83  CG       -13.3300   -6.6710  -21.6430 C.ar  256  HIS256      0.0820
     84  ND1      -14.4870   -6.6180  -22.3910 N.ar  256  HIS256     -0.2267
     85  CD2      -13.5930   -7.4970  -20.6030 C.ar  256  HIS256      0.1154
     86  CE1      -15.4070   -7.3820  -21.8290 C.ar  256  HIS256      0.1986
     87  NE2      -14.8900   -7.9270  -20.7430 N.ar  256  HIS256     -0.2212
     88  N        -13.0930    3.2410  -14.7990 N.3   283  MET283     -0.1245
     89  CA       -14.2150    4.0130  -15.3000 C.3   283  MET283      0.1570
     90  C        -14.8900    4.7600  -14.1500 C.2   283  MET283      0.2261
     91  O        -14.8280    4.3240  -12.9970 O.2   283  MET283     -0.2867
     92  CB       -15.2210    3.0990  -15.9950 C.3   283  MET283      0.0387
     93  CG       -14.6810    2.4180  -17.2410 C.3   283  MET283      0.0595
     94  SD       -14.1450    3.5940  -18.4980 S.3   283  MET283     -0.1393
     95  CE       -13.6140    2.4840  -19.7990 C.3   283  MET283      0.0692
     96  N        -19.6340   -2.0950  -10.2500 N.3   316  LEU316     -0.1245
     97  CA       -20.9020   -2.4240  -10.8860 C.3   316  LEU316      0.1561
     98  C        -21.3700   -3.8030  -10.4420 C.2   316  LEU316      0.2260
     99  O        -20.5870   -4.7550  -10.3850 O.2   316  LEU316     -0.2867
    100  CB       -20.7610   -2.3810  -12.4080 C.3   316  LEU316      0.0270
    101  CG       -20.6440   -1.0010  -13.0550 C.3   316  LEU316      0.0019
    102  CD1      -20.2290   -1.1270  -14.5120 C.3   316  LEU316      0.0001
    103  CD2      -21.9620   -0.2560  -12.9400 C.3   316  LEU316      0.0001
    104  N        -18.6210   -6.6410  -10.9800 N.3   327  GLN327     -0.1245
    105  CA       -17.7090   -6.2830  -12.0560 C.3   327  GLN327      0.1566
    106  C        -17.3600   -4.8050  -11.9820 C.2   327  GLN327      0.2260
    107  O        -18.0790   -3.9990  -11.3870 O.2   327  GLN327     -0.2867
    108  CB       -18.3030   -6.6050  -13.4330 C.3   327  GLN327      0.0367
    109  CG       -19.4950   -5.7430  -13.8110 C.3   327  GLN327      0.0905
    110  CD       -20.0290   -6.0630  -15.1920 C.2   327  GLN327      0.2608
    111  OE1      -20.9590   -5.4170  -15.6760 O.2   327  GLN327     -0.2717
    112  NE2      -19.4420   -7.0640  -15.8370 N.am  327  GLN327     -0.0878
    113  N        -14.7310   -1.9490  -14.6030 N.3   329  PHE329     -0.1241
    114  CA       -13.9050   -1.8400  -15.7960 C.3   329  PHE329      0.1605
    115  C        -12.8760   -0.7320  -15.6320 C.2   329  PHE329      0.2264
    116  O        -13.1710    0.3290  -15.0740 O.2   329  PHE329     -0.2867
    117  CB       -14.7690   -1.5780  -17.0320 C.3   329  PHE329      0.0534
    118  CG       -15.7600   -2.6680  -17.3110 C.ar  329  PHE329     -0.0203
    119  CD1      -17.0020   -2.6660  -16.6980 C.ar  329  PHE329     -0.0042
    120  CD2      -15.4470   -3.7000  -18.1770 C.ar  329  PHE329     -0.0042
    121  CE1      -17.9130   -3.6710  -16.9470 C.ar  329  PHE329     -0.0003
    122  CE2      -16.3550   -4.7070  -18.4310 C.ar  329  PHE329     -0.0003
    123  CZ       -17.5880   -4.6930  -17.8120 C.ar  329  PHE329     -0.0000
    124  N         -9.0350   -2.7750  -22.6910 N.3   340  PHE340     -0.1241
    125  CA        -9.0300   -2.5630  -21.2490 C.3   340  PHE340      0.1605
    126  C         -9.1640   -3.9070  -20.5430 C.2   340  PHE340      0.2264
    127  O         -9.0760   -4.9570  -21.1870 O.2   340  PHE340     -0.2867
    128  CB       -10.1420   -1.5940  -20.8280 C.3   340  PHE340      0.0534
    129  CG       -11.4890   -1.8990  -21.4270 C.ar  340  PHE340     -0.0203
    130  CD1      -11.8220   -1.4430  -22.6930 C.ar  340  PHE340     -0.0042
    131  CD2      -12.4330   -2.6170  -20.7120 C.ar  340  PHE340     -0.0042
    132  CE1      -13.0610   -1.7150  -23.2420 C.ar  340  PHE340     -0.0003
    133  CE2      -13.6760   -2.8900  -21.2550 C.ar  340  PHE340     -0.0003
    134  CZ       -13.9890   -2.4380  -22.5220 C.ar  340  PHE340     -0.0000
    135  N        -11.2730   -6.1690  -17.3320 N.3   342  GLU342     -0.1245
    136  CA       -12.3960   -6.2960  -16.4170 C.3   342  GLU342      0.1567
    137  C        -11.9990   -7.1480  -15.2190 C.2   342  GLU342      0.2260
    138  O        -11.2910   -8.1500  -15.3660 O.2   342  GLU342     -0.2867
    139  CB       -13.6040   -6.9230  -17.1200 C.3   342  GLU342      0.0388
    140  CG       -14.8310   -7.0830  -16.2380 C.3   342  GLU342      0.1160
    141  CD       -15.8840   -7.9720  -16.8660 C.2   342  GLU342      0.3649
    142  OE1      -16.4430   -8.8310  -16.1520 O.co2 342  GLU342     -0.2457
    143  OE2      -16.1460   -7.8200  -18.0770 O.co2 342  GLU342     -0.2457
    144  N        -23.0800  -11.7210  -17.4470 N.3   363  PHE363     -0.1227
    145  CA       -21.8680  -11.0000  -17.8140 C.3   363  PHE363      0.1736
    146  C        -21.9980   -9.4980  -17.5950 C.2   363  PHE363      0.2596
    147  O        -21.1500   -8.7410  -18.0850 O.2   363  PHE363     -0.2718
    148  CB       -21.4950  -11.2760  -19.2760 C.3   363  PHE363      0.0547
    149  CG       -21.0960  -12.6990  -19.5430 C.ar  363  PHE363     -0.0202
    150  CD1      -19.7790  -13.1000  -19.3980 C.ar  363  PHE363     -0.0042
    151  CD2      -22.0360  -13.6350  -19.9410 C.ar  363  PHE363     -0.0042
    152  CE1      -19.4060  -14.4070  -19.6420 C.ar  363  PHE363     -0.0003
    153  CE2      -21.6700  -14.9450  -20.1860 C.ar  363  PHE363     -0.0003
    154  CZ       -20.3530  -15.3310  -20.0360 C.ar  363  PHE363     -0.0000
    155  N        -23.0200   -9.0430  -16.8810 N.am  364  GLY364     -0.1942
    156  CA       -23.2600   -7.6300  -16.6980 C.3   364  GLY364      0.2014
    157  C        -24.2460   -7.0110  -17.6630 C.2   364  GLY364      0.2638
    158  O        -24.1910   -5.7950  -17.8760 O.2   364  GLY364     -0.2714
    159  N        -25.1430   -7.8060  -18.2540 N.am  365  LYS365     -0.1977
    160  CA       -26.1060   -7.2630  -19.2060 C.3   365  LYS365      0.1596
    161  C        -27.1120   -6.3420  -18.5290 C.2   365  LYS365      0.2287
    162  O        -27.5860   -5.3840  -19.1490 O.2   365  LYS365     -0.2864
    163  CB       -26.8300   -8.3990  -19.9280 C.3   365  LYS365      0.0298
    164  CG       -25.8440   -9.4210  -20.4340 C.3   365  LYS365      0.0038
    165  CD       -25.4580   -8.8540  -21.7970 C.3   365  LYS365      0.0206
    166  CE       -25.0620  -10.0750  -22.6120 C.3   365  LYS365      0.1093
    167  NZ       -23.6660  -10.5090  -22.3180 N.3   365  LYS365     -0.1314
    168  N        -26.4780   -4.2190  -16.2800 N.3   367  ASN367     -0.1225
    169  CA       -25.8460   -2.9190  -16.1050 C.3   367  ASN367      0.1785
    170  C        -25.9290   -2.0480  -17.3520 C.2   367  ASN367      0.2597
    171  O        -25.5770   -0.8650  -17.2850 O.2   367  ASN367     -0.2718
    172  CB       -24.3830   -3.0990  -15.6930 C.3   367  ASN367      0.1169
    173  CG       -24.2390   -3.7120  -14.3150 C.2   367  ASN367      0.2627
    174  OD1      -25.0080   -3.4060  -13.4050 O.2   367  ASN367     -0.2716
    175  ND2      -23.2520   -4.5870  -14.1550 N.am  367  ASN367     -0.0877
    176  N        -26.3770   -2.5980  -18.4830 N.am  368  PHE368     -0.1976
    177  CA       -26.6310   -1.7830  -19.6630 C.3   368  PHE368      0.1639
    178  C        -27.9220   -0.9850  -19.5460 C.2   368  PHE368      0.2290
    179  O        -28.0740    0.0270  -20.2380 O.2   368  PHE368     -0.2864
    180  CB       -26.6780   -2.6590  -20.9180 C.3   368  PHE368      0.0560
    181  CG       -25.3240   -3.0380  -21.4420 C.ar  368  PHE368     -0.0200
    182  CD1      -24.6330   -2.1880  -22.2890 C.ar  368  PHE368     -0.0042
    183  CD2      -24.7430   -4.2440  -21.0900 C.ar  368  PHE368     -0.0042
    184  CE1      -23.3870   -2.5330  -22.7730 C.ar  368  PHE368     -0.0003
    185  CE2      -23.4990   -4.5940  -21.5710 C.ar  368  PHE368     -0.0003
    186  CZ       -22.8190   -3.7380  -22.4130 C.ar  368  PHE368     -0.0000
    187  N        -27.1560    1.3550  -14.7920 N.3   371  LEU371     -0.1231
    188  CA       -26.2720    2.5130  -14.8260 C.3   371  LEU371      0.1693
    189  C        -26.5120    3.3600  -16.0700 C.2   371  LEU371      0.2592
    190  O        -27.0020    4.4900  -15.9730 O.2   371  LEU371     -0.2718
    191  CB       -24.8160    2.0550  -14.7660 C.3   371  LEU371      0.0284
    192  CG       -23.8120    3.2400  -14.9440 C.3   371  LEU371      0.0019
    193  CD1      -23.8400    4.1450  -13.7380 C.3   371  LEU371      0.0001
    194  CD2      -22.4490    2.6270  -15.2170 C.3   371  LEU371      0.0001
    195  N        -26.1800    2.8210  -17.2370 N.am  372  PHE372     -0.1962
    196  CA       -26.4180    3.4850  -18.5150 C.3   372  PHE372      0.1771
    197  C        -26.1020    2.4880  -19.6200 C.2   372  PHE372      0.2619
    198  O        -25.7530    1.3330  -19.3580 O.2   372  PHE372     -0.2715
    199  CB       -25.5740    4.7530  -18.6640 C.3   372  PHE372      0.0574
    200  CG       -26.2480    5.7590  -19.6250 C.ar  372  PHE372     -0.0200
    201  CD1      -27.5360    6.1640  -19.3760 C.ar  372  PHE372     -0.0042
    202  CD2      -25.5680    6.2760  -20.6770 C.ar  372  PHE372     -0.0042
    203  CE1      -28.0950    7.1300  -20.1720 C.ar  372  PHE372     -0.0003
    204  CE2      -26.0990    7.2270  -21.5160 C.ar  372  PHE372     -0.0003
    205  CZ       -27.4000    7.6190  -21.2440 C.ar  372  PHE372     -0.0000
    206  N        -26.2200    2.9490  -20.8630 N.am  373  LYS373     -0.1977
    207  CA       -25.9300    2.1250  -22.0340 C.3   373  LYS373      0.1596
    208  C        -24.4950    1.6140  -22.0140 C.2   373  LYS373      0.2287
    209  O        -23.6080    2.2510  -21.4480 O.2   373  LYS373     -0.2864
    210  CB       -26.1810    2.9150  -23.3210 C.3   373  LYS373      0.0298
    211  CG       -25.3500    4.1860  -23.4590 C.3   373  LYS373      0.0038
    212  CD       -25.8490    5.0080  -24.6060 C.3   373  LYS373      0.0206
    213  CE       -24.8790    6.1380  -24.9060 C.3   373  LYS373      0.1093
    214  NZ       -25.3060    7.0000  -26.0360 N.3   373  LYS373     -0.1314
@<TRIPOS>BOND
     1    55    54    2
     2    54    53    1
     3    53    52    1
     4    53    56    1
     5    26    25    1
     6    26    27    2
     7    60    61    1
     8    62    63    2
     9    62    61    1
    10    25    24    1
    11    25    28    1
    12    56    57    1
    13    61    64    1
    14    32    33    1
    15    35    34    2
    16    34    33    1
    17    28    29    1
    18    33    36    1
    19    57    58    2
    20    57    59   am
    21    48    47    2
    22    69    70    1
    23    47    46    1
    24    67    66    2
    25    64    65    1
    26    77    75   am
    27    13    14    2
    28    13    12    1
    29    29    30    1
    30    29    31    1
    31    70    73    1
    32    70    71    1
    33    20    19    1
    34    20    21    2
    35    66    65    1
    36    66    68   am
    37    73    74    1
    38    41    40    2
    39    38    39    1
    40    36    37    1
    41    40    39    1
    42    46    45    1
    43    46    49    1
    44    19    18    1
    45    19    22    1
    46    16    15    1
    47   214   213    1
    48    23    22    1
    49    75    74    1
    50    75    76    2
    51    12    15    1
    52    12    11    1
    53    39    42    1
    54    45    51    1
    55    71    72    2
    56    71    78   am
    57    15    17    1
    58    49    50    1
    59   213   212    1
    60   212   211    1
    61    78    79    1
    62    42    44    1
    63    42    43    1
    64    51    50    1
    65   211   210    1
    66   210   207    1
    67   132   130   ar
    68   132   134   ar
    69    81    80    2
    70    79    80    1
    71    79    82    1
    72   184   186   ar
    73   184   182   ar
    74   130   129   ar
    75   124   125    1
    76   166   167    1
    77   166   165    1
    78   134   133   ar
    79   186   185   ar
    80    84    86   ar
    81    84    83   ar
    82   182   181   ar
    83   207   208    1
    84   207   206    1
    85   208   209    2
    86    82    83    1
    87    86    87   ar
    88   165   164    1
    89    83    85   ar
    90   185   183   ar
    91   204   205   ar
    92   204   202   ar
    93   181   183   ar
    94   181   180    1
    95   129   128    1
    96   129   131   ar
    97     3     4    2
    98     3     2    1
    99   133   131   ar
   100   125   128    1
   101   125   126    1
   102   205   203   ar
   103   127   126    2
   104   180   177    1
   105   206   197   am
   106     5     2    1
   107     5     6    1
   108    87    85   ar
   109   202   200   ar
   110     8     6   ar
   111     8    10   ar
   112     2     1    1
   113   164   163    1
   114   179   178    2
   115     6     7   ar
   116   153   154   ar
   117   153   151   ar
   118   203   201   ar
   119   154   152   ar
   120   151   149   ar
   121   163   160    1
   122    95    94    1
   123    10     9   ar
   124   177   178    1
   125   177   176    1
   126   152   150   ar
   127   200   201   ar
   128   200   199    1
   129   197   198    2
   130   197   196    1
   131   149   150   ar
   132   149   148    1
   133   148   145    1
   134   160   161    1
   135   160   159    1
   136   162   161    2
   137     7     9   ar
   138   199   196    1
   139   196   195    1
   140    94    93    1
   141   176   170   am
   142   122   120   ar
   143   122   123   ar
   144   159   157   am
   145   120   118   ar
   146   147   146    2
   147   143   141   ar
   148   158   157    2
   149   145   146    1
   150   145   144    1
   151   123   121   ar
   152   157   156    1
   153   146   155   am
   154   170   171    2
   155   170   169    1
   156   135   136    1
   157   118   117    1
   158   118   119   ar
   159    93    92    1
   160   195   189   am
   161   139   136    1
   162   139   140    1
   163   117   114    1
   164   121   119   ar
   165   155   156    1
   166   141   140    1
   167   141   142   ar
   168   136   137    1
   169   168   169    1
   170   169   172    1
   171   189   190    2
   172   189   188    1
   173    92    89    1
   174   112   110   am
   175   114   115    1
   176   114   113    1
   177   172   173    1
   178   111   110    2
   179   115   116    2
   180   138   137    2
   181    89    88    1
   182    89    90    1
   183   194   192    1
   184   110   109    1
   185   192   191    1
   186   192   193    1
   187   188   187    1
   188   188   191    1
   189   102   101    1
   190   173   175   am
   191   173   174    2
   192    90    91    2
   193   109   108    1
   194   108   105    1
   195   101   103    1
   196   101   100    1
   197   100    97    1
   198   105   106    1
   199   105   104    1
   200   106   107    2
   201    97    98    1
   202    97    96    1
   203    98    99    2
