@<TRIPOS>MOLECULE
tmp/5yycB00.pdb
 138 130 0 0 0
SMALL
GASTEIGER

@<TRIPOS>ATOM
      1  N        -14.0190   29.0520  -32.8470 N.3    39  VAL39      -0.1245
      2  CA       -14.2230   28.4610  -31.5320 C.3    39  VAL39       0.1561
      3  C        -13.6510   29.4060  -30.4850 C.2    39  VAL39       0.2260
      4  O        -12.4570   29.7090  -30.4810 O.2    39  VAL39      -0.2867
      5  CB       -13.5870   27.0690  -31.4430 C.3    39  VAL39       0.0252
      6  CG1      -13.7820   26.4740  -30.0290 C.3    39  VAL39       0.0019
      7  CG2      -14.2030   26.1680  -32.5010 C.3    39  VAL39       0.0019
      8  N        -14.5130   29.2760  -26.9950 N.3    41  LYS41      -0.1245
      9  CA       -14.6260   28.7630  -25.6600 C.3    41  LYS41       0.1561
     10  C        -13.4730   29.1880  -24.7870 C.2    41  LYS41       0.2260
     11  O        -12.5230   29.6700  -25.2600 O.2    41  LYS41      -0.2867
     12  CB       -14.7550   27.2610  -25.6620 C.3    41  LYS41       0.0271
     13  CG       -13.5520   26.5180  -26.1370 C.3    41  LYS41       0.0035
     14  CD       -13.8800   25.0810  -26.4560 C.3    41  LYS41       0.0206
     15  CE       -12.6320   24.2460  -26.5750 C.3    41  LYS41       0.1093
     16  NZ       -12.5520   23.2090  -27.6230 N.3    41  LYS41      -0.1314
     17  N        -10.1630   31.4900  -25.5490 N.3    45  TYR45      -0.1241
     18  CA        -8.8490   30.9170  -25.2530 C.3    45  TYR45       0.1605
     19  C         -7.9950   31.9340  -24.4960 C.2    45  TYR45       0.2264
     20  O         -6.8170   32.1260  -24.8000 O.2    45  TYR45      -0.2867
     21  CB        -8.1260   30.4750  -26.5340 C.3    45  TYR45       0.0534
     22  CG        -8.6430   29.1940  -27.1700 C.ar   45  TYR45      -0.0201
     23  CD1       -9.9960   29.0270  -27.4500 C.ar   45  TYR45      -0.0009
     24  CD2       -7.7630   28.1770  -27.5430 C.ar   45  TYR45      -0.0009
     25  CE1      -10.4630   27.8750  -28.0550 C.ar   45  TYR45       0.0417
     26  CE2       -8.2230   27.0070  -28.1490 C.ar   45  TYR45       0.0417
     27  CZ        -9.5740   26.8680  -28.4010 C.ar   45  TYR45       0.1957
     28  OH       -10.0550   25.7180  -28.9920 O.3    45  TYR45      -0.2866
     29  N        -20.8230   23.3340  -27.6990 N.3    87  LEU87      -0.1245
     30  CA       -20.1800   22.1010  -28.1660 C.3    87  LEU87       0.1561
     31  C        -20.2600   20.9640  -27.1730 C.2    87  LEU87       0.2260
     32  O        -20.2060   19.7930  -27.5530 O.2    87  LEU87      -0.2867
     33  CB       -18.7010   22.3590  -28.4790 C.3    87  LEU87       0.0270
     34  CG       -18.4320   23.3320  -29.6300 C.3    87  LEU87       0.0019
     35  CD1      -16.9960   23.8240  -29.5570 C.3    87  LEU87       0.0001
     36  CD2      -18.7260   22.6430  -30.9750 C.3    87  LEU87       0.0001
     37  N        -23.9360   14.9760  -31.3710 N.3   132  LYS132     -0.1245
     38  CA       -22.5340   14.5610  -31.2170 C.3   132  LYS132      0.1561
     39  C        -22.3930   13.0580  -31.3700 C.2   132  LYS132      0.2260
     40  O        -23.1460   12.2880  -30.7550 O.2   132  LYS132     -0.2867
     41  CB       -21.9750   14.9890  -29.8560 C.3   132  LYS132      0.0271
     42  CG       -20.4910   14.5630  -29.5950 C.3   132  LYS132      0.0035
     43  CD       -19.4660   15.3080  -30.4710 C.3   132  LYS132      0.0206
     44  CE       -17.9970   14.8040  -30.2760 C.3   132  LYS132      0.1093
     45  NZ       -17.2670   15.1250  -28.9960 N.3   132  LYS132     -0.1314
     46  N        -14.7400   10.6780  -25.4670 N.3   139  ARG139     -0.1245
     47  CA       -15.1250   11.8070  -24.6210 C.3   139  ARG139      0.1563
     48  C        -16.6480   11.8730  -24.4430 C.2   139  ARG139      0.2260
     49  O        -17.1870   11.4560  -23.4120 O.2   139  ARG139     -0.2867
     50  CB       -14.5790   13.1030  -25.2240 C.3   139  ARG139      0.0307
     51  CG       -14.8540   14.3450  -24.4000 C.3   139  ARG139      0.0489
     52  CD       -13.9730   15.5020  -24.8210 C.3   139  ARG139      0.2205
     53  NE       -14.3260   16.0460  -26.1360 N.pl3 139  ARG139     -0.0865
     54  CZ       -13.7780   17.1440  -26.6470 C.cat 139  ARG139      0.5346
     55  NH1      -12.8390   17.7930  -25.9670 N.pl3 139  ARG139      0.1354
     56  NH2      -14.1620   17.5940  -27.8320 N.pl3 139  ARG139      0.1354
     57  N        -21.8970   15.9150  -35.7650 N.3   167  PHE167     -0.1241
     58  CA       -20.4530   16.0880  -35.7530 C.3   167  PHE167      0.1605
     59  C        -19.7060   15.0760  -34.9170 C.2   167  PHE167      0.2264
     60  O        -20.2900   14.2810  -34.1790 O.2   167  PHE167     -0.2867
     61  CB       -20.0620   17.5310  -35.3140 C.3   167  PHE167      0.0534
     62  CG       -20.3170   17.9000  -33.8550 C.ar  167  PHE167     -0.0203
     63  CD1      -21.6060   18.1280  -33.3810 C.ar  167  PHE167     -0.0042
     64  CD2      -19.2380   18.1550  -32.9990 C.ar  167  PHE167     -0.0042
     65  CE1      -21.8260   18.5380  -32.0530 C.ar  167  PHE167     -0.0003
     66  CE2      -19.4410   18.5600  -31.6710 C.ar  167  PHE167     -0.0003
     67  CZ       -20.7400   18.7580  -31.1970 C.ar  167  PHE167     -0.0000
     68  N        -15.3300   14.6470  -33.2440 N.3   169  HIS169     -0.1241
     69  CA       -14.1040   15.3230  -32.8710 C.3   169  HIS169      0.1621
     70  C        -12.9020   14.3940  -32.9130 C.2   169  HIS169      0.2264
     71  O        -12.9920   13.2990  -32.4760 O.2   169  HIS169     -0.2867
     72  CB       -14.2350   15.8880  -31.4790 C.3   169  HIS169      0.0745
     73  CG       -13.1870   16.8870  -31.1230 C.ar  169  HIS169      0.0817
     74  ND1      -13.0770   18.0980  -31.7500 N.ar  169  HIS169     -0.2268
     75  CD2      -12.2260   16.8700  -30.1790 C.ar  169  HIS169      0.1154
     76  CE1      -12.0910   18.7800  -31.2140 C.ar  169  HIS169      0.1986
     77  NE2      -11.5490   18.0520  -30.2660 N.ar  169  HIS169     -0.2212
     78  N        -11.1190   20.1910  -36.3260 N.3   209  ASN209     -0.1225
     79  CA       -10.5870   21.2230  -35.4420 C.3   209  ASN209      0.1785
     80  C         -9.5050   21.9990  -36.2080 C.2   209  ASN209      0.2598
     81  O         -9.4320   21.8880  -37.4330 O.2   209  ASN209     -0.2718
     82  CB       -10.0140   20.6010  -34.1640 C.3   209  ASN209      0.1169
     83  CG        -9.0390   19.4620  -34.4480 C.2   209  ASN209      0.2627
     84  OD1       -8.6590   19.2140  -35.5930 O.2   209  ASN209     -0.2716
     85  ND2       -8.6270   18.7640  -33.3980 N.am  209  ASN209     -0.0877
     86  N         -8.6690   22.7830  -35.5200 N.am  210  SER210     -0.1938
     87  CA        -7.5880   23.4890  -36.2300 C.3   210  SER210      0.2055
     88  C         -6.7130   22.5490  -37.0610 C.2   210  SER210      0.2642
     89  O         -6.4470   22.8080  -38.2360 O.2   210  SER210     -0.2714
     90  CB        -6.6830   24.2530  -35.2600 C.3   210  SER210      0.2130
     91  OG        -7.3670   25.3290  -34.6530 O.3   210  SER210     -0.2179
     92  N         -6.2420   21.4730  -36.4390 N.am  211  ALA211     -0.1977
     93  CA        -5.3450   20.5450  -37.1210 C.3   211  ALA211      0.1597
     94  C         -6.0510   19.8670  -38.3010 C.2   211  ALA211      0.2287
     95  O         -5.4800   19.7410  -39.3930 O.2   211  ALA211     -0.2864
     96  CB        -4.8020   19.4900  -36.1270 C.3   211  ALA211      0.0319
     97  N        -14.2210   23.7470  -37.3810 N.3   225  ARG225     -0.1245
     98  CA       -14.2760   24.3780  -36.0640 C.3   225  ARG225      0.1563
     99  C        -12.8680   24.7650  -35.6300 C.2   225  ARG225      0.2260
    100  O        -12.1250   23.9590  -35.0650 O.2   225  ARG225     -0.2867
    101  CB       -14.9250   23.4450  -35.0360 C.3   225  ARG225      0.0307
    102  CG       -16.2720   22.8590  -35.4990 C.3   225  ARG225      0.0489
    103  CD       -16.9520   22.0320  -34.4100 C.3   225  ARG225      0.2205
    104  NE       -16.0750   20.9770  -33.8970 N.pl3 225  ARG225     -0.0865
    105  CZ       -16.0000   19.7520  -34.4040 C.cat 225  ARG225      0.5346
    106  NH1      -16.7510   19.4080  -35.4510 N.pl3 225  ARG225      0.1354
    107  NH2      -15.1640   18.8700  -33.8670 N.pl3 225  ARG225      0.1354
    108  N        -10.2160   26.5910  -33.4220 N.3   227  GLY227     -0.1210
    109  CA        -9.9450   27.1770  -32.1170 C.3   227  GLY227      0.1956
    110  C         -8.5270   27.7230  -32.0520 C.2   227  GLY227      0.2611
    111  O         -8.2840   28.8570  -32.4670 O.2   227  GLY227     -0.2717
    112  N         -7.5870   26.8920  -31.6040 N.am  228  ILE228     -0.1979
    113  CA        -6.2360   27.3560  -31.2560 C.3   228  ILE228      0.1595
    114  C         -5.5660   28.1730  -32.3740 C.2   228  ILE228      0.2287
    115  O         -4.9270   29.1890  -32.0930 O.2   228  ILE228     -0.2864
    116  CB        -5.3130   26.1570  -30.8510 C.3   228  ILE228      0.0276
    117  CG1       -3.9930   26.6500  -30.2150 C.3   228  ILE228      0.0022
    118  CG2       -5.0470   25.2030  -32.0370 C.3   228  ILE228      0.0022
    119  CD1       -4.1850   27.3640  -28.8310 C.3   228  ILE228      0.0001
    120  N         -1.4400   23.8580  -33.2500 N.3   235  PRO235     -0.2116
    121  CA        -2.0290   22.7230  -32.5290 C.3   235  PRO235      0.1372
    122  C         -0.9580   21.8930  -31.8530 C.2   235  PRO235      0.2244
    123  O         -1.1720   21.3550  -30.7670 O.2   235  PRO235     -0.2868
    124  CB        -2.7190   21.9150  -33.6370 C.3   235  PRO235      0.0268
    125  CG        -2.9290   22.8920  -34.7420 C.3   235  PRO235      0.0207
    126  CD        -1.7500   23.8180  -34.6890 C.3   235  PRO235      0.0892
    127  N         -2.3420   25.9090  -25.4680 N.3   352  TYR352     -0.1241
    128  CA        -3.7400   26.0480  -25.0500 C.3   352  TYR352      0.1605
    129  C         -3.8670   26.3710  -23.5580 C.2   352  TYR352      0.2264
    130  O         -4.6160   27.2600  -23.1620 O.2   352  TYR352     -0.2867
    131  CB        -4.5550   24.7690  -25.2600 C.3   352  TYR352      0.0534
    132  CG        -4.7420   24.1900  -26.6480 C.ar  352  TYR352     -0.0201
    133  CD1       -3.6930   23.5790  -27.3200 C.ar  352  TYR352     -0.0009
    134  CD2       -6.0140   24.1410  -27.2250 C.ar  352  TYR352     -0.0009
    135  CE1       -3.8910   22.9830  -28.5790 C.ar  352  TYR352      0.0417
    136  CE2       -6.2230   23.5400  -28.4670 C.ar  352  TYR352      0.0417
    137  CZ        -5.1620   22.9650  -29.1300 C.ar  352  TYR352      0.1957
    138  OH        -5.3610   22.3750  -30.3630 O.3   352  TYR352     -0.2866
@<TRIPOS>BOND
     1    95    94    2
     2    94    93    1
     3    89    88    2
     4    81    80    2
     5    97    98    1
     6    93    92    1
     7    93    96    1
     8    88    92   am
     9    88    87    1
    10    78    79    1
    11    87    86    1
    12    87    90    1
    13    80    86   am
    14    80    79    1
    15    98    99    1
    16    98   101    1
    17    57    58    1
    18    58    61    1
    19    58    59    1
    20    99   100    2
    21    84    83    2
    22   102   101    1
    23   102   103    1
    24   106   105    1
    25    79    82    1
    26    61    62    1
    27    90    91    1
    28    59    60    2
    29   125   126    1
    30   125   124    1
    31   126   120    1
    32    83    82    1
    33    83    85   am
    34   103   104    1
    35   105   104    2
    36   105   107    1
    37    62    63   ar
    38    62    64   ar
    39   124   121    1
    40   108   109    1
    41    63    65   ar
    42   120   121    1
    43    68    69    1
    44    64    66   ar
    45    70    69    1
    46    70    71    2
    47    69    72    1
    48     1     2    1
    49   121   122    1
    50     7     5    1
    51   111   110    2
    52   114   115    2
    53   114   113    1
    54   109   110    1
    55    65    67   ar
    56   110   112   am
    57   118   116    1
    58   122   123    2
    59    74    76   ar
    60    74    73   ar
    61    66    67   ar
    62   112   113    1
    63     2     5    1
    64     2     3    1
    65    72    73    1
    66     5     6    1
    67    37    38    1
    68    39    38    1
    69    39    40    2
    70   113   116    1
    71    38    41    1
    72    76    77   ar
    73    73    75   ar
    74    36    34    1
    75   116   117    1
    76     3     4    2
    77    43    44    1
    78    43    42    1
    79   138   137    1
    80    44    45    1
    81    77    75   ar
    82   117   119    1
    83    41    42    1
    84    34    35    1
    85    34    33    1
    86   137   135   ar
    87   137   136   ar
    88    28    27    1
    89   135   133   ar
    90    33    30    1
    91   136   134   ar
    92    27    26   ar
    93    27    25   ar
    94    30    29    1
    95    30    31    1
    96    26    24   ar
    97    25    23   ar
    98    56    54    1
    99    16    15    1
   100    32    31    2
   101    24    22   ar
   102    23    22   ar
   103   133   132   ar
   104   134   132   ar
   105    22    21    1
   106     8     9    1
   107   132   131    1
   108    54    53    2
   109    54    55    1
   110    15    14    1
   111    21    18    1
   112    14    13    1
   113    13    12    1
   114    53    52    1
   115    12     9    1
   116     9    10    1
   117    17    18    1
   118   127   128    1
   119    46    47    1
   120    11    10    2
   121   131   128    1
   122    18    19    1
   123    50    47    1
   124    50    51    1
   125   128   129    1
   126    52    51    1
   127    20    19    2
   128    47    48    1
   129    48    49    2
   130   129   130    2
