@<TRIPOS>MOLECULE
tmp/5yyeA00.pdb
 162 157 0 0 0
SMALL
GASTEIGER

@<TRIPOS>ATOM
      1  N          1.9700  -11.4320  -68.4890 N.3     9  ASP9       -0.1225
      2  CA         0.6930  -10.7820  -68.2220 C.3     9  ASP9        0.1805
      3  C          0.5470   -9.5970  -69.1650 C.2     9  ASP9        0.2598
      4  O          1.3870   -8.6910  -69.1350 O.2     9  ASP9       -0.2718
      5  CB         0.6050  -10.3460  -66.7560 C.3     9  ASP9        0.1424
      6  CG        -0.8190   -9.9700  -66.3340 C.2     9  ASP9        0.3668
      7  OD1       -1.4470   -9.1570  -67.0370 O.co2   9  ASP9       -0.2456
      8  OD2       -1.2920  -10.4560  -65.2870 O.co2   9  ASP9       -0.2456
      9  N         -0.5090   -9.6100  -69.9910 N.am   10  MET10      -0.1965
     10  CA        -0.7730   -8.5070  -70.9180 C.3    10  MET10       0.1736
     11  C         -1.0910   -7.2150  -70.1630 C.2    10  MET10       0.2616
     12  O         -1.7220   -7.2420  -69.1030 O.2    10  MET10      -0.2715
     13  CB        -1.9280   -8.8520  -71.8580 C.3    10  MET10       0.0427
     14  CG        -1.6710  -10.0670  -72.7350 C.3    10  MET10       0.0599
     15  SD        -0.1350  -10.0240  -73.6570 S.3    10  MET10      -0.1393
     16  CE        -0.5350   -8.8420  -74.9200 C.3    10  MET10       0.0692
     17  N         -0.6460   -6.0800  -70.7170 N.am   11  ASP11      -0.1957
     18  CA        -0.8840   -4.7770  -70.0960 C.3    11  ASP11       0.1840
     19  C         -2.2570   -4.2510  -70.4950 C.2    11  ASP11       0.2622
     20  O         -2.5760   -4.1760  -71.6870 O.2    11  ASP11      -0.2715
     21  CB         0.2010   -3.7680  -70.4980 C.3    11  ASP11       0.1450
     22  CG         1.6280   -4.2490  -70.1550 C.2    11  ASP11       0.3671
     23  OD1        1.8800   -4.6550  -68.9960 O.co2  11  ASP11      -0.2456
     24  OD2        2.4900   -4.2360  -71.0570 O.co2  11  ASP11      -0.2456
     25  N         -3.0720   -3.9130  -69.4980 N.am   12  CYS12      -0.1954
     26  CA        -4.4340   -3.3990  -69.7050 C.3    12  CYS12       0.1843
     27  C         -5.1370   -4.0870  -70.8790 C.2    12  CYS12       0.2625
     28  O         -5.6570   -3.4340  -71.7940 O.2    12  CYS12      -0.2714
     29  CB        -4.4050   -1.8840  -69.8930 C.3    12  CYS12       0.0997
     30  SG        -3.6440   -1.0740  -68.4960 S.3    12  CYS12      -0.0797
     31  N         -5.1640   -5.4300  -70.8170 N.am   13  PHE13      -0.1960
     32  CA        -5.3550   -6.2660  -72.0010 C.3    13  PHE13       0.1771
     33  C         -6.5090   -5.7910  -72.8910 C.2    13  PHE13       0.2619
     34  O         -6.3000   -5.4850  -74.0750 O.2    13  PHE13      -0.2715
     35  CB        -5.5590   -7.7240  -71.5830 C.3    13  PHE13       0.0574
     36  CG        -5.7480   -8.6550  -72.7430 C.ar   13  PHE13      -0.0200
     37  CD1       -4.9730   -8.5210  -73.8850 C.ar   13  PHE13      -0.0042
     38  CD2       -6.7110   -9.6510  -72.7050 C.ar   13  PHE13      -0.0042
     39  CE1       -5.1540   -9.3730  -74.9710 C.ar   13  PHE13      -0.0003
     40  CE2       -6.8810  -10.5250  -73.7780 C.ar   13  PHE13      -0.0003
     41  CZ        -6.1160  -10.3820  -74.9140 C.ar   13  PHE13      -0.0000
     42  N         -7.7410   -5.7270  -72.3560 N.am   14  PHE14      -0.1974
     43  CA        -8.8680   -5.3020  -73.1990 C.3    14  PHE14       0.1639
     44  C         -8.6550   -3.8900  -73.7280 C.2    14  PHE14       0.2290
     45  O         -8.8540   -3.6200  -74.9220 O.2    14  PHE14      -0.2864
     46  CB       -10.2040   -5.3490  -72.4480 C.3    14  PHE14       0.0560
     47  CG       -10.6760   -6.7200  -72.0770 C.ar   14  PHE14      -0.0200
     48  CD1       -9.8550   -7.8260  -72.1950 C.ar   14  PHE14      -0.0042
     49  CD2      -11.9640   -6.8970  -71.5890 C.ar   14  PHE14      -0.0042
     50  CE1      -10.3260   -9.0890  -71.8240 C.ar   14  PHE14      -0.0003
     51  CE2      -12.4320   -8.1510  -71.2260 C.ar   14  PHE14      -0.0003
     52  CZ       -11.6210   -9.2400  -71.3410 C.ar   14  PHE14      -0.0000
     53  N        -19.8950   -2.3970  -64.2790 N.3    41  VAL41      -0.1231
     54  CA       -18.6130   -2.0940  -63.6590 C.3    41  VAL41       0.1692
     55  C        -17.5340   -2.0440  -64.7260 C.2    41  VAL41       0.2592
     56  O        -17.7340   -2.4340  -65.8760 O.2    41  VAL41      -0.2718
     57  CB       -18.2020   -3.0910  -62.5600 C.3    41  VAL41       0.0266
     58  CG1      -19.3790   -3.4610  -61.6930 C.3    41  VAL41       0.0020
     59  CG2      -17.5120   -4.2990  -63.1640 C.3    41  VAL41       0.0020
     60  N        -16.3740   -1.5530  -64.3190 N.am   42  ILE42      -0.1966
     61  CA       -15.2280   -1.4820  -65.2110 C.3    42  ILE42       0.1727
     62  C        -14.6320   -2.8720  -65.3260 C.2    42  ILE42       0.2617
     63  O        -14.3340   -3.5130  -64.3130 O.2    42  ILE42      -0.2715
     64  CB       -14.2080   -0.4660  -64.6820 C.3    42  ILE42       0.0290
     65  CG1      -14.8830    0.9030  -64.5650 C.3    42  ILE42       0.0022
     66  CG2      -12.9580   -0.4090  -65.5680 C.3    42  ILE42       0.0023
     67  CD1      -15.5220    1.3590  -65.8600 C.3    42  ILE42       0.0001
     68  N        -14.4940   -3.3640  -66.5540 N.am   43  SER43      -0.1936
     69  CA       -13.6630   -4.5460  -66.7570 C.3    43  SER43       0.2055
     70  C        -12.1950   -4.1650  -66.6120 C.2    43  SER43       0.2643
     71  O        -11.4950   -4.6240  -65.7010 O.2    43  SER43      -0.2714
     72  CB       -13.9360   -5.1610  -68.1270 C.3    43  SER43       0.2130
     73  OG       -14.7840   -6.2940  -68.0130 O.3    43  SER43      -0.2179
     74  N        -11.7240   -3.2880  -67.4870 N.am   44  THR44      -0.1950
     75  CA       -10.3980   -2.7210  -67.3500 C.3    44  THR44       0.1897
     76  C        -10.4210   -1.3320  -67.9620 C.2    44  THR44       0.2313
     77  O        -11.4350   -0.9020  -68.5180 O.2    44  THR44      -0.2863
     78  CB        -9.3350   -3.5930  -68.0010 C.3    44  THR44       0.1794
     79  OG1       -8.0580   -3.1700  -67.5170 O.3    44  THR44      -0.2208
     80  CG2       -9.3560   -3.4550  -69.5110 C.3    44  THR44       0.0378
     81  N         -4.2250    3.6120  -69.1070 N.3    47  TYR47      -0.1241
     82  CA        -3.5000    4.3640  -68.0850 C.3    47  TYR47       0.1605
     83  C         -3.9800    5.8180  -67.9620 C.2    47  TYR47       0.2264
     84  O         -4.1270    6.3140  -66.8390 O.2    47  TYR47      -0.2867
     85  CB        -1.9980    4.2520  -68.3410 C.3    47  TYR47       0.0534
     86  CG        -1.3820    2.9820  -67.7430 C.ar   47  TYR47      -0.0201
     87  CD1       -1.2890    2.8150  -66.3660 C.ar   47  TYR47      -0.0009
     88  CD2       -0.8960    1.9550  -68.5510 C.ar   47  TYR47      -0.0009
     89  CE1       -0.7400    1.6730  -65.8130 C.ar   47  TYR47       0.0417
     90  CE2       -0.3520    0.8020  -67.9960 C.ar   47  TYR47       0.0417
     91  CZ        -0.2740    0.6790  -66.6280 C.ar   47  TYR47       0.1957
     92  OH         0.2710   -0.4370  -66.0530 O.3    47  TYR47      -0.2866
     93  N         -6.7990    5.2730  -65.3850 N.3    50  ARG50      -0.1245
     94  CA        -6.3700    5.0220  -64.0090 C.3    50  ARG50       0.1563
     95  C         -5.5840    6.1890  -63.3980 C.2    50  ARG50       0.2260
     96  O         -5.4510    6.2490  -62.1730 O.2    50  ARG50      -0.2867
     97  CB        -5.5620    3.7270  -63.9160 C.3    50  ARG50       0.0307
     98  CG        -4.9770    3.2570  -65.1990 C.3    50  ARG50       0.0489
     99  CD        -4.4100    1.8590  -65.0650 C.3    50  ARG50       0.2205
    100  NE        -5.4520    0.8510  -65.1740 N.pl3  50  ARG50      -0.0865
    101  CZ        -5.2190   -0.4480  -65.2760 C.cat  50  ARG50       0.5346
    102  NH1       -3.9710   -0.9000  -65.2770 N.pl3  50  ARG50       0.1354
    103  NH2       -6.2220   -1.2840  -65.3790 N.pl3  50  ARG50       0.1354
    104  N        -10.2490   -1.7220  -62.1720 N.3    56  SER56      -0.1202
    105  CA       -11.0760   -2.8990  -62.4100 C.3    56  SER56       0.2020
    106  C        -12.0070   -3.1590  -61.2320 C.2    56  SER56       0.2618
    107  O        -11.6290   -2.9700  -60.0740 O.2    56  SER56      -0.2717
    108  CB       -10.1850   -4.1250  -62.6320 C.3    56  SER56       0.2103
    109  OG        -9.8650   -4.2690  -63.9920 O.3    56  SER56      -0.2182
    110  N        -13.2220   -3.6280  -61.5330 N.am   57  ALA57      -0.1979
    111  CA       -14.2590   -3.9860  -60.5610 C.3    57  ALA57       0.1597
    112  C        -14.8800   -2.7740  -59.8730 C.2    57  ALA57       0.2287
    113  O        -15.6450   -2.9380  -58.9190 O.2    57  ALA57      -0.2864
    114  CB       -13.7450   -4.9610  -59.4930 C.3    57  ALA57       0.0319
    115  N         -6.2340  -17.1570  -67.6210 N.3   102  SER102     -0.1202
    116  CA        -7.2800  -16.2880  -68.1360 C.3   102  SER102      0.2020
    117  C         -6.8980  -16.0450  -69.5820 C.2   102  SER102      0.2619
    118  O         -5.9120  -16.6130  -70.0700 O.2   102  SER102     -0.2717
    119  CB        -7.3860  -14.9920  -67.3250 C.3   102  SER102      0.2103
    120  OG        -6.1650  -14.2510  -67.3840 O.3   102  SER102     -0.2182
    121  N         -7.6340  -15.1690  -70.2600 N.am  103  LEU103     -0.1965
    122  CA        -7.2450  -14.8210  -71.6240 C.3   103  LEU103      0.1728
    123  C         -5.8130  -14.2830  -71.6880 C.2   103  LEU103      0.2616
    124  O         -5.0560  -14.6290  -72.6040 O.2   103  LEU103     -0.2715
    125  CB        -8.2220  -13.8070  -72.2020 C.3   103  LEU103      0.0311
    126  CG        -9.6380  -14.3420  -72.4700 C.3   103  LEU103      0.0022
    127  CD1      -10.5050  -13.2760  -73.0550 C.3   103  LEU103      0.0001
    128  CD2       -9.5330  -15.4860  -73.4370 C.3   103  LEU103      0.0001
    129  N         -5.4100  -13.4710  -70.7060 N.am  104  ASP104     -0.1957
    130  CA        -4.2870  -12.5590  -70.8940 C.3   104  ASP104      0.1840
    131  C         -3.0150  -12.9550  -70.1430 C.2   104  ASP104      0.2621
    132  O         -2.0510  -12.1780  -70.1470 O.2   104  ASP104     -0.2715
    133  CB        -4.7090  -11.1350  -70.5130 C.3   104  ASP104      0.1450
    134  CG        -4.2800  -10.7210  -69.1090 C.2   104  ASP104      0.3671
    135  OD1       -4.3090  -11.5280  -68.1630 O.co2 104  ASP104     -0.2456
    136  OD2       -3.9040   -9.5430  -68.9530 O.co2 104  ASP104     -0.2456
    137  N         -2.9710  -14.1320  -69.5150 N.am  105  GLU105     -0.1977
    138  CA        -1.8100  -14.4830  -68.7130 C.3   105  GLU105      0.1602
    139  C         -1.5990  -15.9990  -68.7050 C.2   105  GLU105      0.2287
    140  O         -2.4860  -16.7830  -69.0610 O.2   105  GLU105     -0.2864
    141  CB        -1.9290  -13.8930  -67.3000 C.3   105  GLU105      0.0415
    142  CG        -2.9910  -14.4640  -66.4200 C.3   105  GLU105      0.1163
    143  CD        -3.0000  -13.7860  -65.0560 C.2   105  GLU105      0.3649
    144  OE1       -3.1910  -12.5540  -64.9970 O.co2 105  GLU105     -0.2457
    145  OE2       -2.8160  -14.4690  -64.0340 O.co2 105  GLU105     -0.2457
    146  N          3.8450   -7.8450  -61.7930 N.3   155  ASP155     -0.1239
    147  CA         3.2350   -6.5360  -61.6200 C.3   155  ASP155      0.1674
    148  C          4.2450   -5.4490  -61.2620 C.2   155  ASP155      0.2266
    149  O          3.9300   -4.2590  -61.4030 O.2   155  ASP155     -0.2867
    150  CB         2.1360   -6.5780  -60.5460 C.3   155  ASP155      0.1410
    151  CG         0.9100   -7.3620  -60.9820 C.2   155  ASP155      0.3668
    152  OD1        0.7260   -7.6190  -62.1980 O.co2 155  ASP155     -0.2456
    153  OD2        0.1210   -7.7220  -60.0900 O.co2 155  ASP155     -0.2456
    154  N          5.3020   -3.4160  -64.3990 N.3   158  LYS158     -0.1245
    155  CA         4.2290   -3.2390  -65.3580 C.3   158  LYS158      0.1561
    156  C          4.0600   -1.7180  -65.5840 C.2   158  LYS158      0.2260
    157  O          4.2320   -0.9540  -64.6400 O.2   158  LYS158     -0.2867
    158  CB         2.9710   -3.9180  -64.8100 C.3   158  LYS158      0.0271
    159  CG         1.8470   -4.1190  -65.7910 C.3   158  LYS158      0.0035
    160  CD         0.7730   -5.0400  -65.2070 C.3   158  LYS158      0.0206
    161  CE         0.9450   -6.4790  -65.6830 C.3   158  LYS158      0.1093
    162  NZ         0.4690   -6.6670  -67.0970 N.3   158  LYS158     -0.1314
@<TRIPOS>BOND
     1    39    41   ar
     2    39    37   ar
     3    45    44    2
     4    16    15    1
     5    41    40   ar
     6    34    33    2
     7    37    36   ar
     8    40    38   ar
     9    44    43    1
    10    15    14    1
    11   128   126    1
    12    43    46    1
    13    43    42    1
    14   127   126    1
    15    33    42   am
    16    33    32    1
    17    36    38   ar
    18    36    35    1
    19    14    13    1
    20   124   123    2
    21   126   125    1
    22    46    47    1
    23   125   122    1
    24    48    47   ar
    25    48    50   ar
    26    47    49   ar
    27    32    35    1
    28    32    31    1
    29    13    10    1
    30    50    52   ar
    31    28    27    2
    32   123   122    1
    33   123   129   am
    34    20    19    2
    35   122   121    1
    36    49    51   ar
    37    52    51   ar
    38    24    22   ar
    39    10    11    1
    40    10     9    1
    41   130   129    1
    42   130   133    1
    43   130   131    1
    44    27    31   am
    45    27    26    1
    46    17    11   am
    47    17    18    1
    48   133   134    1
    49    21    22    1
    50    21    18    1
    51    19    18    1
    52    19    25   am
    53   121   117   am
    54    11    12    2
    55    22    23   ar
    56   132   131    2
    57   131   137   am
    58   118   117    2
    59     9     3   am
    60    29    26    1
    61    29    30    1
    62    26    25    1
    63   117   116    1
    64   137   138    1
    65    80    78    1
    66     3     4    2
    67     3     2    1
    68   134   136   ar
    69   134   135   ar
    70    81    82    1
    71   140   139    2
    72   138   139    1
    73   138   141    1
    74    88    90   ar
    75    88    86   ar
    76    77    76    2
    77     1     2    1
    78    85    82    1
    79    85    86    1
    80     2     5    1
    81   116   115    1
    82   116   119    1
    83    72    73    1
    84    72    69    1
    85    82    83    1
    86    78    79    1
    87    78    75    1
    88    90    91   ar
    89    76    75    1
    90    83    84    2
    91    86    87   ar
    92    74    75    1
    93    74    70   am
    94   120   119    1
    95   141   142    1
    96   162   161    1
    97     7     6   ar
    98    69    70    1
    99    69    68    1
   100     5     6    1
   101    91    92    1
   102    91    89   ar
   103    70    71    2
   104    68    62   am
   105   142   143    1
   106    87    89   ar
   107     6     8   ar
   108    56    55    2
   109    67    65    1
   110   159   160    1
   111   159   158    1
   112   161   160    1
   113   156   155    1
   114   156   157    2
   115    66    64    1
   116    93    94    1
   117   103   101    1
   118   155   158    1
   119   155   154    1
   120    62    61    1
   121    62    63    2
   122   102   101    1
   123   101   100    2
   124    61    64    1
   125    61    60    1
   126    98    99    1
   127    98    97    1
   128   100    99    1
   129   143   144   ar
   130   143   145   ar
   131    55    60   am
   132    55    54    1
   133    64    65    1
   134    53    54    1
   135    94    97    1
   136    94    95    1
   137   109   108    1
   138    54    57    1
   139    95    96    2
   140    59    57    1
   141   108   105    1
   142    57    58    1
   143   105   104    1
   144   105   106    1
   145   152   151   ar
   146   146   147    1
   147   147   148    1
   148   147   150    1
   149   110   106   am
   150   110   111    1
   151   149   148    2
   152   106   107    2
   153   151   150    1
   154   151   153   ar
   155   111   112    1
   156   111   114    1
   157   112   113    2
