@<TRIPOS>MOLECULE
tmp/5yyfC01.pdb
 106 108 0 0 0
SMALL
GASTEIGER

@<TRIPOS>ATOM
      1  N         16.8920   -1.7710   22.4560 N.3    29  PHE29      -0.1241
      2  CA        16.6360   -2.8490   21.5080 C.3    29  PHE29       0.1605
      3  C         17.0190   -4.1670   22.1620 C.2    29  PHE29       0.2264
      4  O         18.1890   -4.4000   22.4640 O.2    29  PHE29      -0.2867
      5  CB        17.4390   -2.6590   20.2170 C.3    29  PHE29       0.0534
      6  CG        17.2230   -1.3290   19.5600 C.ar   29  PHE29      -0.0203
      7  CD1       16.0760   -0.5930   19.7900 C.ar   29  PHE29      -0.0042
      8  CD2       18.1890   -0.8080   18.7130 C.ar   29  PHE29      -0.0042
      9  CE1       15.8910    0.6360   19.1910 C.ar   29  PHE29      -0.0003
     10  CE2       18.0080    0.4190   18.1070 C.ar   29  PHE29      -0.0003
     11  CZ        16.8590    1.1420   18.3440 C.ar   29  PHE29      -0.0000
     12  N         17.3230  -10.2110   15.4150 N.3    33  TRP33      -0.1241
     13  CA        16.5810  -11.0880   14.5240 C.3    33  TRP33       0.1605
     14  C         17.1170  -11.0030   13.1020 C.2    33  TRP33       0.2264
     15  O         17.8170  -10.0590   12.7230 O.2    33  TRP33      -0.2867
     16  CB        15.0620  -10.8080   14.5500 C.3    33  TRP33       0.0550
     17  CG        14.5970   -9.3950   14.3160 C.ar   33  TRP33       0.0003
     18  CD1       14.1490   -8.5170   15.2620 C.ar   33  TRP33       0.0946
     19  CD2       14.4610   -8.7250   13.0540 C.ar   33  TRP33       0.0152
     20  NE1       13.7730   -7.3350   14.6730 N.ar   33  TRP33      -0.2442
     21  CE2       13.9540   -7.4360   13.3190 C.ar   33  TRP33       0.0810
     22  CE3       14.7340   -9.0830   11.7310 C.ar   33  TRP33       0.0012
     23  CZ2       13.7130   -6.5060   12.3090 C.ar   33  TRP33       0.0191
     24  CZ3       14.4960   -8.1570   10.7300 C.ar   33  TRP33       0.0001
     25  CH2       13.9910   -6.8840   11.0250 C.ar   33  TRP33       0.0015
     26  N          9.0790   -2.1280    9.6540 N.3    57  HIS57      -0.1241
     27  CA         8.1980   -1.1810   10.3200 C.3    57  HIS57       0.1621
     28  C          8.8130    0.2140   10.2940 C.2    57  HIS57       0.2264
     29  O         10.0350    0.3790   10.3330 O.2    57  HIS57      -0.2867
     30  CB         7.9320   -1.6220   11.7600 C.3    57  HIS57       0.0745
     31  CG         6.9630   -0.7450   12.4910 C.ar   57  HIS57       0.0817
     32  ND1        7.3660    0.2250   13.3830 N.ar   57  HIS57      -0.2268
     33  CD2        5.6100   -0.6920   12.4620 C.ar   57  HIS57       0.1154
     34  CE1        6.3030    0.8390   13.8720 C.ar   57  HIS57       0.1986
     35  NE2        5.2250    0.3010   13.3300 N.ar   57  HIS57      -0.2212
     36  N          9.2940    2.4050   12.3170 N.3    59  SER59      -0.1202
     37  CA        10.1920    2.7690   13.4060 C.3    59  SER59       0.2020
     38  C         11.6480    2.4550   13.0860 C.2    59  SER59       0.2619
     39  O         12.5430    2.9700   13.7650 O.2    59  SER59      -0.2717
     40  CB         9.7800    2.0540   14.6930 C.3    59  SER59       0.2103
     41  OG         9.8610    0.6470   14.5400 O.3    59  SER59      -0.2182
     42  N         11.9090    1.6150   12.0710 N.am   60  PHE60      -0.1962
     43  CA        13.2970    1.3610   11.7190 C.3    60  PHE60       0.1756
     44  C         13.8070    2.4270   10.7550 C.2    60  PHE60       0.2461
     45  O         13.0520    2.9220    9.9120 O.2    60  PHE60      -0.2730
     46  CB        13.4440   -0.0120   11.0680 C.3    60  PHE60       0.0574
     47  CG        13.3070   -1.1630   12.0230 C.ar   60  PHE60      -0.0200
     48  CD1       14.4130   -1.6620   12.6920 C.ar   60  PHE60      -0.0042
     49  CD2       12.0760   -1.7590   12.2360 C.ar   60  PHE60      -0.0042
     50  CE1       14.2900   -2.7280   13.5640 C.ar   60  PHE60      -0.0003
     51  CE2       11.9470   -2.8250   13.1060 C.ar   60  PHE60      -0.0003
     52  CZ        13.0560   -3.3110   13.7690 C.ar   60  PHE60      -0.0000
     53  N         15.0790    2.8050   10.8490 N.am   61  PRO61      -0.2727
     54  CA        15.6580    3.6620    9.8110 C.3    61  PRO61       0.1402
     55  C         15.8170    2.8850    8.5140 C.2    61  PRO61       0.2269
     56  O         15.9970    1.6640    8.5180 O.2    61  PRO61      -0.2865
     57  CB        17.0150    4.0670   10.3950 C.3    61  PRO61       0.0296
     58  CG        17.3610    2.9680   11.3240 C.3    61  PRO61       0.0237
     59  CD        16.0630    2.4440   11.8830 C.3    61  PRO61       0.0939
     60  N         18.6200   -7.4140   12.0180 N.3    76  GLU76      -0.1231
     61  CA        18.3190   -6.2100   12.7740 C.3    76  GLU76       0.1699
     62  C         18.2640   -6.5080   14.2630 C.2    76  GLU76       0.2593
     63  O         18.2680   -7.6630   14.7000 O.2    76  GLU76      -0.2718
     64  CB        16.9970   -5.5760   12.3270 C.3    76  GLU76       0.0402
     65  CG        17.1390   -4.5260   11.2380 C.3    76  GLU76       0.1161
     66  CD        17.8600   -3.2730   11.7060 C.2    76  GLU76       0.3649
     67  OE1       18.1740   -3.1610   12.9110 O.co2  76  GLU76      -0.2457
     68  OE2       18.1140   -2.3910   10.8600 O.co2  76  GLU76      -0.2457
     69  N         18.2170   -5.4280   15.0370 N.am   77  SER77      -0.1938
     70  CA        18.0000   -5.4710   16.4730 C.3    77  SER77       0.2055
     71  C         16.7380   -4.6820   16.7910 C.2    77  SER77       0.2644
     72  O         16.5520   -3.5730   16.2770 O.2    77  SER77      -0.2714
     73  CB        19.2020   -4.9060   17.2340 C.3    77  SER77       0.2130
     74  OG        20.2750   -5.8330   17.2430 O.3    77  SER77      -0.2179
     75  N         15.8720   -5.2540   17.6250 N.am   78  GLY78      -0.1939
     76  CA        14.5750   -4.6520   17.8620 C.3    78  GLY78       0.2014
     77  C         13.9900   -5.0470   19.2000 C.2    78  GLY78       0.2639
     78  O         14.6070   -5.7650   19.9910 O.2    78  GLY78      -0.2714
     79  N         12.7670   -4.5670   19.4390 N.am   79  TYR79      -0.1959
     80  CA        12.0780   -4.7880   20.7030 C.3    79  TYR79       0.1771
     81  C         10.6490   -5.2940   20.5640 C.2    79  TYR79       0.2619
     82  O         10.0720   -5.7190   21.5700 O.2    79  TYR79      -0.2715
     83  CB        12.0510   -3.4940   21.5320 C.3    79  TYR79       0.0574
     84  CG        11.4630   -2.3230   20.7800 C.ar   79  TYR79      -0.0198
     85  CD1       10.0940   -2.0850   20.7840 C.ar   79  TYR79      -0.0009
     86  CD2       12.2740   -1.4650   20.0530 C.ar   79  TYR79      -0.0009
     87  CE1        9.5520   -1.0220   20.0880 C.ar   79  TYR79       0.0417
     88  CE2       11.7420   -0.3980   19.3580 C.ar   79  TYR79       0.0417
     89  CZ        10.3810   -0.1820   19.3770 C.ar   79  TYR79       0.1957
     90  OH         9.8510    0.8800   18.6840 O.3    79  TYR79      -0.2866
     91  N         10.0560   -5.2570   19.3710 N.am   80  ALA80      -0.1977
     92  CA         8.6510   -5.6020   19.2110 C.3    80  ALA80       0.1597
     93  C          8.4430   -6.3860   17.9250 C.2    80  ALA80       0.2287
     94  O          9.1420   -6.1800   16.9290 O.2    80  ALA80      -0.2864
     95  CB         7.7620   -4.3490   19.2000 C.3    80  ALA80       0.0319
     96  N          6.1620   -7.4340   14.5820 N.3    82  PHE82      -0.1241
     97  CA         5.4310   -6.6110   13.6290 C.3    82  PHE82       0.1605
     98  C          5.2090   -7.3870   12.3410 C.2    82  PHE82       0.2264
     99  O          5.8780   -8.3870   12.0680 O.2    82  PHE82      -0.2867
    100  CB         6.1700   -5.2980   13.3400 C.3    82  PHE82       0.0534
    101  CG         7.5270   -5.4860   12.7200 C.ar   82  PHE82      -0.0203
    102  CD1        8.6360   -5.7460   13.5090 C.ar   82  PHE82      -0.0042
    103  CD2        7.6950   -5.3910   11.3480 C.ar   82  PHE82      -0.0042
    104  CE1        9.8850   -5.9160   12.9420 C.ar   82  PHE82      -0.0003
    105  CE2        8.9420   -5.5600   10.7740 C.ar   82  PHE82      -0.0003
    106  CZ        10.0380   -5.8220   11.5720 C.ar   82  PHE82      -0.0000
@<TRIPOS>BOND
     1    55    56    2
     2    55    54    1
     3    26    27    1
     4    54    57    1
     5    54    53    1
     6    45    44    2
     7    28    27    1
     8    28    29    2
     9    27    30    1
    10    57    58    1
    11    24    25   ar
    12    24    22   ar
    13    44    53   am
    14    44    43    1
    15   105   103   ar
    16   105   106   ar
    17    53    59    1
    18    68    66   ar
    19    25    23   ar
    20    46    43    1
    21    46    47    1
    22    65    66    1
    23    65    64    1
    24    58    59    1
    25   103   101   ar
    26   106   104   ar
    27    66    67   ar
    28    43    42    1
    29    22    19   ar
    30    30    31    1
    31    60    61    1
    32    47    49   ar
    33    47    48   ar
    34    99    98    2
    35    42    38   am
    36    49    51   ar
    37    23    21   ar
    38    36    37    1
    39    64    61    1
    40    98    97    1
    41    33    31   ar
    42    33    35   ar
    43    31    32   ar
    44    48    50   ar
    45   101   100    1
    46   101   102   ar
    47    15    14    2
    48    61    62    1
    49   104   102   ar
    50    19    21   ar
    51    19    17   ar
    52    38    37    1
    53    38    39    2
    54    14    13    1
    55    51    52   ar
    56    21    20   ar
    57    35    34   ar
    58   100    97    1
    59    32    34   ar
    60    37    40    1
    61    50    52   ar
    62    97    96    1
    63    62    63    2
    64    62    69   am
    65    17    16    1
    66    17    18   ar
    67    13    16    1
    68    13    12    1
    69    41    40    1
    70    20    18   ar
    71    69    70    1
    72    72    71    2
    73    70    71    1
    74    70    73    1
    75    71    75   am
    76    94    93    2
    77    73    74    1
    78    75    76    1
    79    76    77    1
    80    93    92    1
    81    10    11   ar
    82    10     8   ar
    83    11     9   ar
    84    90    89    1
    85     8     6   ar
    86     9     7   ar
    87    95    92    1
    88    77    79   am
    89    77    78    2
    90    92    91    1
    91    88    89   ar
    92    88    86   ar
    93    91    81   am
    94    89    87   ar
    95    79    80    1
    96     6     7   ar
    97     6     5    1
    98    86    84   ar
    99    87    85   ar
   100     5     2    1
   101    81    80    1
   102    81    82    2
   103    80    83    1
   104    84    85   ar
   105    84    83    1
   106     2     3    1
   107     2     1    1
   108     3     4    2
