@<TRIPOS>MOLECULE
tmp/5yylA00.pdb
 91 88 0 0 0
SMALL
GASTEIGER

@<TRIPOS>ATOM
      1  N        -24.2370  -38.9770  -19.4280 N.3   335  ALA335     -0.1231
      2  CA       -25.1100  -39.8940  -20.1540 C.3   335  ALA335      0.1694
      3  C        -26.2610  -40.2990  -19.2510 C.2   335  ALA335      0.2592
      4  O        -26.0900  -40.3610  -18.0470 O.2   335  ALA335     -0.2718
      5  CB       -24.3390  -41.1210  -20.6160 C.3   335  ALA335      0.0304
      6  N        -27.4280  -40.5360  -19.8400 N.am  336  LEU336     -0.1966
      7  CA       -28.6550  -40.8640  -19.1020 C.3   336  LEU336      0.1713
      8  C        -29.2450  -42.1570  -19.6640 C.2   336  LEU336      0.2458
      9  O        -28.8780  -42.5590  -20.7670 O.2   336  LEU336     -0.2730
     10  CB       -29.6830  -39.7250  -19.2440 C.3   336  LEU336      0.0310
     11  CG       -29.4620  -38.4040  -18.4740 C.3   336  LEU336      0.0022
     12  CD1      -30.3580  -37.3060  -19.0270 C.3   336  LEU336      0.0001
     13  CD2      -29.7240  -38.6160  -16.9900 C.3   336  LEU336      0.0001
     14  N        -30.1450  -42.8330  -18.9410 N.am  337  PRO337     -0.2716
     15  CA       -30.5260  -42.5330  -17.5540 C.3   337  PRO337      0.1536
     16  C        -29.4110  -42.8110  -16.5580 C.2   337  PRO337      0.2599
     17  O        -28.4560  -43.4900  -16.8780 O.2   337  PRO337     -0.2715
     18  CB       -31.6800  -43.5010  -17.3080 C.3   337  PRO337      0.0310
     19  CG       -31.3490  -44.6890  -18.1560 C.3   337  PRO337      0.0237
     20  CD       -30.5740  -44.1830  -19.3460 C.3   337  PRO337      0.0939
     21  N        -29.5390  -42.2550  -15.3680 N.am  338  HIS338     -0.1960
     22  CA       -28.5290  -42.3960  -14.3370 C.3   338  HIS338      0.1787
     23  C        -28.8610  -43.5670  -13.4320 C.2   338  HIS338      0.2620
     24  O        -29.7430  -43.4620  -12.5810 O.2   338  HIS338     -0.2715
     25  CB       -28.4290  -41.1080  -13.5300 C.3   338  HIS338      0.0785
     26  CG       -27.4880  -41.2000  -12.3760 C.ar  338  HIS338      0.0821
     27  ND1      -26.2960  -41.8900  -12.4490 N.ar  338  HIS338     -0.2267
     28  CD2      -27.5710  -40.7090  -11.1140 C.ar  338  HIS338      0.1154
     29  CE1      -25.6740  -41.8000  -11.2870 C.ar  338  HIS338      0.1986
     30  NE2      -26.4310  -41.0990  -10.4580 N.ar  338  HIS338     -0.2212
     31  N        -28.1480  -44.6710  -13.6170 N.am  339  VAL339     -0.1977
     32  CA       -28.3480  -45.8910  -12.8360 C.3   339  VAL339      0.1596
     33  C        -27.0560  -46.1060  -12.0830 C.2   339  VAL339      0.2287
     34  O        -26.0990  -46.6000  -12.6500 O.2   339  VAL339     -0.2864
     35  CB       -28.6310  -47.0870  -13.7490 C.3   339  VAL339      0.0276
     36  CG1      -29.0380  -48.2950  -12.9220 C.3   339  VAL339      0.0022
     37  CG2      -29.7080  -46.7210  -14.7650 C.3   339  VAL339      0.0022
     38  N        -24.3960  -49.1420  -12.1260 N.3   342  PHE342     -0.1227
     39  CA       -23.6300  -49.3260  -13.3450 C.3   342  PHE342      0.1736
     40  C        -22.6650  -48.1970  -13.6920 C.2   342  PHE342      0.2595
     41  O        -22.0780  -48.2120  -14.7740 O.2   342  PHE342     -0.2718
     42  CB       -24.5820  -49.5340  -14.5430 C.3   342  PHE342      0.0547
     43  CG       -25.5530  -50.6800  -14.3850 C.ar  342  PHE342     -0.0202
     44  CD1      -25.2180  -51.8310  -13.6800 C.ar  342  PHE342     -0.0042
     45  CD2      -26.8060  -50.6150  -14.9780 C.ar  342  PHE342     -0.0042
     46  CE1      -26.1270  -52.8840  -13.5490 C.ar  342  PHE342     -0.0003
     47  CE2      -27.7160  -51.6490  -14.8330 C.ar  342  PHE342     -0.0003
     48  CZ       -27.3730  -52.7980  -14.1250 C.ar  342  PHE342     -0.0000
     49  N        -22.4660  -47.2310  -12.8060 N.am  343  ASP343     -0.1974
     50  CA       -21.5440  -46.1180  -13.1010 C.3   343  ASP343      0.1709
     51  C        -20.1340  -46.6050  -13.4340 C.2   343  ASP343      0.2293
     52  O        -19.4690  -46.0540  -14.3040 O.2   343  ASP343     -0.2864
     53  CB       -21.4610  -45.1220  -11.9260 C.3   343  ASP343      0.1436
     54  CG       -22.7460  -44.3100  -11.7290 C.2   343  ASP343      0.3671
     55  OD1      -22.9560  -43.8030  -10.5940 O.co2 343  ASP343     -0.2456
     56  OD2      -23.5380  -44.1770  -12.6930 O.co2 343  ASP343     -0.2456
     57  N        -19.1910  -47.2190  -17.1450 N.3   346  ILE346     -0.1245
     58  CA       -19.5160  -46.1590  -18.1020 C.3   346  ILE346      0.1561
     59  C        -18.7350  -44.8890  -17.8370 C.2   346  ILE346      0.2260
     60  O        -18.7860  -44.3480  -16.7290 O.2   346  ILE346     -0.2867
     61  CB       -21.0230  -45.8060  -18.0610 C.3   346  ILE346      0.0252
     62  CG1      -21.8420  -47.0980  -18.0750 C.3   346  ILE346      0.0019
     63  CG2      -21.3930  -44.9230  -19.2540 C.3   346  ILE346      0.0019
     64  CD1      -23.2860  -46.9600  -18.3750 C.3   346  ILE346      0.0001
     65  N        -19.3540  -41.5820  -18.3070 N.3   348  ARG348     -0.1245
     66  CA       -20.6760  -40.9720  -18.5380 C.3   348  ARG348      0.1563
     67  C        -20.6160  -39.5750  -19.1600 C.2   348  ARG348      0.2260
     68  O        -21.5220  -39.2070  -19.9020 O.2   348  ARG348     -0.2867
     69  CB       -21.4980  -40.9340  -17.2460 C.3   348  ARG348      0.0307
     70  CG       -21.8720  -42.3300  -16.7450 C.3   348  ARG348      0.0489
     71  CD       -22.3850  -42.4130  -15.2860 C.3   348  ARG348      0.2205
     72  NE       -23.1430  -41.2670  -14.7290 N.pl3 348  ARG348     -0.0865
     73  CZ       -24.3760  -40.8960  -15.0810 C.cat 348  ARG348      0.5346
     74  NH1      -25.0230  -41.5590  -16.0400 N.pl3 348  ARG348      0.1354
     75  NH2      -24.9600  -39.8550  -14.4900 N.pl3 348  ARG348      0.1354
     76  N        -17.6020  -48.5570  -21.1920 N.3   401  ILE401     -0.1245
     77  CA       -18.3000  -47.9260  -22.3150 C.3   401  ILE401      0.1561
     78  C        -18.1470  -46.4100  -22.3130 C.2   401  ILE401      0.2260
     79  O        -18.5250  -45.7200  -21.3530 O.2   401  ILE401     -0.2867
     80  CB       -19.7970  -48.2590  -22.3240 C.3   401  ILE401      0.0252
     81  CG1      -19.9880  -49.7490  -22.0410 C.3   401  ILE401      0.0019
     82  CG2      -20.3980  -47.8290  -23.6690 C.3   401  ILE401      0.0019
     83  CD1      -21.3320  -50.3150  -22.4300 C.3   401  ILE401      0.0001
     84  N        -19.2930  -42.8330  -23.9070 N.3   403  ILE403     -0.1245
     85  CA       -20.5030  -42.2640  -24.4700 C.3   403  ILE403      0.1561
     86  C        -20.3000  -40.8380  -24.9600 C.2   403  ILE403      0.2260
     87  O        -19.6160  -40.0460  -24.3200 O.2   403  ILE403     -0.2867
     88  CB       -21.5840  -42.1920  -23.3960 C.3   403  ILE403      0.0252
     89  CG1      -21.8150  -43.5590  -22.7730 C.3   403  ILE403      0.0019
     90  CG2      -22.8820  -41.6410  -23.9720 C.3   403  ILE403      0.0019
     91  CD1      -22.3120  -44.6180  -23.7420 C.3   403  ILE403      0.0001
@<TRIPOS>BOND
     1    86    85    1
     2    86    87    2
     3    85    84    1
     4    85    88    1
     5    90    88    1
     6    91    89    1
     7    82    80    1
     8    88    89    1
     9    83    81    1
    10    80    77    1
    11    80    81    1
    12    77    78    1
    13    77    76    1
    14    78    79    2
    15     9     8    2
    16     5     2    1
    17     2     1    1
    18     2     3    1
    19    68    67    2
    20     6     3   am
    21     6     7    1
    22     8     7    1
    23     8    14   am
    24    20    14    1
    25    20    19    1
    26    63    61    1
    27     3     4    2
    28    10     7    1
    29    10    11    1
    30    67    66    1
    31    12    11    1
    32    14    15    1
    33    66    65    1
    34    66    69    1
    35    11    13    1
    36    64    62    1
    37    19    18    1
    38    58    61    1
    39    58    59    1
    40    58    57    1
    41    62    61    1
    42    59    60    2
    43    15    18    1
    44    15    16    1
    45    69    70    1
    46    17    16    2
    47    70    71    1
    48    16    21   am
    49    74    73    1
    50    21    22    1
    51    71    72    1
    52    73    72    2
    53    73    75    1
    54    45    47   ar
    55    45    43   ar
    56    47    48   ar
    57    41    40    2
    58    37    35    1
    59    42    43    1
    60    42    39    1
    61    43    44   ar
    62    22    25    1
    63    22    23    1
    64    52    51    2
    65    48    46   ar
    66    35    36    1
    67    35    32    1
    68    40    39    1
    69    40    49   am
    70    44    46   ar
    71    31    23   am
    72    31    32    1
    73    25    26    1
    74    51    50    1
    75    23    24    2
    76    39    38    1
    77    50    49    1
    78    50    53    1
    79    32    33    1
    80    56    54   ar
    81    34    33    2
    82    27    26   ar
    83    27    29   ar
    84    26    28   ar
    85    53    54    1
    86    54    55   ar
    87    29    30   ar
    88    28    30   ar
