@<TRIPOS>MOLECULE
tmp/5yylB02.pdb
 91 88 0 0 0
SMALL
GASTEIGER

@<TRIPOS>ATOM
      1  N        -11.5300  -59.6930  -28.6770 N.3   308  ALA308     -0.1231
      2  CA       -12.7770  -60.0460  -28.0000 C.3   308  ALA308      0.1694
      3  C        -13.6460  -60.8500  -28.9390 C.2   308  ALA308      0.2592
      4  O        -13.5780  -60.6520  -30.1440 O.2   308  ALA308     -0.2718
      5  CB       -13.5010  -58.7980  -27.5400 C.3   308  ALA308      0.0304
      6  N        -14.4300  -61.7700  -28.3870 N.am  309  LEU309     -0.1966
      7  CA       -15.2610  -62.6940  -29.1740 C.3   309  LEU309      0.1713
      8  C        -16.7210  -62.5820  -28.7280 C.2   309  LEU309      0.2458
      9  O        -16.9790  -62.0470  -27.6520 O.2   309  LEU309     -0.2730
     10  CB       -14.7690  -64.1310  -28.9870 C.3   309  LEU309      0.0310
     11  CG       -13.4650  -64.5730  -29.6760 C.3   309  LEU309      0.0022
     12  CD1      -12.9440  -65.8860  -29.1080 C.3   309  LEU309      0.0001
     13  CD2      -13.6530  -64.7250  -31.1680 C.3   309  LEU309      0.0001
     14  N        -17.6830  -63.0320  -29.5370 N.am  310  PRO310     -0.2716
     15  CA       -17.4900  -63.5310  -30.9030 C.3   310  PRO310      0.1536
     16  C        -17.1060  -62.4360  -31.8780 C.2   310  PRO310      0.2599
     17  O        -17.2740  -61.2540  -31.5730 O.2   310  PRO310     -0.2715
     18  CB       -18.8700  -64.0690  -31.2630 C.3   310  PRO310      0.0310
     19  CG       -19.8160  -63.1980  -30.4980 C.3   310  PRO310      0.0237
     20  CD       -19.1000  -62.7180  -29.2570 C.3   310  PRO310      0.0939
     21  N        -16.5830  -62.8280  -33.0340 N.am  311  HIS311     -0.1960
     22  CA       -16.1390  -61.8650  -34.0230 C.3   311  HIS311      0.1787
     23  C        -17.2570  -61.5990  -35.0200 C.2   311  HIS311      0.2620
     24  O        -17.4980  -62.4060  -35.9140 O.2   311  HIS311     -0.2715
     25  CB       -14.8930  -62.3520  -34.7460 C.3   311  HIS311      0.0785
     26  CG       -14.4470  -61.4320  -35.8380 C.ar  311  HIS311      0.0821
     27  ND1      -14.5210  -60.0580  -35.7250 N.ar  311  HIS311     -0.2267
     28  CD2      -13.9280  -61.6840  -37.0610 C.ar  311  HIS311      0.1154
     29  CE1      -14.0770  -59.5030  -36.8380 C.ar  311  HIS311      0.1986
     30  NE2      -13.6950  -60.4670  -37.6570 N.ar  311  HIS311     -0.2212
     31  N        -17.9220  -60.4550  -34.8520 N.am  312  VAL312     -0.1977
     32  CA       -19.0370  -60.0590  -35.6830 C.3   312  VAL312      0.1596
     33  C        -18.5770  -58.7840  -36.3520 C.2   312  VAL312      0.2287
     34  O        -18.6240  -57.7200  -35.7330 O.2   312  VAL312     -0.2864
     35  CB       -20.2930  -59.8020  -34.8540 C.3   312  VAL312      0.0276
     36  CG1      -21.4870  -59.5800  -35.7700 C.3   312  VAL312      0.0022
     37  CG2      -20.5490  -60.9660  -33.9170 C.3   312  VAL312      0.0022
     38  N        -20.0780  -55.0300  -36.2680 N.3   315  PHE315     -0.1227
     39  CA       -19.9830  -54.2870  -35.0110 C.3   315  PHE315      0.1736
     40  C        -18.5630  -53.9380  -34.5810 C.2   315  PHE315      0.2595
     41  O        -18.3830  -53.4190  -33.4900 O.2   315  PHE315     -0.2718
     42  CB       -20.6500  -55.0720  -33.8630 C.3   315  PHE315      0.0547
     43  CG       -22.0780  -55.4960  -34.1280 C.ar  315  PHE315     -0.0202
     44  CD1      -22.9490  -54.7360  -34.9100 C.ar  315  PHE315     -0.0042
     45  CD2      -22.5710  -56.6420  -33.5310 C.ar  315  PHE315     -0.0042
     46  CE1      -24.2620  -55.1360  -35.1170 C.ar  315  PHE315     -0.0003
     47  CE2      -23.8930  -57.0430  -33.7160 C.ar  315  PHE315     -0.0003
     48  CZ       -24.7390  -56.2940  -34.5210 C.ar  315  PHE315     -0.0000
     49  N        -17.5500  -54.1850  -35.4130 N.am  316  ASP316     -0.1974
     50  CA       -16.1590  -53.8660  -35.0230 C.3   316  ASP316      0.1709
     51  C        -15.9860  -52.3920  -34.6550 C.2   316  ASP316      0.2293
     52  O        -15.2490  -52.0830  -33.7280 O.2   316  ASP316     -0.2864
     53  CB       -15.1640  -54.2310  -36.1270 C.3   316  ASP316      0.1436
     54  CG       -15.0130  -55.7500  -36.3400 C.2   316  ASP316      0.3671
     55  OD1      -14.5780  -56.1470  -37.4560 O.co2 316  ASP316     -0.2456
     56  OD2      -15.3230  -56.5490  -35.4170 O.co2 316  ASP316     -0.2456
     57  N        -16.3220  -51.4050  -30.9130 N.3   319  ILE319     -0.1245
     58  CA       -15.5730  -52.1790  -29.9310 C.3   319  ILE319      0.1561
     59  C        -14.0780  -52.0600  -30.1290 C.2   319  ILE319      0.2260
     60  O        -13.5630  -52.3240  -31.2200 O.2   319  ILE319     -0.2867
     61  CB       -15.9290  -53.6810  -30.0280 C.3   319  ILE319      0.0252
     62  CG1      -17.4350  -53.8880  -30.2030 C.3   319  ILE319      0.0019
     63  CG2      -15.3950  -54.4340  -28.8080 C.3   319  ILE319      0.0019
     64  CD1      -18.2370  -53.6930  -28.9420 C.3   319  ILE319      0.0001
     65  N        -11.4730  -54.1320  -29.6060 N.3   321  ARG321     -0.1245
     66  CA       -11.5620  -55.5840  -29.4210 C.3   321  ARG321      0.1563
     67  C        -10.3400  -56.2160  -28.7810 C.2   321  ARG321      0.2260
     68  O        -10.4640  -57.2130  -28.0750 O.2   321  ARG321     -0.2867
     69  CB       -11.8440  -56.2760  -30.7580 C.3   321  ARG321      0.0307
     70  CG       -13.2150  -55.9700  -31.3130 C.3   321  ARG321      0.0489
     71  CD       -13.4450  -56.5170  -32.6920 C.3   321  ARG321      0.2205
     72  NE       -13.6170  -57.9530  -32.5760 N.pl3 321  ARG321     -0.0865
     73  CZ       -12.7760  -58.8770  -33.0430 C.cat 321  ARG321      0.5346
     74  NH1      -11.6620  -58.5520  -33.7190 N.pl3 321  ARG321      0.1354
     75  NH2      -13.0470  -60.1740  -32.8580 N.pl3 321  ARG321      0.1354
     76  N        -16.9380  -49.4810  -26.8320 N.3   371  ILE371     -0.1245
     77  CA       -16.7350  -50.4110  -25.7140 C.3   371  ILE371      0.1561
     78  C        -15.3040  -50.9550  -25.6690 C.2   371  ILE371      0.2260
     79  O        -14.8350  -51.5790  -26.6290 O.2   371  ILE371     -0.2867
     80  CB       -17.6930  -51.5980  -25.7880 C.3   371  ILE371      0.0252
     81  CG1      -19.0950  -51.0990  -26.1220 C.3   371  ILE371      0.0019
     82  CG2      -17.6430  -52.3680  -24.4670 C.3   371  ILE371      0.0019
     83  CD1      -20.2030  -52.1050  -25.8950 C.3   371  ILE371      0.0001
     84  N        -12.7090  -53.6600  -24.0430 N.3   373  ILE373     -0.1245
     85  CA       -12.7600  -55.0120  -23.5130 C.3   373  ILE373      0.1561
     86  C        -11.4070  -55.4850  -23.0080 C.2   373  ILE373      0.2260
     87  O        -10.3690  -55.2110  -23.6240 O.2   373  ILE373     -0.2867
     88  CB       -13.1430  -55.9830  -24.6330 C.3   373  ILE373      0.0252
     89  CG1      -14.4530  -55.5490  -25.2900 C.3   373  ILE373      0.0019
     90  CG2      -13.2310  -57.4100  -24.1090 C.3   373  ILE373      0.0019
     91  CD1      -15.6500  -55.5520  -24.3640 C.3   373  ILE373      0.0001
@<TRIPOS>BOND
     1    30    28   ar
     2    30    29   ar
     3    55    54   ar
     4    28    26   ar
     5    29    27   ar
     6    33    34    2
     7    33    32    1
     8    54    53    1
     9    54    56   ar
    10    38    39    1
    11    53    50    1
    12    24    23    2
    13    26    27   ar
    14    26    25    1
    15    36    35    1
    16    32    35    1
    17    32    31    1
    18    49    50    1
    19    49    40   am
    20    46    44   ar
    21    46    48   ar
    22    50    51    1
    23    23    31   am
    24    23    22    1
    25    39    40    1
    26    39    42    1
    27    44    43   ar
    28    35    37    1
    29    25    22    1
    30    51    52    2
    31    40    41    2
    32    48    47   ar
    33    43    42    1
    34    43    45   ar
    35    22    21    1
    36    74    73    1
    37    47    45   ar
    38    73    75    1
    39    73    72    2
    40    21    16   am
    41    71    72    1
    42    71    70    1
    43    16    17    2
    44    16    15    1
    45    70    69    1
    46    18    15    1
    47    18    19    1
    48    60    59    2
    49    13    11    1
    50    57    58    1
    51    15    14    1
    52    69    66    1
    53    19    20    1
    54    62    61    1
    55    62    64    1
    56     4     3    2
    57    59    58    1
    58    61    58    1
    59    61    63    1
    60    11    12    1
    61    11    10    1
    62    65    66    1
    63    14    20    1
    64    14     8   am
    65    66    67    1
    66     7    10    1
    67     7     8    1
    68     7     6    1
    69     3     6   am
    70     3     2    1
    71    67    68    2
    72     8     9    2
    73     1     2    1
    74     2     5    1
    75    76    77    1
    76    79    78    2
    77    81    83    1
    78    81    80    1
    79    80    77    1
    80    80    82    1
    81    77    78    1
    82    89    88    1
    83    89    91    1
    84    88    90    1
    85    88    85    1
    86    84    85    1
    87    87    86    2
    88    85    86    1
