@<TRIPOS>MOLECULE
tmp/5yymB00.pdb
 147 141 0 0 0
SMALL
GASTEIGER

@<TRIPOS>ATOM
      1  N         21.4560   43.4280   53.1470 N.3   125  ASP125     -0.1225
      2  CA        22.0680   42.2970   52.4580 C.3   125  ASP125      0.1805
      3  C         21.8700   42.4440   50.9470 C.2   125  ASP125      0.2597
      4  O         20.7440   42.3430   50.4540 O.2   125  ASP125     -0.2718
      5  CB        21.4020   41.0080   52.9480 C.3   125  ASP125      0.1424
      6  CG        22.0950   39.7480   52.4530 C.2   125  ASP125      0.3668
      7  OD1       22.2970   38.8340   53.2810 O.co2 125  ASP125     -0.2456
      8  OD2       22.4150   39.6510   51.2480 O.co2 125  ASP125     -0.2456
      9  N         22.9570   42.6760   50.2120 N.am  126  TYR126     -0.1976
     10  CA        22.8540   42.8680   48.7650 C.3   126  TYR126      0.1639
     11  C         24.1360   42.5610   47.9880 C.2   126  TYR126      0.2290
     12  O         25.1940   42.3360   48.5790 O.2   126  TYR126     -0.2864
     13  CB        22.3320   44.2750   48.4280 C.3   126  TYR126      0.0560
     14  CG        23.2770   45.4240   48.7290 C.ar  126  TYR126     -0.0198
     15  CD1       23.7400   46.2480   47.7070 C.ar  126  TYR126     -0.0009
     16  CD2       23.6870   45.7010   50.0280 C.ar  126  TYR126     -0.0009
     17  CE1       24.5910   47.3080   47.9670 C.ar  126  TYR126      0.0417
     18  CE2       24.5410   46.7600   50.2990 C.ar  126  TYR126      0.0417
     19  CZ        24.9880   47.5590   49.2630 C.ar  126  TYR126      0.1957
     20  OH        25.8350   48.6120   49.5210 O.3   126  TYR126     -0.2866
     21  N         26.1800   40.2990   46.7580 N.3   128  ALA128     -0.1231
     22  CA        26.4810   38.8870   46.9990 C.3   128  ALA128      0.1679
     23  C         27.0270   38.1340   45.7830 C.2   128  ALA128      0.2434
     24  O         26.3570   37.2490   45.2520 O.2   128  ALA128     -0.2733
     25  CB        25.2450   38.1760   47.5350 C.3   128  ALA128      0.0304
     26  N         28.2500   38.4750   45.3450 N.am  129  PRO129     -0.2718
     27  CA        28.8530   37.7760   44.2070 C.3   129  PRO129      0.1535
     28  C         29.4460   36.4250   44.6090 C.2   129  PRO129      0.2598
     29  O         29.5820   36.1400   45.8030 O.2   129  PRO129     -0.2715
     30  CB        29.9710   38.7240   43.7810 C.3   129  PRO129      0.0310
     31  CG        30.3840   39.3860   45.0510 C.3   129  PRO129      0.0237
     32  CD        29.1250   39.5420   45.8640 C.3   129  PRO129      0.0939
     33  N         29.7880   35.6090   43.6150 N.am  130  ASN130     -0.1973
     34  CA        30.4200   34.3130   43.8540 C.3   130  ASN130      0.1688
     35  C         31.9330   34.3780   43.6390 C.2   130  ASN130      0.2292
     36  O         32.4070   35.0210   42.7010 O.2   130  ASN130     -0.2864
     37  CB        29.8210   33.2420   42.9350 C.3   130  ASN130      0.1181
     38  CG        28.3180   33.0950   43.1000 C.2   130  ASN130      0.2629
     39  OD1       27.8110   32.9640   44.2130 O.2   130  ASN130     -0.2716
     40  ND2       27.5970   33.1170   41.9830 N.am  130  ASN130     -0.0877
     41  N         23.4850   39.7630   39.1470 N.3   139  HIS139     -0.1241
     42  CA        23.9190   40.3630   40.4040 C.3   139  HIS139      0.1621
     43  C         23.7580   41.8780   40.3670 C.2   139  HIS139      0.2264
     44  O         23.9080   42.5460   41.3870 O.2   139  HIS139     -0.2867
     45  CB        25.3910   40.0470   40.6900 C.3   139  HIS139      0.0745
     46  CG        25.6520   38.6320   41.1080 C.ar  139  HIS139      0.0817
     47  ND1       26.3090   37.7260   40.3020 N.ar  139  HIS139     -0.2268
     48  CD2       25.3660   37.9730   42.2570 C.ar  139  HIS139      0.1154
     49  CE1       26.4130   36.5710   40.9340 C.ar  139  HIS139      0.1986
     50  NE2       25.8450   36.6920   42.1210 N.ar  139  HIS139     -0.2212
     51  N         27.0010   39.2700   51.1960 N.3   165  HIS165     -0.1241
     52  CA        26.9810   37.8370   51.4750 C.3   165  HIS165      0.1621
     53  C         27.6250   37.0510   50.3370 C.2   165  HIS165      0.2264
     54  O         26.9270   36.4170   49.5530 O.2   165  HIS165     -0.2867
     55  CB        25.5290   37.3820   51.6550 C.3   165  HIS165      0.0745
     56  CG        25.3770   36.1070   52.4250 C.ar  165  HIS165      0.0817
     57  ND1       25.5860   36.0290   53.7850 N.ar  165  HIS165     -0.2268
     58  CD2       25.0190   34.8630   52.0270 C.ar  165  HIS165      0.1154
     59  CE1       25.3720   34.7900   54.1900 C.ar  165  HIS165      0.1986
     60  NE2       25.0270   34.0620   53.1440 N.ar  165  HIS165     -0.2212
     61  N         29.5030   34.2870   48.0490 N.3   167  GLY167     -0.1225
     62  CA        29.5830   32.8380   47.9830 C.3   167  GLY167      0.1811
     63  C         31.0340   32.4050   48.0410 C.2   167  GLY167      0.2280
     64  O         31.6980   32.2920   47.0100 O.2   167  GLY167     -0.2866
     65  N         29.5170   33.4950   53.3190 N.3   256  GLU256     -0.1245
     66  CA        28.8970   32.3090   53.9000 C.3   256  GLU256      0.1567
     67  C         29.8000   31.6400   54.9330 C.2   256  GLU256      0.2260
     68  O         29.3180   31.0380   55.8910 O.2   256  GLU256     -0.2867
     69  CB        28.5540   31.3070   52.7960 C.3   256  GLU256      0.0388
     70  CG        27.6300   31.8600   51.7240 C.3   256  GLU256      0.1160
     71  CD        27.6770   31.0530   50.4410 C.2   256  GLU256      0.3649
     72  OE1       28.4870   30.1050   50.3610 O.co2 256  GLU256     -0.2457
     73  OE2       26.9060   31.3690   49.5100 O.co2 256  GLU256     -0.2457
     74  N         21.3760   30.4670   56.2030 N.3   315  ASP315     -0.1239
     75  CA        20.4080   31.5570   56.2980 C.3   315  ASP315      0.1674
     76  C         19.8540   31.7220   57.7140 C.2   315  ASP315      0.2266
     77  O         19.5670   32.8380   58.1490 O.2   315  ASP315     -0.2867
     78  CB        19.2620   31.3510   55.3030 C.3   315  ASP315      0.1410
     79  CG        19.7040   31.5130   53.8580 C.2   315  ASP315      0.3668
     80  OD1       20.7140   32.2060   53.6110 O.co2 315  ASP315     -0.2456
     81  OD2       19.0340   30.9540   52.9660 O.co2 315  ASP315     -0.2456
     82  N         22.6120   33.1670   59.8010 N.3   318  CYS318     -0.1235
     83  CA        22.8510   34.5300   59.3520 C.3   318  CYS318      0.1677
     84  C         21.9370   35.5380   60.0520 C.2   318  CYS318      0.2270
     85  O         22.3970   36.5690   60.5400 O.2   318  CYS318     -0.2867
     86  CB        22.6770   34.6150   57.8370 C.3   318  CYS318      0.0956
     87  SG        23.0860   36.2200   57.1580 S.3   318  CYS318     -0.0801
     88  N         22.9740   38.4190   62.8580 N.3   322  ARG322     -0.1245
     89  CA        22.6680   39.8270   62.6210 C.3   322  ARG322      0.1563
     90  C         21.8640   40.4540   63.7550 C.2   322  ARG322      0.2260
     91  O         21.8930   41.6700   63.9490 O.2   322  ARG322     -0.2867
     92  CB        21.9560   40.0070   61.2790 C.3   322  ARG322      0.0307
     93  CG        22.8880   39.8180   60.0970 C.3   322  ARG322      0.0489
     94  CD        22.1500   39.7680   58.7730 C.3   322  ARG322      0.2205
     95  NE        23.0970   39.6180   57.6720 N.pl3 322  ARG322     -0.0865
     96  CZ        22.7590   39.3320   56.4200 C.cat 322  ARG322      0.5346
     97  NH1       21.4850   39.1480   56.0950 N.pl3 322  ARG322      0.1354
     98  NH2       23.7010   39.2090   55.4950 N.pl3 322  ARG322      0.1354
     99  N         16.7880   42.1940   52.7210 N.3   333  TYR333     -0.1227
    100  CA        17.4170   41.2870   51.7730 C.3   333  TYR333      0.1736
    101  C         17.0450   41.6670   50.3420 C.2   333  TYR333      0.2595
    102  O         15.8860   41.5460   49.9410 O.2   333  TYR333     -0.2718
    103  CB        16.9990   39.8390   52.0550 C.3   333  TYR333      0.0548
    104  CG        17.4590   39.2960   53.3960 C.ar  333  TYR333     -0.0200
    105  CD1       16.8590   39.7080   54.5790 C.ar  333  TYR333     -0.0009
    106  CD2       18.4830   38.3590   53.4740 C.ar  333  TYR333     -0.0009
    107  CE1       17.2680   39.2070   55.8050 C.ar  333  TYR333      0.0417
    108  CE2       18.9000   37.8550   54.6950 C.ar  333  TYR333      0.0417
    109  CZ        18.2900   38.2860   55.8570 C.ar  333  TYR333      0.1957
    110  OH        18.6980   37.7880   57.0740 O.3   333  TYR333     -0.2866
    111  N         18.0280   42.1310   49.5760 N.am  334  TYR334     -0.1962
    112  CA        17.8050   42.4160   48.1590 C.3   334  TYR334      0.1771
    113  C         18.2450   41.2350   47.2950 C.2   334  TYR334      0.2619
    114  O         19.4020   41.1290   46.8870 O.2   334  TYR334     -0.2715
    115  CB        18.4800   43.7250   47.7480 C.3   334  TYR334      0.0574
    116  CG        17.7410   44.9250   48.2920 C.ar  334  TYR334     -0.0198
    117  CD1       16.7720   45.5660   47.5320 C.ar  334  TYR334     -0.0009
    118  CD2       17.9800   45.3920   49.5800 C.ar  334  TYR334     -0.0009
    119  CE1       16.0790   46.6490   48.0250 C.ar  334  TYR334      0.0417
    120  CE2       17.2860   46.4800   50.0850 C.ar  334  TYR334      0.0417
    121  CZ        16.3380   47.1020   49.2990 C.ar  334  TYR334      0.1957
    122  OH        15.6340   48.1790   49.7800 O.3   334  TYR334     -0.2866
    123  N         17.2970   40.3380   47.0440 N.am  335  ILE335     -0.1977
    124  CA        17.5760   39.0500   46.4200 C.3   335  ILE335      0.1596
    125  C         16.4860   38.7530   45.3950 C.2   335  ILE335      0.2287
    126  O         15.3470   39.1970   45.5540 O.2   335  ILE335     -0.2864
    127  CB        17.6030   37.9170   47.4860 C.3   335  ILE335      0.0276
    128  CG1       18.5470   38.2710   48.6390 C.3   335  ILE335      0.0022
    129  CG2       18.0110   36.5820   46.8740 C.3   335  ILE335      0.0022
    130  CD1       18.6190   37.2140   49.7230 C.3   335  ILE335      0.0001
    131  N         14.0970   33.3040   45.1200 N.3   339  GLN339     -0.1245
    132  CA        14.6200   32.8280   46.3950 C.3   339  GLN339      0.1566
    133  C         13.6360   33.0520   47.5390 C.2   339  GLN339      0.2260
    134  O         13.9570   32.7870   48.6990 O.2   339  GLN339     -0.2867
    135  CB        15.9470   33.5180   46.7120 C.3   339  GLN339      0.0367
    136  CG        17.0670   33.1710   45.7480 C.3   339  GLN339      0.0905
    137  CD        17.4510   31.7090   45.8130 C.2   339  GLN339      0.2608
    138  OE1       17.5020   31.1180   46.8920 O.2   339  GLN339     -0.2717
    139  NE2       17.7200   31.1140   44.6550 N.am  339  GLN339     -0.0878
    140  N         13.9140   31.7720   51.5510 N.3   343  LEU343     -0.1245
    141  CA        14.1390   32.7410   52.6190 C.3   343  LEU343      0.1561
    142  C         13.0550   32.6560   53.6850 C.2   343  LEU343      0.2260
    143  O         13.3450   32.6890   54.8810 O.2   343  LEU343     -0.2867
    144  CB        14.1980   34.1650   52.0580 C.3   343  LEU343      0.0270
    145  CG        15.3810   34.5300   51.1590 C.3   343  LEU343      0.0019
    146  CD1       15.1730   35.9110   50.5410 C.3   343  LEU343      0.0001
    147  CD2       16.6850   34.4830   51.9400 C.3   343  LEU343      0.0001
@<TRIPOS>BOND
     1    41    42    1
     2    47    49   ar
     3    47    46   ar
     4    43    42    1
     5    43    44    2
     6    42    45    1
     7    45    46    1
     8    49    50   ar
     9    46    48   ar
    10    40    38   am
    11    50    48   ar
    12    36    35    2
    13    37    38    1
    14    37    34    1
    15    38    39    2
    16    33    34    1
    17    33    28   am
    18    35    34    1
    19    30    27    1
    20    30    31    1
    21    27    28    1
    22    27    26    1
    23    28    29    2
    24   139   137   am
    25    31    32    1
    26   131   132    1
    27    24    23    2
    28    26    23   am
    29    26    32    1
    30   125   126    2
    31   125   124    1
    32   136   137    1
    33   136   135    1
    34    23    22    1
    35   137   138    2
    36   132   135    1
    37   132   133    1
    38   124   123    1
    39   124   127    1
    40    21    22    1
    41   129   127    1
    42   114   113    2
    43    22    25    1
    44    64    63    2
    45   123   113   am
    46   113   112    1
    47   127   128    1
    48   117   119   ar
    49   117   116   ar
    50   133   134    2
    51    15    17   ar
    52    15    14   ar
    53   115   112    1
    54   115   116    1
    55    17    19   ar
    56    62    63    1
    57    62    61    1
    58    11    12    2
    59    11    10    1
    60   119   121   ar
    61   112   111    1
    62   116   118   ar
    63    13    14    1
    64    13    10    1
    65   128   130    1
    66    14    16   ar
    67    10     9    1
    68    19    20    1
    69    19    18   ar
    70   121   122    1
    71   121   120   ar
    72    73    71   ar
    73    54    53    2
    74   111   101   am
    75   118   120   ar
    76   102   101    2
    77    16    18   ar
    78     9     3   am
    79    53    52    1
    80   101   100    1
    81    72    71   ar
    82    71    70    1
    83     4     3    2
    84   146   145    1
    85     3     2    1
    86   145   147    1
    87   145   144    1
    88    51    52    1
    89     8     6   ar
    90    52    55    1
    91   140   141    1
    92    55    56    1
    93    70    69    1
    94   100   103    1
    95   100    99    1
    96    58    56   ar
    97    58    60   ar
    98   103   104    1
    99   144   141    1
   100    56    57   ar
   101     6     5    1
   102     6     7   ar
   103     2     5    1
   104     2     1    1
   105   141   142    1
   106    69    66    1
   107    81    79   ar
   108    60    59   ar
   109    65    66    1
   110   104   106   ar
   111   104   105   ar
   112   106   108   ar
   113    80    79   ar
   114   142   143    2
   115    57    59   ar
   116    79    78    1
   117    66    67    1
   118   105   107   ar
   119   108   109   ar
   120    67    68    2
   121    78    75    1
   122    98    96    1
   123   107   109   ar
   124   109   110    1
   125    97    96    1
   126    74    75    1
   127    75    76    1
   128    96    95    2
   129    87    86    1
   130    95    94    1
   131    76    77    2
   132    86    83    1
   133    94    93    1
   134    83    82    1
   135    83    84    1
   136    84    85    2
   137    93    92    1
   138    92    89    1
   139    89    88    1
   140    89    90    1
   141    90    91    2
