@<TRIPOS>MOLECULE
tmp/5yymA00.pdb
 154 149 0 0 0
SMALL
GASTEIGER

@<TRIPOS>ATOM
      1  N          7.4720  118.1520   27.3760 N.3   126  ASP126     -0.1225
      2  CA         6.8260  119.2830   26.7190 C.3   126  ASP126      0.1805
      3  C          6.9520  119.1360   25.2030 C.2   126  ASP126      0.2598
      4  O          8.0430  119.2830   24.6500 O.2   126  ASP126     -0.2718
      5  CB         7.5030  120.5760   27.1850 C.3   126  ASP126      0.1424
      6  CG         6.7430  121.8290   26.7850 C.2   126  ASP126      0.3668
      7  OD1        6.6050  122.7300   27.6430 O.co2 126  ASP126     -0.2456
      8  OD2        6.3040  121.9330   25.6200 O.co2 126  ASP126     -0.2456
      9  N          5.8430  118.8480   24.5280 N.am  127  TYR127     -0.1962
     10  CA         5.8990  118.6370   23.0820 C.3   127  TYR127      0.1771
     11  C          4.5910  118.9270   22.3510 C.2   127  TYR127      0.2620
     12  O          3.5570  119.1570   22.9820 O.2   127  TYR127     -0.2715
     13  CB         6.4230  117.2320   22.7460 C.3   127  TYR127      0.0574
     14  CG         5.5030  116.0790   23.0930 C.ar  127  TYR127     -0.0198
     15  CD1        4.9670  115.2750   22.0940 C.ar  127  TYR127     -0.0009
     16  CD2        5.1900  115.7780   24.4130 C.ar  127  TYR127     -0.0009
     17  CE1        4.1380  114.2100   22.3960 C.ar  127  TYR127      0.0417
     18  CE2        4.3590  114.7130   24.7270 C.ar  127  TYR127      0.0417
     19  CZ         3.8370  113.9320   23.7110 C.ar  127  TYR127      0.1957
     20  OH         3.0130  112.8690   24.0060 O.3   127  TYR127     -0.2866
     21  N          4.6720  118.9160   21.0200 N.am  128  SER128     -0.1936
     22  CA         3.5730  119.2700   20.1160 C.3   128  SER128      0.2055
     23  C          3.2650  120.7670   20.1590 C.2   128  SER128      0.2642
     24  O          3.7250  121.5260   19.3030 O.2   128  SER128     -0.2714
     25  CB         2.3170  118.4350   20.3880 C.3   128  SER128      0.2130
     26  OG         1.3710  118.5800   19.3430 O.3   128  SER128     -0.2179
     27  N          2.4850  121.1770   21.1550 N.am  129  ALA129     -0.1977
     28  CA         2.1830  122.5910   21.4020 C.3   129  ALA129      0.1597
     29  C          1.6550  123.3680   20.1940 C.2   129  ALA129      0.2287
     30  O          2.2110  124.4100   19.8370 O.2   129  ALA129     -0.2864
     31  CB         3.4000  123.2890   21.9740 C.3   129  ALA129      0.0319
     32  N          4.4660  122.8420   11.0470 N.3   139  GLY139     -0.1210
     33  CA         5.3710  123.4830   11.9880 C.3   139  GLY139      0.1956
     34  C          5.3970  122.8430   13.3660 C.2   139  GLY139      0.2611
     35  O          6.3330  123.0530   14.1370 O.2   139  GLY139     -0.2717
     36  N          4.3730  122.0520   13.6750 N.am  140  HIS140     -0.1975
     37  CA         4.2800  121.3860   14.9690 C.3   140  HIS140      0.1656
     38  C          4.5370  119.8810   14.8650 C.2   140  HIS140      0.2291
     39  O          4.4250  119.1590   15.8570 O.2   140  HIS140     -0.2864
     40  CB         2.9000  121.6220   15.5900 C.3   140  HIS140      0.0771
     41  CG         2.5130  123.0660   15.6810 C.ar  140  HIS140      0.0820
     42  ND1        3.1540  123.9590   16.5140 N.ar  140  HIS140     -0.2267
     43  CD2        1.5420  123.7700   15.0520 C.ar  140  HIS140      0.1154
     44  CE1        2.5990  125.1510   16.3890 C.ar  140  HIS140      0.1986
     45  NE2        1.6180  125.0630   15.5090 N.ar  140  HIS140     -0.2212
     46  N          8.0660  118.1060   16.6260 N.3   143  SER143     -0.1217
     47  CA         7.9480  118.1000   18.0800 C.3   143  SER143      0.1889
     48  C          7.0100  116.9930   18.5540 C.2   143  SER143      0.2288
     49  O          7.3130  116.2750   19.5090 O.2   143  SER143     -0.2866
     50  CB         7.4500  119.4620   18.5720 C.3   143  SER143      0.2089
     51  OG         7.2890  119.4690   19.9770 O.3   143  SER143     -0.2183
     52  N          1.7630  122.1580   25.6490 N.3   166  HIS166     -0.1241
     53  CA         1.7940  123.6000   25.8880 C.3   166  HIS166      0.1621
     54  C          1.1450  124.3810   24.7450 C.2   166  HIS166      0.2264
     55  O          1.8220  125.1240   24.0360 O.2   166  HIS166     -0.2867
     56  CB         3.2510  124.0440   26.0570 C.3   166  HIS166      0.0745
     57  CG         3.4150  125.3680   26.7350 C.ar  166  HIS166      0.0817
     58  ND1        3.3970  125.5080   28.1070 N.ar  166  HIS166     -0.2268
     59  CD2        3.6220  126.6080   26.2330 C.ar  166  HIS166      0.1154
     60  CE1        3.5780  126.7790   28.4190 C.ar  166  HIS166      0.1986
     61  NE2        3.7150  127.4680   27.3000 N.ar  166  HIS166     -0.2212
     62  N          7.4930  131.1070   30.5450 N.3   321  ASP321     -0.1239
     63  CA         8.5500  130.1050   30.6490 C.3   321  ASP321      0.1674
     64  C          9.0290  129.9310   32.0890 C.2   321  ASP321      0.2266
     65  O          9.2920  128.8120   32.5370 O.2   321  ASP321     -0.2867
     66  CB         9.7280  130.4850   29.7540 C.3   321  ASP321      0.1410
     67  CG         9.5030  130.1170   28.2950 C.2   321  ASP321      0.3668
     68  OD1        8.3840  129.6880   27.9430 O.co2 321  ASP321     -0.2456
     69  OD2       10.4530  130.2680   27.4980 O.co2 321  ASP321     -0.2456
     70  N          6.1980  128.2980   34.0340 N.3   324  CYS324     -0.1235
     71  CA         6.0260  126.9340   33.5560 C.3   324  CYS324      0.1677
     72  C          6.9430  125.9520   34.2830 C.2   324  CYS324      0.2270
     73  O          6.4910  124.9290   34.8000 O.2   324  CYS324     -0.2867
     74  CB         6.3040  126.8910   32.0550 C.3   324  CYS324      0.0956
     75  SG         5.6920  125.4290   31.2320 S.3   324  CYS324     -0.0801
     76  N          6.0010  123.0580   37.1120 N.3   328  ARG328     -0.1245
     77  CA         6.3020  121.6540   36.8420 C.3   328  ARG328      0.1563
     78  C          7.1150  121.0050   37.9540 C.2   328  ARG328      0.2260
     79  O          7.1040  119.7840   38.1080 O.2   328  ARG328     -0.2867
     80  CB         7.0040  121.5030   35.4920 C.3   328  ARG328      0.0307
     81  CG         6.0610  121.7270   34.3250 C.3   328  ARG328      0.0489
     82  CD         6.7690  121.7540   32.9890 C.3   328  ARG328      0.2205
     83  NE         5.8020  121.9620   31.9160 N.pl3 328  ARG328     -0.0865
     84  CZ         6.1170  122.3130   30.6740 C.cat 328  ARG328      0.5346
     85  NH1        7.3830  122.5180   30.3340 N.pl3 328  ARG328      0.1354
     86  NH2        5.1570  122.4840   29.7760 N.pl3 328  ARG328      0.1354
     87  N         12.0590  119.4590   27.0670 N.3   339  TYR339     -0.1227
     88  CA        11.4100  120.3850   26.1520 C.3   339  TYR339      0.1736
     89  C         11.7590  120.0310   24.7150 C.2   339  TYR339      0.2595
     90  O         12.9120  120.1620   24.3020 O.2   339  TYR339     -0.2718
     91  CB        11.8490  121.8220   26.4430 C.3   339  TYR339      0.0548
     92  CG        11.3910  122.3600   27.7810 C.ar  339  TYR339     -0.0200
     93  CD1       11.9840  121.9360   28.9640 C.ar  339  TYR339     -0.0009
     94  CD2       10.3750  123.3030   27.8590 C.ar  339  TYR339     -0.0009
     95  CE1       11.5730  122.4300   30.1850 C.ar  339  TYR339      0.0417
     96  CE2        9.9570  123.8020   29.0770 C.ar  339  TYR339      0.0417
     97  CZ        10.5590  123.3590   30.2370 C.ar  339  TYR339      0.1957
     98  OH        10.1470  123.8530   31.4540 O.3   339  TYR339     -0.2866
     99  N         10.7660  119.5800   23.9550 N.am  340  TYR340     -0.1962
    100  CA        10.9700  119.3290   22.5300 C.3   340  TYR340      0.1771
    101  C         10.5350  120.5370   21.7090 C.2   340  TYR340      0.2619
    102  O          9.3880  120.6390   21.2720 O.2   340  TYR340     -0.2715
    103  CB        10.2820  118.0350   22.0910 C.3   340  TYR340      0.0574
    104  CG        11.0490  116.8230   22.5670 C.ar  340  TYR340     -0.0198
    105  CD1       12.0260  116.2410   21.7730 C.ar  340  TYR340     -0.0009
    106  CD2       10.8360  116.2970   23.8330 C.ar  340  TYR340     -0.0009
    107  CE1       12.7490  115.1520   22.2130 C.ar  340  TYR340      0.0417
    108  CE2       11.5540  115.2060   24.2830 C.ar  340  TYR340      0.0417
    109  CZ        12.5090  114.6390   23.4680 C.ar  340  TYR340      0.1957
    110  OH        13.2320  113.5560   23.9090 O.3   340  TYR340     -0.2866
    111  N         11.4750  121.4600   21.5280 N.am  341  ILE341     -0.1963
    112  CA        11.2040  122.7520   20.9120 C.3   341  ILE341      0.1727
    113  C         12.2380  123.0520   19.8310 C.2   341  ILE341      0.2616
    114  O         13.3980  122.6510   19.9410 O.2   341  ILE341     -0.2715
    115  CB        11.2390  123.8840   21.9700 C.3   341  ILE341      0.0290
    116  CG1       10.3730  123.5180   23.1800 C.3   341  ILE341      0.0022
    117  CG2       10.7880  125.2110   21.3700 C.3   341  ILE341      0.0023
    118  CD1       10.2820  124.6080   24.2310 C.3   341  ILE341      0.0001
    119  N         11.8010  123.7490   18.7840 N.am  342  ASP342     -0.1971
    120  CA        12.6770  124.2100   17.7100 C.3   342  ASP342      0.1709
    121  C         13.9250  124.9190   18.2460 C.2   342  ASP342      0.2293
    122  O         13.8540  125.6750   19.2170 O.2   342  ASP342     -0.2864
    123  CB        11.8940  125.1330   16.7710 C.3   342  ASP342      0.1436
    124  CG        12.7380  125.6630   15.6340 C.2   342  ASP342      0.3671
    125  OD1       12.8800  124.9480   14.6190 O.co2 342  ASP342     -0.2456
    126  OD2       13.2500  126.7950   15.7520 O.co2 342  ASP342     -0.2456
    127  N         14.6860  128.5910   19.6210 N.3   345  GLN345     -0.1245
    128  CA        14.1330  129.0230   20.8950 C.3   345  GLN345      0.1566
    129  C         15.1150  128.7900   22.0310 C.2   345  GLN345      0.2260
    130  O         14.7970  129.0440   23.1920 O.2   345  GLN345     -0.2867
    131  CB        12.8230  128.2890   21.1790 C.3   345  GLN345      0.0367
    132  CG        11.7010  128.6600   20.2220 C.3   345  GLN345      0.0905
    133  CD        11.3670  130.1350   20.2840 C.2   345  GLN345      0.2608
    134  OE1       11.3040  130.7210   21.3640 O.2   345  GLN345     -0.2717
    135  NE2       11.1620  130.7490   19.1230 N.am  345  GLN345     -0.0878
    136  N         14.8720  130.1050   25.9700 N.3   349  LEU349     -0.1245
    137  CA        14.7360  129.1110   27.0270 C.3   349  LEU349      0.1561
    138  C         15.8540  129.2290   28.0570 C.2   349  LEU349      0.2260
    139  O         15.5950  129.2270   29.2620 O.2   349  LEU349     -0.2867
    140  CB        14.7100  127.6940   26.4380 C.3   349  LEU349      0.0270
    141  CG        13.4680  127.3030   25.6300 C.3   349  LEU349      0.0019
    142  CD1       13.6380  125.9230   25.0050 C.3   349  LEU349      0.0001
    143  CD2       12.2180  127.3430   26.4970 C.3   349  LEU349      0.0001
    144  N         15.5620  120.5590   17.9120 N.3   373  PHE373     -0.1241
    145  CA        15.5630  119.9240   16.6030 C.3   373  PHE373      0.1605
    146  C         15.6130  120.9680   15.4920 C.2   373  PHE373      0.2264
    147  O         15.2170  122.1200   15.6900 O.2   373  PHE373     -0.2867
    148  CB        14.3370  119.0190   16.4380 C.3   373  PHE373      0.0534
    149  CG        13.0340  119.6840   16.7920 C.ar  373  PHE373     -0.0203
    150  CD1       12.3850  120.5080   15.8820 C.ar  373  PHE373     -0.0042
    151  CD2       12.4500  119.4740   18.0320 C.ar  373  PHE373     -0.0042
    152  CE1       11.1860  121.1180   16.2070 C.ar  373  PHE373     -0.0003
    153  CE2       11.2500  120.0790   18.3630 C.ar  373  PHE373     -0.0003
    154  CZ        10.6170  120.9020   17.4490 C.ar  373  PHE373     -0.0000
@<TRIPOS>BOND
     1    32    33    1
     2    33    34    1
     3    34    36   am
     4    34    35    2
     5    36    37    1
     6   125   124   ar
     7    38    37    1
     8    38    39    2
     9    37    40    1
    10    43    45   ar
    11    43    41   ar
    12   146   147    2
    13   146   145    1
    14    45    44   ar
    15    40    41    1
    16   124   126   ar
    17   124   123    1
    18    41    42   ar
    19   150   152   ar
    20   150   149   ar
    21   152   154   ar
    22    44    42   ar
    23   148   145    1
    24   148   149    1
    25   145   144    1
    26    46    47    1
    27   123   120    1
    28   149   151   ar
    29   154   153   ar
    30   120   121    1
    31   120   119    1
    32   151   153   ar
    33    47    48    1
    34    47    50    1
    35   121   122    2
    36    48    49    2
    37    50    51    1
    38   119   113   am
    39   135   133   am
    40    24    23    2
    41    26    25    1
    42   127   128    1
    43   113   114    2
    44   113   112    1
    45    30    29    2
    46    22    23    1
    47    22    25    1
    48    22    21    1
    49    23    27   am
    50    29    28    1
    51   132   133    1
    52   132   131    1
    53   133   134    2
    54   128   131    1
    55   128   129    1
    56   112   111    1
    57   112   115    1
    58    21    11   am
    59    27    28    1
    60   102   101    2
    61   117   115    1
    62    28    31    1
    63   111   101   am
    64   101   100    1
    65   105   107   ar
    66   105   104   ar
    67   115   116    1
    68   129   130    2
    69   103   100    1
    70   103   104    1
    71    15    17   ar
    72    15    14   ar
    73   107   109   ar
    74    11    12    2
    75    11    10    1
    76    17    19   ar
    77   100    99    1
    78   104   106   ar
    79    13    10    1
    80    13    14    1
    81    10     9    1
    82    14    16   ar
    83   116   118    1
    84   109   110    1
    85   109   108   ar
    86    19    20    1
    87    19    18   ar
    88   106   108   ar
    89    99    89   am
    90    55    54    2
    91    90    89    2
    92    16    18   ar
    93     9     3   am
    94     4     3    2
    95    89    88    1
    96    54    53    1
    97   142   141    1
    98     3     2    1
    99     8     6   ar
   100   141   140    1
   101   141   143    1
   102    52    53    1
   103    53    56    1
   104   136   137    1
   105    56    57    1
   106    88    91    1
   107    88    87    1
   108    59    57   ar
   109    59    61   ar
   110   140   137    1
   111    91    92    1
   112     2     5    1
   113     2     1    1
   114    57    58   ar
   115     6     5    1
   116     6     7   ar
   117   137   138    1
   118    61    60   ar
   119    69    67   ar
   120    92    94   ar
   121    92    93   ar
   122    94    96   ar
   123    68    67   ar
   124   138   139    2
   125    58    60   ar
   126    67    66    1
   127    93    95   ar
   128    96    97   ar
   129    66    63    1
   130    86    84    1
   131    95    97   ar
   132    97    98    1
   133    85    84    1
   134    62    63    1
   135    63    64    1
   136    84    83    2
   137    75    74    1
   138    83    82    1
   139    74    71    1
   140    64    65    2
   141    82    81    1
   142    71    70    1
   143    71    72    1
   144    72    73    2
   145    81    80    1
   146    80    77    1
   147    77    76    1
   148    77    78    1
   149    78    79    2
