@<TRIPOS>MOLECULE
tmp/5yz3D01.pdb
 206 194 0 0 0
SMALL
GASTEIGER

@<TRIPOS>ATOM
      1  N        -22.5160  -13.0510  -34.5010 N.3     4  ILE4       -0.1245
      2  CA       -22.8260  -11.6310  -34.3870 C.3     4  ILE4        0.1561
      3  C        -23.3280  -11.1290  -35.7340 C.2     4  ILE4        0.2260
      4  O        -22.7140  -11.3870  -36.7690 O.2     4  ILE4       -0.2867
      5  CB       -21.6020  -10.7990  -33.9450 C.3     4  ILE4        0.0252
      6  CG1      -21.1210  -11.2570  -32.5660 C.3     4  ILE4        0.0019
      7  CG2      -21.9470   -9.3070  -33.9170 C.3     4  ILE4        0.0019
      8  CD1      -19.8330  -10.5990  -32.1030 C.3     4  ILE4        0.0001
      9  N        -18.4640  -13.9580  -37.1780 N.3    50  TYR50      -0.1241
     10  CA       -18.6690  -12.8850  -38.1450 C.3    50  TYR50       0.1605
     11  C        -18.8670  -13.3990  -39.5700 C.2    50  TYR50       0.2264
     12  O        -18.9310  -12.6090  -40.5090 O.2    50  TYR50      -0.2867
     13  CB       -17.4800  -11.9220  -38.1070 C.3    50  TYR50       0.0534
     14  CG       -17.5160  -10.9480  -36.9520 C.ar   50  TYR50      -0.0201
     15  CD1      -18.2970   -9.8030  -37.0110 C.ar   50  TYR50      -0.0009
     16  CD2      -16.7640  -11.1680  -35.8060 C.ar   50  TYR50      -0.0009
     17  CE1      -18.3320   -8.9080  -35.9620 C.ar   50  TYR50       0.0417
     18  CE2      -16.7940  -10.2770  -34.7520 C.ar   50  TYR50       0.0417
     19  CZ       -17.5790   -9.1490  -34.8360 C.ar   50  TYR50       0.1957
     20  OH       -17.6110   -8.2600  -33.7890 O.3    50  TYR50      -0.2866
     21  N        -26.1390   -7.8000  -31.7610 N.3   133  PHE133     -0.1227
     22  CA       -25.9310   -7.0250  -32.9780 C.3   133  PHE133      0.1736
     23  C        -24.8870   -5.9380  -32.7650 C.2   133  PHE133      0.2595
     24  O        -24.6630   -5.4990  -31.6380 O.2   133  PHE133     -0.2718
     25  CB       -27.2440   -6.3900  -33.4350 C.3   133  PHE133      0.0547
     26  CG       -28.3680   -7.3700  -33.6020 C.ar  133  PHE133     -0.0202
     27  CD1      -29.1370   -7.7530  -32.5170 C.ar  133  PHE133     -0.0042
     28  CD2      -28.6620   -7.8990  -34.8440 C.ar  133  PHE133     -0.0042
     29  CE1      -30.1730   -8.6520  -32.6700 C.ar  133  PHE133     -0.0003
     30  CE2      -29.6950   -8.7970  -35.0030 C.ar  133  PHE133     -0.0003
     31  CZ       -30.4520   -9.1730  -33.9160 C.ar  133  PHE133     -0.0000
     32  N        -24.2550   -5.5090  -33.8540 N.am  134  GLN134     -0.1979
     33  CA       -23.3400   -4.3740  -33.8130 C.3   134  GLN134      0.1601
     34  C        -23.6150   -3.4390  -34.9860 C.2   134  GLN134      0.2287
     35  O        -23.7930   -3.8850  -36.1200 O.2   134  GLN134     -0.2864
     36  CB       -21.8810   -4.8440  -33.8230 C.3   134  GLN134      0.0394
     37  CG       -21.3870   -5.4270  -35.1370 C.3   134  GLN134      0.0908
     38  CD       -19.9550   -5.9200  -35.0420 C.2   134  GLN134      0.2608
     39  OE1      -19.6070   -6.6800  -34.1400 O.2   134  GLN134     -0.2717
     40  NE2      -19.1130   -5.4790  -35.9690 N.am  134  GLN134     -0.0878
     41  N        -25.0310   -3.4540  -29.4250 N.3   165  ASN165     -0.1240
     42  CA       -23.8810   -2.5700  -29.2970 C.3   165  ASN165      0.1653
     43  C        -23.6930   -1.7340  -30.5520 C.2   165  ASN165      0.2266
     44  O        -24.2130   -2.0730  -31.6110 O.2   165  ASN165     -0.2867
     45  CB       -22.6180   -3.3780  -29.0060 C.3   165  ASN165      0.1155
     46  CG       -22.7300   -4.1910  -27.7350 C.2   165  ASN165      0.2627
     47  OD1      -23.4480   -3.8190  -26.8060 O.2   165  ASN165     -0.2716
     48  ND2      -22.0220   -5.3110  -27.6870 N.am  165  ASN165     -0.0877
     49  N        -20.8780    1.2040  -32.7580 N.3   167  PHE167     -0.1241
     50  CA       -19.6420    1.9530  -32.9320 C.3   167  PHE167      0.1605
     51  C        -19.9860    3.3260  -33.4920 C.2   167  PHE167      0.2264
     52  O        -19.8760    3.5660  -34.6900 O.2   167  PHE167     -0.2867
     53  CB       -18.6810    1.2100  -33.8570 C.3   167  PHE167      0.0534
     54  CG       -18.1680   -0.0770  -33.2840 C.ar  167  PHE167     -0.0203
     55  CD1      -18.8630   -1.2590  -33.4660 C.ar  167  PHE167     -0.0042
     56  CD2      -16.9930   -0.1030  -32.5540 C.ar  167  PHE167     -0.0042
     57  CE1      -18.3920   -2.4430  -32.9360 C.ar  167  PHE167     -0.0003
     58  CE2      -16.5180   -1.2860  -32.0220 C.ar  167  PHE167     -0.0003
     59  CZ       -17.2180   -2.4560  -32.2130 C.ar  167  PHE167     -0.0000
     60  N        -23.7970   -1.3280  -25.1930 N.3   198  GLU198     -0.1245
     61  CA       -22.4710   -0.7230  -25.2620 C.3   198  GLU198      0.1567
     62  C        -22.3600    0.2050  -26.4620 C.2   198  GLU198      0.2260
     63  O        -22.8410   -0.1120  -27.5460 O.2   198  GLU198     -0.2867
     64  CB       -21.3800   -1.7890  -25.3500 C.3   198  GLU198      0.0388
     65  CG       -21.2140   -2.6420  -24.1130 C.3   198  GLU198      0.1160
     66  CD       -20.0500   -3.6050  -24.2420 C.2   198  GLU198      0.3649
     67  OE1      -19.3540   -3.5610  -25.2770 O.co2 198  GLU198     -0.2457
     68  OE2      -19.8250   -4.4040  -23.3110 O.co2 198  GLU198     -0.2457
     69  N        -19.2500    2.3360  -28.3210 N.3   200  TYR200     -0.1241
     70  CA       -17.8680    2.7640  -28.4600 C.3   200  TYR200      0.1605
     71  C        -17.8060    4.1300  -29.1300 C.2   200  TYR200      0.2264
     72  O        -18.0600    4.2600  -30.3270 O.2   200  TYR200     -0.2867
     73  CB       -17.0710    1.7320  -29.2540 C.3   200  TYR200      0.0534
     74  CG       -16.8510    0.4520  -28.4860 C.ar  200  TYR200     -0.0201
     75  CD1      -15.7210    0.2800  -27.7020 C.ar  200  TYR200     -0.0009
     76  CD2      -17.7820   -0.5750  -28.5260 C.ar  200  TYR200     -0.0009
     77  CE1      -15.5180   -0.8820  -26.9900 C.ar  200  TYR200      0.0417
     78  CE2      -17.5880   -1.7400  -27.8170 C.ar  200  TYR200      0.0417
     79  CZ       -16.4540   -1.8890  -27.0500 C.ar  200  TYR200      0.1957
     80  OH       -16.2560   -3.0490  -26.3400 O.3   200  TYR200     -0.2866
     81  N        -10.8460   -4.4990  -30.1580 N.3   236  VAL236     -0.1231
     82  CA       -11.8850   -4.7710  -29.1730 C.3   236  VAL236      0.1692
     83  C        -12.6390   -6.0630  -29.4850 C.2   236  VAL236      0.2592
     84  O        -13.3560   -6.5860  -28.6320 O.2   236  VAL236     -0.2718
     85  CB       -12.8970   -3.6030  -29.0840 C.3   236  VAL236      0.0266
     86  CG1      -12.1880   -2.3090  -28.7050 C.3   236  VAL236      0.0020
     87  CG2      -13.6430   -3.4290  -30.3950 C.3   236  VAL236      0.0020
     88  N        -12.4700   -6.5720  -30.7030 N.am  237  THR237     -0.1953
     89  CA       -13.1480   -7.7910  -31.1360 C.3   237  THR237      0.1897
     90  C        -12.1990   -8.9840  -31.2010 C.2   237  THR237      0.2313
     91  O        -12.5830  -10.0630  -31.6420 O.2   237  THR237     -0.2863
     92  CB       -13.8000   -7.6100  -32.5220 C.3   237  THR237      0.1794
     93  OG1      -12.7890   -7.3650  -33.5070 O.3   237  THR237     -0.2208
     94  CG2      -14.7810   -6.4530  -32.5030 C.3   237  THR237      0.0378
     95  N        -10.9030  -10.7390  -28.7680 N.3   239  CYS239     -0.1221
     96  CA       -11.2980  -11.7820  -27.8310 C.3   239  CYS239      0.1808
     97  C        -12.4800  -12.5860  -28.3610 C.2   239  CYS239      0.2601
     98  O        -12.6010  -13.7790  -28.0870 O.2   239  CYS239     -0.2717
     99  CB       -11.6430  -11.1720  -26.4720 C.3   239  CYS239      0.0970
    100  SG       -10.2230  -10.4710  -25.6030 S.3   239  CYS239     -0.0800
    101  N        -13.3500  -11.9270  -29.1200 N.am  240  LEU240     -0.1979
    102  CA       -14.5170  -12.5880  -29.6910 C.3   240  LEU240      0.1596
    103  C        -14.1360  -13.4610  -30.8800 C.2   240  LEU240      0.2287
    104  O        -14.8030  -14.4540  -31.1670 O.2   240  LEU240     -0.2864
    105  CB       -15.5610  -11.5610  -30.1340 C.3   240  LEU240      0.0297
    106  CG       -15.9710  -10.4830  -29.1330 C.3   240  LEU240      0.0022
    107  CD1      -17.1310   -9.6770  -29.6890 C.3   240  LEU240      0.0001
    108  CD2      -16.3420  -11.0870  -27.7960 C.3   240  LEU240      0.0001
    109  N         -9.9440  -16.9570  -22.2870 N.3   246  LEU246     -0.1245
    110  CA       -11.1330  -16.1680  -21.9940 C.3   246  LEU246      0.1561
    111  C        -12.3130  -16.6180  -22.8440 C.2   246  LEU246      0.2260
    112  O        -12.2850  -16.5220  -24.0710 O.2   246  LEU246     -0.2867
    113  CB       -10.8720  -14.6770  -22.2190 C.3   246  LEU246      0.0270
    114  CG       -12.1180  -13.7900  -22.1160 C.3   246  LEU246      0.0019
    115  CD1      -12.8940  -14.0570  -20.8340 C.3   246  LEU246      0.0001
    116  CD2      -11.7480  -12.3210  -22.2010 C.3   246  LEU246      0.0001
    117  N        -20.6640  -11.5050  -26.0170 N.3   250  LEU250     -0.1245
    118  CA       -20.9570  -10.0810  -25.8830 C.3   250  LEU250      0.1561
    119  C        -21.5930   -9.7120  -24.5430 C.2   250  LEU250      0.2260
    120  O        -21.3240   -8.6420  -24.0020 O.2   250  LEU250     -0.2867
    121  CB       -21.8750   -9.6240  -27.0170 C.3   250  LEU250      0.0270
    122  CG       -21.2330   -9.4110  -28.3900 C.3   250  LEU250      0.0019
    123  CD1      -22.3050   -9.0970  -29.4180 C.3   250  LEU250      0.0001
    124  CD2      -20.1980   -8.3000  -28.3530 C.3   250  LEU250      0.0001
    125  N        -19.1570   -9.6610  -21.3660 N.3   253  LEU253     -0.1245
    126  CA       -18.2750   -8.5030  -21.3770 C.3   253  LEU253      0.1561
    127  C        -19.0400   -7.2510  -20.9760 C.2   253  LEU253      0.2260
    128  O        -18.5010   -6.3670  -20.3170 O.2   253  LEU253     -0.2867
    129  CB       -17.6500   -8.3280  -22.7570 C.3   253  LEU253      0.0270
    130  CG       -16.9290   -9.5710  -23.2820 C.3   253  LEU253      0.0019
    131  CD1      -16.6140   -9.4140  -24.7530 C.3   253  LEU253      0.0001
    132  CD2      -15.6590   -9.8440  -22.4940 C.3   253  LEU253      0.0001
    133  N        -19.4780   -7.1340  -17.2120 N.3   256  ASN256     -0.1225
    134  CA       -18.2840   -6.7520  -16.4720 C.3   256  ASN256      0.1785
    135  C        -17.8390   -5.3140  -16.7180 C.2   256  ASN256      0.2597
    136  O        -17.0350   -4.7790  -15.9570 O.2   256  ASN256     -0.2718
    137  CB       -17.1350   -7.6990  -16.8170 C.3   256  ASN256      0.1169
    138  CG       -17.3340   -9.0910  -16.2470 C.2   256  ASN256      0.2627
    139  OD1      -17.8030   -9.2550  -15.1210 O.2   256  ASN256     -0.2716
    140  ND2      -16.9750  -10.1020  -17.0260 N.am  256  ASN256     -0.0877
    141  N        -18.3600   -4.6910  -17.7720 N.am  257  MET257     -0.1979
    142  CA       -17.9290   -3.3490  -18.1570 C.3   257  MET257      0.1605
    143  C        -18.9550   -2.2680  -17.8320 C.2   257  MET257      0.2287
    144  O        -18.6070   -1.0940  -17.7420 O.2   257  MET257     -0.2864
    145  CB       -17.6120   -3.3080  -19.6540 C.3   257  MET257      0.0413
    146  CG       -16.3640   -4.0850  -20.0560 C.3   257  MET257      0.0598
    147  SD       -14.8500   -3.4900  -19.2760 S.3   257  MET257     -0.1393
    148  CE       -14.7590   -1.8170  -19.9080 C.3   257  MET257      0.0692
    149  N        -18.2020    3.9360  -23.8800 N.3   266  PHE266     -0.1241
    150  CA       -16.7730    3.7070  -23.7090 C.3   266  PHE266      0.1605
    151  C        -15.9390    4.6510  -24.5560 C.2   266  PHE266      0.2264
    152  O        -16.3590    5.0590  -25.6370 O.2   266  PHE266     -0.2867
    153  CB       -16.4130    2.2680  -24.0790 C.3   266  PHE266      0.0534
    154  CG       -17.2450    1.2320  -23.3880 C.ar  266  PHE266     -0.0203
    155  CD1      -17.7410    1.4480  -22.1150 C.ar  266  PHE266     -0.0042
    156  CD2      -17.5310    0.0360  -24.0170 C.ar  266  PHE266     -0.0042
    157  CE1      -18.5050    0.4890  -21.4860 C.ar  266  PHE266     -0.0003
    158  CE2      -18.2930   -0.9240  -23.3930 C.ar  266  PHE266     -0.0003
    159  CZ       -18.7810   -0.7000  -22.1260 C.ar  266  PHE266     -0.0000
    160  N        -10.7890   -2.2140  -19.6750 N.3   304  ALA304     -0.1231
    161  CA       -10.3390   -3.4290  -20.3360 C.3   304  ALA304      0.1694
    162  C         -9.1750   -3.1010  -21.2600 C.2   304  ALA304      0.2592
    163  O         -9.1770   -2.0690  -21.9280 O.2   304  ALA304     -0.2718
    164  CB       -11.4730   -4.0690  -21.1090 C.3   304  ALA304      0.0304
    165  N         -8.1820   -3.9820  -21.2870 N.am  305  ALA305     -0.1966
    166  CA        -7.0090   -3.8000  -22.1300 C.3   305  ALA305      0.1728
    167  C         -6.6210   -5.1160  -22.7890 C.2   305  ALA305      0.2616
    168  O         -6.3410   -6.0980  -22.1050 O.2   305  ALA305     -0.2715
    169  CB        -5.8540   -3.2530  -21.3150 C.3   305  ALA305      0.0334
    170  N         -6.6170   -5.1310  -24.1190 N.am  306  ILE306     -0.1977
    171  CA        -6.2230   -6.3130  -24.8770 C.3   306  ILE306      0.1596
    172  C         -4.8500   -6.1130  -25.5010 C.2   306  ILE306      0.2287
    173  O         -4.6810   -5.2860  -26.3940 O.2   306  ILE306     -0.2864
    174  CB        -7.2380   -6.6450  -25.9910 C.3   306  ILE306      0.0276
    175  CG1       -8.6060   -6.9560  -25.3820 C.3   306  ILE306      0.0022
    176  CG2       -6.7500   -7.8290  -26.8300 C.3   306  ILE306      0.0022
    177  CD1       -9.7040   -7.2100  -26.4020 C.3   306  ILE306      0.0001
    178  N         -9.1550   -5.1030  -16.0250 N.3   340  LYS340     -0.1231
    179  CA        -8.9170   -6.4650  -16.4950 C.3   340  LYS340      0.1693
    180  C         -8.0840   -6.4910  -17.7730 C.2   340  LYS340      0.2593
    181  O         -8.0500   -5.5190  -18.5250 O.2   340  LYS340     -0.2718
    182  CB       -10.2490   -7.1820  -16.7200 C.3   340  LYS340      0.0285
    183  CG       -11.0400   -7.4420  -15.4400 C.3   340  LYS340      0.0035
    184  CD       -10.2260   -8.2370  -14.4300 C.3   340  LYS340      0.0206
    185  CE       -11.0650   -8.6940  -13.2530 C.3   340  LYS340      0.1093
    186  NZ       -10.2350   -9.4140  -12.2500 N.3   340  LYS340     -0.1314
    187  N         -7.4200   -7.6190  -18.0090 N.am  341  THR341     -0.1939
    188  CA        -6.4660   -7.7430  -19.1030 C.3   341  THR341      0.2028
    189  C         -6.6540   -9.0400  -19.8820 C.2   341  THR341      0.2642
    190  O         -7.0220  -10.0680  -19.3170 O.2   341  THR341     -0.2714
    191  CB        -5.0210   -7.6890  -18.5770 C.3   341  THR341      0.1808
    192  OG1       -4.8680   -6.5550  -17.7160 O.3   341  THR341     -0.2208
    193  CG2       -4.0300   -7.5900  -19.7230 C.3   341  THR341      0.0379
    194  N         -6.3970   -8.9760  -21.1840 N.am  342  ALA342     -0.1977
    195  CA        -6.4290  -10.1530  -22.0440 C.3   342  ALA342      0.1597
    196  C         -5.2290  -10.1330  -22.9780 C.2   342  ALA342      0.2287
    197  O         -4.6560   -9.0750  -23.2340 O.2   342  ALA342     -0.2864
    198  CB        -7.7210  -10.2030  -22.8370 C.3   342  ALA342      0.0319
    199  N        -10.1120   -0.1850  -23.7040 N.3   358  ILE358     -0.1245
    200  CA       -11.5350    0.1060  -23.5570 C.3   358  ILE358      0.1561
    201  C        -11.7820    0.6470  -22.1590 C.2   358  ILE358      0.2260
    202  O        -11.5810   -0.0610  -21.1720 O.2   358  ILE358     -0.2867
    203  CB       -12.4190   -1.1350  -23.7780 C.3   358  ILE358      0.0252
    204  CG1      -12.0330   -1.8570  -25.0710 C.3   358  ILE358      0.0019
    205  CG2      -13.8900   -0.7310  -23.8050 C.3   358  ILE358      0.0019
    206  CD1      -12.7170   -3.1970  -25.2490 C.3   358  ILE358      0.0001
@<TRIPOS>BOND
     1    12    11    2
     2    11    10    1
     3    10    13    1
     4    10     9    1
     5    13    14    1
     6    15    14   ar
     7    15    17   ar
     8    14    16   ar
     9     4     3    2
    10    35    34    2
    11    40    38   am
    12    17    19   ar
    13    16    18   ar
    14     3     2    1
    15    37    38    1
    16    37    36    1
    17    38    39    2
    18    30    28   ar
    19    30    31   ar
    20    34    33    1
    21    28    26   ar
    22    19    18   ar
    23    19    20    1
    24    52    51    2
    25     1     2    1
    26     2     5    1
    27     5     7    1
    28     5     6    1
    29    31    29   ar
    30    53    54    1
    31    53    50    1
    32    32    33    1
    33    32    23   am
    34    36    33    1
    35    26    25    1
    36    26    27   ar
    37    93    92    1
    38    51    50    1
    39    55    54   ar
    40    55    57   ar
    41    25    22    1
    42    54    56   ar
    43    22    23    1
    44    22    21    1
    45    57    59   ar
    46    50    49    1
    47    23    24    2
    48    29    27   ar
    49     6     8    1
    50    56    58   ar
    51    92    94    1
    52    92    89    1
    53    59    58   ar
    54    91    90    2
    55    44    43    2
    56    90    89    1
    57   104   103    2
    58    89    88    1
    59   103   102    1
    60    88    83   am
    61    43    42    1
    62    87    85    1
    63    72    71    2
    64    81    82    1
    65   105   102    1
    66   105   106    1
    67   102   101    1
    68   107   106    1
    69    83    82    1
    70    83    84    2
    71    41    42    1
    72   123   122    1
    73    42    45    1
    74    73    74    1
    75    73    70    1
    76    82    85    1
    77   106   108    1
    78    71    70    1
    79   101    97   am
    80    85    86    1
    81    45    46    1
    82    95    96    1
    83    76    74   ar
    84    76    78   ar
    85    74    75   ar
    86    70    69    1
    87   122   124    1
    88   122   121    1
    89    97    98    2
    90    97    96    1
    91    96    99    1
    92    78    79   ar
    93    46    48   am
    94    46    47    2
    95    75    77   ar
    96    63    62    2
    97    79    77   ar
    98    79    80    1
    99   121   118    1
   100   176   174    1
   101    99   100    1
   102    62    61    1
   103   177   175    1
   104   173   172    2
   105   117   118    1
   106   174   175    1
   107   174   171    1
   108   118   119    1
   109   152   151    2
   110   172   171    1
   111    64    61    1
   112    64    65    1
   113    67    66   ar
   114    61    60    1
   115   206   204    1
   116   204   203    1
   117   171   170    1
   118   131   130    1
   119   151   150    1
   120   119   120    2
   121    66    65    1
   122    66    68   ar
   123   170   167   am
   124   153   150    1
   125   153   154    1
   126   112   111    2
   127   156   158   ar
   128   156   154   ar
   129   149   150    1
   130   205   203    1
   131   203   200    1
   132   199   200    1
   133   200   201    1
   134   158   159   ar
   135   154   155   ar
   136   130   129    1
   137   130   132    1
   138   197   196    2
   139   196   195    1
   140   111   110    1
   141   198   195    1
   142   167   166    1
   143   167   168    2
   144   129   126    1
   145   109   110    1
   146   113   114    1
   147   113   110    1
   148   116   114    1
   149   201   202    2
   150   166   169    1
   151   166   165    1
   152   159   157   ar
   153   114   115    1
   154   155   157   ar
   155   195   194    1
   156   163   162    2
   157   126   125    1
   158   126   127    1
   159   165   162   am
   160   162   161    1
   161   194   189   am
   162   164   161    1
   163   127   128    2
   164   161   160    1
   165   146   145    1
   166   146   147    1
   167   148   147    1
   168   189   190    2
   169   189   188    1
   170   193   191    1
   171   145   142    1
   172   188   191    1
   173   188   187    1
   174   191   192    1
   175   181   180    2
   176   142   143    1
   177   142   141    1
   178   187   180   am
   179   143   144    2
   180   180   179    1
   181   141   135   am
   182   133   134    1
   183   140   138   am
   184   137   134    1
   185   137   138    1
   186   182   179    1
   187   182   183    1
   188   135   134    1
   189   135   136    2
   190   179   178    1
   191   138   139    2
   192   183   184    1
   193   184   185    1
   194   185   186    1
