@<TRIPOS>MOLECULE
tmp/5yz7B00.pdb
 141 137 0 0 0
SMALL
GASTEIGER

@<TRIPOS>ATOM
      1  N         -1.4330   12.0930   16.6400 N.3    25  PHE25      -0.1241
      2  CA        -0.2120   11.7350   15.9320 C.3    25  PHE25       0.1605
      3  C          0.2240   10.3100   16.2430 C.2    25  PHE25       0.2264
      4  O          0.2630    9.9080   17.4050 O.2    25  PHE25      -0.2867
      5  CB         0.9110   12.7050   16.2860 C.3    25  PHE25       0.0534
      6  CG         2.2280   12.3360   15.6810 C.ar   25  PHE25      -0.0203
      7  CD1        2.4890   12.6020   14.3470 C.ar   25  PHE25      -0.0042
      8  CD2        3.2070   11.7190   16.4480 C.ar   25  PHE25      -0.0042
      9  CE1        3.7010   12.2570   13.7860 C.ar   25  PHE25      -0.0003
     10  CE2        4.4240   11.3740   15.8940 C.ar   25  PHE25      -0.0003
     11  CZ         4.6720   11.6410   14.5660 C.ar   25  PHE25      -0.0000
     12  N         -4.3430   15.2130   20.5890 N.3    94  SER94      -0.1202
     13  CA        -3.0650   15.6370   20.0140 C.3    94  SER94       0.2020
     14  C         -3.2750   16.6400   18.8720 C.2    94  SER94       0.2618
     15  O         -3.8740   17.7000   19.0750 O.2    94  SER94      -0.2717
     16  CB        -2.2890   14.3850   19.5480 C.3    94  SER94       0.2103
     17  OG        -1.2570   14.6610   18.6220 O.3    94  SER94      -0.2182
     18  N         -2.8010   16.3150   17.6740 N.am   95  VAL95      -0.1979
     19  CA        -3.0100   17.2090   16.5370 C.3    95  VAL95       0.1595
     20  C         -4.5150   17.4150   16.2850 C.2    95  VAL95       0.2287
     21  O         -4.9330   18.4870   15.8600 O.2    95  VAL95      -0.2864
     22  CB        -2.3130   16.6860   15.2510 C.3    95  VAL95       0.0276
     23  CG1       -2.7950   15.2960   14.8960 C.3    95  VAL95       0.0022
     24  CG2       -2.5260   17.6550   14.0790 C.3    95  VAL95       0.0022
     25  N          3.5060   24.2120   21.3370 N.3   123  PHE123     -0.1241
     26  CA         4.4650   23.3460   22.0080 C.3   123  PHE123      0.1605
     27  C          5.7720   24.0630   22.3370 C.2   123  PHE123      0.2264
     28  O          6.4440   23.7240   23.3140 O.2   123  PHE123     -0.2867
     29  CB         4.7320   22.1080   21.1510 C.3   123  PHE123      0.0534
     30  CG         3.5820   21.1470   21.1200 C.ar  123  PHE123     -0.0203
     31  CD1        3.4160   20.2200   22.1360 C.ar  123  PHE123     -0.0042
     32  CD2        2.6490   21.1870   20.0950 C.ar  123  PHE123     -0.0042
     33  CE1        2.3530   19.3370   22.1230 C.ar  123  PHE123     -0.0003
     34  CE2        1.5780   20.3060   20.0790 C.ar  123  PHE123     -0.0003
     35  CZ         1.4330   19.3810   21.0950 C.ar  123  PHE123     -0.0000
     36  N          8.8240   22.8180   25.1360 N.3   133  PHE133     -0.1241
     37  CA         9.8900   22.5500   24.1810 C.3   133  PHE133      0.1605
     38  C         10.6740   23.7970   23.8190 C.2   133  PHE133      0.2264
     39  O         10.1050   24.8790   23.6680 O.2   133  PHE133     -0.2867
     40  CB         9.3180   21.9220   22.9110 C.3   133  PHE133      0.0534
     41  CG         8.7730   20.5410   23.1150 C.ar  133  PHE133     -0.0203
     42  CD1        9.5880   19.4320   22.9630 C.ar  133  PHE133     -0.0042
     43  CD2        7.4490   20.3560   23.4740 C.ar  133  PHE133     -0.0042
     44  CE1        9.0930   18.1610   23.1550 C.ar  133  PHE133     -0.0003
     45  CE2        6.9420   19.0860   23.6700 C.ar  133  PHE133     -0.0003
     46  CZ         7.7670   17.9840   23.5100 C.ar  133  PHE133     -0.0000
     47  N         14.6210   16.3720   17.4810 N.3   141  VAL141     -0.1245
     48  CA        13.5850   15.4060   17.1140 C.3   141  VAL141      0.1561
     49  C         13.4950   15.2620   15.5950 C.2   141  VAL141      0.2260
     50  O         13.5250   14.1490   15.0680 O.2   141  VAL141     -0.2867
     51  CB        12.1950   15.8140   17.6520 C.3   141  VAL141      0.0252
     52  CG1       11.1080   14.8870   17.1090 C.3   141  VAL141      0.0019
     53  CG2       12.1820   15.8430   19.1720 C.3   141  VAL141      0.0019
     54  N         13.9700    6.3770   16.2200 N.3   152  TRP152     -0.1241
     55  CA        13.2830    7.4360   16.9400 C.3   152  TRP152      0.1605
     56  C         11.9560    6.9250   17.4830 C.2   152  TRP152      0.2264
     57  O         11.6240    7.1610   18.6420 O.2   152  TRP152     -0.2867
     58  CB        13.0440    8.6600   16.0480 C.3   152  TRP152      0.0550
     59  CG        12.0010    9.5650   16.6260 C.ar  152  TRP152      0.0003
     60  CD1       12.1910   10.5390   17.5630 C.ar  152  TRP152      0.0946
     61  CD2       10.5990    9.5610   16.3320 C.ar  152  TRP152      0.0152
     62  NE1       10.9940   11.1420   17.8670 N.ar  152  TRP152     -0.2442
     63  CE2       10.0010   10.5590   17.1240 C.ar  152  TRP152      0.0810
     64  CE3        9.7900    8.8100   15.4730 C.ar  152  TRP152      0.0012
     65  CZ2        8.6370   10.8250   17.0850 C.ar  152  TRP152      0.0191
     66  CZ3        8.4360    9.0750   15.4360 C.ar  152  TRP152      0.0001
     67  CH2        7.8730   10.0760   16.2380 C.ar  152  TRP152      0.0015
     68  N         10.4450    6.8650   21.1120 N.3   156  TYR156     -0.1241
     69  CA         9.3540    7.7630   21.4670 C.3   156  TYR156      0.1605
     70  C          8.1470    7.0190   22.0520 C.2   156  TYR156      0.2264
     71  O          7.5150    7.4950   22.9940 O.2   156  TYR156     -0.2867
     72  CB         8.9240    8.5860   20.2460 C.3   156  TYR156      0.0534
     73  CG         7.7130    9.4440   20.5030 C.ar  156  TYR156     -0.0201
     74  CD1        7.7450   10.4530   21.4570 C.ar  156  TYR156     -0.0009
     75  CD2        6.5380    9.2510   19.7890 C.ar  156  TYR156     -0.0009
     76  CE1        6.6350   11.2450   21.7010 C.ar  156  TYR156      0.0417
     77  CE2        5.4210   10.0370   20.0240 C.ar  156  TYR156      0.0417
     78  CZ         5.4780   11.0310   20.9800 C.ar  156  TYR156      0.1957
     79  OH         4.3710   11.8110   21.2170 O.3   156  TYR156     -0.2866
     80  N          7.7070    6.6090   25.7620 N.3   159  LEU159     -0.1245
     81  CA         7.6430    7.9190   26.4090 C.3   159  LEU159      0.1561
     82  C          6.2360    8.4940   26.2960 C.2   159  LEU159      0.2260
     83  O          5.7100    9.0790   27.2450 O.2   159  LEU159     -0.2867
     84  CB         8.6620    8.8830   25.7970 C.3   159  LEU159      0.0270
     85  CG        10.1370    8.5640   26.0610 C.3   159  LEU159      0.0019
     86  CD1       11.0480    9.4800   25.2660 C.3   159  LEU159      0.0001
     87  CD2       10.4480    8.6560   27.5540 C.3   159  LEU159      0.0001
     88  N          4.1700   16.2360    9.3820 N.3   187  VAL187     -0.1231
     89  CA         3.0980   16.5730   10.3210 C.3   187  VAL187      0.1692
     90  C          3.6650   17.1570   11.6110 C.2   187  VAL187      0.2592
     91  O          3.1250   18.1160   12.1740 O.2   187  VAL187     -0.2718
     92  CB         2.2350   15.3440   10.6540 C.3   187  VAL187      0.0266
     93  CG1        1.1840   15.6950   11.6990 C.3   187  VAL187      0.0020
     94  CG2        1.5800   14.8320    9.4020 C.3   187  VAL187      0.0020
     95  N          4.7570   16.5620   12.0710 N.am  188  CYS188     -0.1970
     96  CA         5.4800   17.0480   13.2360 C.3   188  CYS188      0.1712
     97  C          5.9030   18.5080   13.0560 C.2   188  CYS188      0.2296
     98  O          5.7030   19.3410   13.9450 O.2   188  CYS188     -0.2864
     99  CB         6.6970   16.1570   13.4870 C.3   188  CYS188      0.0983
    100  SG         7.5900   16.5100   14.9990 S.3   188  CYS188     -0.0798
    101  N          2.8040   20.8410   13.0460 N.3   191  VAL191     -0.1231
    102  CA         2.2610   21.0240   14.3860 C.3   191  VAL191      0.1692
    103  C          3.1280   21.9730   15.2150 C.2   191  VAL191      0.2592
    104  O          2.6150   22.8710   15.8940 O.2   191  VAL191     -0.2718
    105  CB         2.1100   19.6610   15.0960 C.3   191  VAL191      0.0266
    106  CG1        1.9700   19.8300   16.5980 C.3   191  VAL191      0.0020
    107  CG2        0.9130   18.9190   14.5220 C.3   191  VAL191      0.0020
    108  N          4.4420   21.7980   15.1450 N.am  192  PHE192     -0.1976
    109  CA         5.3490   22.6290   15.9340 C.3   192  PHE192      0.1639
    110  C          5.4030   24.0870   15.4630 C.2   192  PHE192      0.2290
    111  O          5.8340   24.9630   16.2150 O.2   192  PHE192     -0.2864
    112  CB         6.7560   22.0240   15.9410 C.3   192  PHE192      0.0560
    113  CG         6.9870   21.0650   17.0690 C.ar  192  PHE192     -0.0200
    114  CD1        7.1000   19.7080   16.8330 C.ar  192  PHE192     -0.0042
    115  CD2        7.0650   21.5230   18.3750 C.ar  192  PHE192     -0.0042
    116  CE1        7.3080   18.8280   17.8740 C.ar  192  PHE192     -0.0003
    117  CE2        7.2650   20.6410   19.4260 C.ar  192  PHE192     -0.0003
    118  CZ         7.3880   19.2930   19.1740 C.ar  192  PHE192     -0.0000
    119  N          4.4370   13.6730   28.2890 N.3   216  VAL216     -0.1231
    120  CA         5.7390   14.0210   27.7290 C.3   216  VAL216      0.1692
    121  C          5.6980   15.2590   26.8110 C.2   216  VAL216      0.2592
    122  O          6.7090   15.9360   26.6450 O.2   216  VAL216     -0.2718
    123  CB         6.3360   12.8120   26.9440 C.3   216  VAL216      0.0266
    124  CG1        5.5070   12.5110   25.7040 C.3   216  VAL216      0.0020
    125  CG2        7.7970   13.0610   26.5790 C.3   216  VAL216      0.0020
    126  N          4.5340   15.5740   26.2410 N.am  217  SER217     -0.1952
    127  CA         4.4450   16.6740   25.2800 C.3   217  SER217      0.1924
    128  C          3.5850   17.8420   25.7620 C.2   217  SER217      0.2314
    129  O          3.5280   18.8860   25.1110 O.2   217  SER217     -0.2863
    130  CB         3.8970   16.1680   23.9450 C.3   217  SER217      0.2116
    131  OG         2.5000   15.9180   24.0240 O.3   217  SER217     -0.2180
    132  N          0.2840   10.2940   27.6200 N.3   244  HIS244     -0.1241
    133  CA        -0.1910   11.1280   26.5270 C.3   244  HIS244      0.1621
    134  C         -1.2870   10.4070   25.7450 C.2   244  HIS244      0.2264
    135  O         -2.0320   11.0310   24.9960 O.2   244  HIS244     -0.2867
    136  CB         0.9900   11.5010   25.6190 C.3   244  HIS244      0.0745
    137  CG         0.6110   12.2650   24.3900 C.ar  244  HIS244      0.0817
    138  ND1        0.0610   13.5270   24.4380 N.ar  244  HIS244     -0.2268
    139  CD2        0.7350   11.9590   23.0760 C.ar  244  HIS244      0.1154
    140  CE1       -0.1520   13.9600   23.2080 C.ar  244  HIS244      0.1986
    141  NE2        0.2480   13.0280   22.3630 N.ar  244  HIS244     -0.2212
@<TRIPOS>BOND
     1    88    89    1
     2    94    92    1
     3    89    92    1
     4    89    90    1
     5    92    93    1
     6    90    95   am
     7    90    91    2
     8    95    96    1
     9   101   102    1
    10    97    96    1
    11    97    98    2
    12    96    99    1
    13    99   100    1
    14     9     7   ar
    15     9    11   ar
    16    24    22    1
    17     7     6   ar
    18   102   105    1
    19   102   103    1
    20   107   105    1
    21    11    10   ar
    22    23    22    1
    23    50    49    2
    24   105   106    1
    25   108   103   am
    26   108   109    1
    27   103   104    2
    28    22    19    1
    29    66    64   ar
    30    66    67   ar
    31   110   109    1
    32   110   111    2
    33    64    61   ar
    34    49    48    1
    35     6     5    1
    36     6     8   ar
    37    21    20    2
    38    10     8   ar
    39     2     3    1
    40     2     5    1
    41     2     1    1
    42   109   112    1
    43   112   113    1
    44    58    59    1
    45    58    55    1
    46    54    55    1
    47    67    65   ar
    48     3     4    2
    49    20    19    1
    50    61    59   ar
    51    61    63   ar
    52    19    18    1
    53    59    60   ar
    54   114   113   ar
    55   114   116   ar
    56    55    56    1
    57   113   115   ar
    58    65    63   ar
    59    52    51    1
    60    48    47    1
    61    48    51    1
    62    63    62   ar
    63    56    57    2
    64    60    62   ar
    65    51    53    1
    66    18    14   am
    67   116   118   ar
    68   115   117   ar
    69    17    16    1
    70    14    15    2
    71    14    13    1
    72   118   117   ar
    73    16    13    1
    74    75    77   ar
    75    75    73   ar
    76    13    12    1
    77    77    78   ar
    78    34    32   ar
    79    34    35   ar
    80    32    30   ar
    81    72    73    1
    82    72    69    1
    83    73    74   ar
    84    78    79    1
    85    78    76   ar
    86    35    33   ar
    87    68    69    1
    88    30    29    1
    89    30    31   ar
    90    29    26    1
    91    25    26    1
    92    74    76   ar
    93    69    70    1
    94    26    27    1
    95    70    71    2
    96    33    31   ar
    97    27    28    2
    98   141   139   ar
    99   141   140   ar
   100    40    41    1
   101    40    37    1
   102    42    41   ar
   103    42    44   ar
   104   139   137   ar
   105    41    43   ar
   106    44    46   ar
   107   140   138   ar
   108    43    45   ar
   109    46    45   ar
   110    39    38    2
   111    38    37    1
   112   130   131    1
   113   130   127    1
   114    37    36    1
   115   137   138   ar
   116   137   136    1
   117   135   134    2
   118   129   128    2
   119    86    85    1
   120   127   128    1
   121   127   126    1
   122   136   133    1
   123   124   123    1
   124   134   133    1
   125    80    81    1
   126    84    85    1
   127    84    81    1
   128    85    87    1
   129   126   121   am
   130    82    81    1
   131    82    83    2
   132   133   132    1
   133   125   123    1
   134   122   121    2
   135   121   120    1
   136   123   120    1
   137   120   119    1
