@<TRIPOS>MOLECULE
tmp/5yzcB01.pdb
 90 87 0 0 0
SMALL
GASTEIGER

@<TRIPOS>ATOM
      1  N        -26.9380  -26.4480    5.1370 N.3   195  GLN195     -0.1245
      2  CA       -26.6270  -26.2630    3.7290 C.3   195  GLN195      0.1566
      3  C        -26.0340  -27.5460    3.1550 C.2   195  GLN195      0.2260
      4  O        -25.0820  -28.1040    3.7090 O.2   195  GLN195     -0.2867
      5  CB       -25.6560  -25.0970    3.5600 C.3   195  GLN195      0.0367
      6  CG       -26.3370  -23.7840    3.2350 C.3   195  GLN195      0.0905
      7  CD       -25.3440  -22.6670    3.0400 C.2   195  GLN195      0.2608
      8  OE1      -24.2200  -22.7170    3.5660 O.2   195  GLN195     -0.2717
      9  NE2      -25.7400  -21.6520    2.2730 N.am  195  GLN195     -0.0878
     10  N        -24.0530  -29.1230    0.0830 N.3   197  TRP197     -0.1241
     11  CA       -23.0870  -28.7890   -0.9630 C.3   197  TRP197      0.1605
     12  C        -22.6290  -30.0280   -1.7310 C.2   197  TRP197      0.2264
     13  O        -22.7900  -31.1600   -1.2760 O.2   197  TRP197     -0.2867
     14  CB       -21.8450  -28.1140   -0.3590 C.3   197  TRP197      0.0550
     15  CG       -22.1100  -26.8270    0.3150 C.ar  197  TRP197      0.0003
     16  CD1      -22.5610  -26.6460    1.5940 C.ar  197  TRP197      0.0946
     17  CD2      -21.9570  -25.5200   -0.2490 C.ar  197  TRP197      0.0152
     18  NE1      -22.6980  -25.3050    1.8580 N.ar  197  TRP197     -0.2442
     19  CE2      -22.3320  -24.5890    0.7490 C.ar  197  TRP197      0.0810
     20  CE3      -21.5340  -25.0450   -1.4890 C.ar  197  TRP197      0.0012
     21  CZ2      -22.2880  -23.2030    0.5420 C.ar  197  TRP197      0.0191
     22  CZ3      -21.5110  -23.6630   -1.7040 C.ar  197  TRP197      0.0001
     23  CH2      -21.8760  -22.7610   -0.6880 C.ar  197  TRP197      0.0015
     24  N        -20.7780  -26.0570   -5.0430 N.3   255  THR255     -0.1203
     25  CA       -22.0370  -25.3590   -5.1920 C.3   255  THR255      0.1994
     26  C        -23.0900  -26.1020   -4.3740 C.2   255  THR255      0.2617
     27  O        -22.8650  -27.2160   -3.8860 O.2   255  THR255     -0.2717
     28  CB       -22.4100  -25.2140   -6.6810 C.3   255  THR255      0.1784
     29  OG1      -23.4160  -24.2030   -6.8270 O.3   255  THR255     -0.2211
     30  CG2      -22.9250  -26.5240   -7.2540 C.3   255  THR255      0.0376
     31  N        -24.2350  -25.4550   -4.1980 N.am  256  LEU256     -0.1979
     32  CA       -25.3410  -26.0310   -3.4480 C.3   256  LEU256      0.1596
     33  C        -26.1530  -26.9580   -4.3450 C.2   256  LEU256      0.2287
     34  O        -26.2620  -26.7410   -5.5590 O.2   256  LEU256     -0.2864
     35  CB       -26.2420  -24.9210   -2.8910 C.3   256  LEU256      0.0297
     36  CG       -25.7090  -24.0170   -1.7620 C.3   256  LEU256      0.0022
     37  CD1      -26.6060  -22.7710   -1.5830 C.3   256  LEU256      0.0001
     38  CD2      -25.5770  -24.7720   -0.4270 C.3   256  LEU256      0.0001
     39  N        -17.1810  -21.2060   -3.3290 N.3   337  PRO337     -0.2102
     40  CA       -18.5230  -21.4830   -3.8430 C.3   337  PRO337      0.1504
     41  C        -18.7520  -20.7510   -5.1600 C.2   337  PRO337      0.2576
     42  O        -18.3610  -19.5910   -5.3190 O.2   337  PRO337     -0.2718
     43  CB       -19.4460  -20.9610   -2.7300 C.3   337  PRO337      0.0282
     44  CG       -18.6350  -19.9360   -2.0000 C.3   337  PRO337      0.0208
     45  CD       -17.1910  -20.3330   -2.1350 C.3   337  PRO337      0.0893
     46  N        -19.3740  -21.4490   -6.1250 N.am  338  ILE338     -0.1966
     47  CA       -19.5650  -20.9240   -7.4750 C.3   338  ILE338      0.1727
     48  C        -20.9370  -21.3400   -7.9880 C.2   338  ILE338      0.2617
     49  O        -21.6100  -22.1940   -7.4120 O.2   338  ILE338     -0.2715
     50  CB       -18.4850  -21.4090   -8.4660 C.3   338  ILE338      0.0290
     51  CG1      -18.6590  -22.9070   -8.7770 C.3   338  ILE338      0.0022
     52  CG2      -17.0870  -21.1020   -7.9630 C.3   338  ILE338      0.0023
     53  CD1      -17.8210  -23.3910   -9.9970 C.3   338  ILE338      0.0001
     54  N        -21.3490  -20.7090   -9.0850 N.am  339  SER339     -0.1936
     55  CA       -22.4550  -21.1800   -9.9060 C.3   339  SER339      0.2055
     56  C        -21.9490  -21.3330  -11.3360 C.2   339  SER339      0.2642
     57  O        -21.1400  -20.5300  -11.7980 O.2   339  SER339     -0.2714
     58  CB       -23.6450  -20.2060   -9.8760 C.3   339  SER339      0.2130
     59  OG       -24.6600  -20.6170  -10.7930 O.3   339  SER339     -0.2179
     60  N        -22.4210  -22.3550  -12.0410 N.am  340  LEU340     -0.1977
     61  CA       -22.0370  -22.5490  -13.4290 C.3   340  LEU340      0.1596
     62  C        -23.0500  -21.9810  -14.4040 C.2   340  LEU340      0.2287
     63  O        -22.8070  -22.0290  -15.6180 O.2   340  LEU340     -0.2864
     64  CB       -21.8080  -24.0320  -13.7130 C.3   340  LEU340      0.0297
     65  CG       -20.5210  -24.5060  -13.0180 C.3   340  LEU340      0.0022
     66  CD1      -20.3260  -25.9970  -13.1910 C.3   340  LEU340      0.0001
     67  CD2      -19.3100  -23.6840  -13.5260 C.3   340  LEU340      0.0001
     68  N        -25.0450  -16.0420  -14.1250 N.3   344  ASP344     -0.1225
     69  CA       -24.3360  -15.8630  -12.8570 C.3   344  ASP344      0.1805
     70  C        -22.8420  -15.6750  -13.0680 C.2   344  ASP344      0.2597
     71  O        -22.2140  -14.8270  -12.4120 O.2   344  ASP344     -0.2718
     72  CB       -24.6100  -17.0490  -11.9390 C.3   344  ASP344      0.1424
     73  CG       -26.0300  -17.0270  -11.4110 C.2   344  ASP344      0.3668
     74  OD1      -26.9290  -17.5510  -12.1180 O.co2 344  ASP344     -0.2456
     75  OD2      -26.2560  -16.4050  -10.3460 O.co2 344  ASP344     -0.2456
     76  N        -22.2510  -16.4420  -13.9850 N.am  345  VAL345     -0.1980
     77  CA       -20.8350  -16.2640  -14.2940 C.3   345  VAL345      0.1595
     78  C        -20.5880  -14.8530  -14.8220 C.2   345  VAL345      0.2287
     79  O        -19.6940  -14.1420  -14.3490 O.2   345  VAL345     -0.2864
     80  CB       -20.3670  -17.3440  -15.2920 C.3   345  VAL345      0.0276
     81  CG1      -18.9720  -17.0110  -15.8380 C.3   345  VAL345      0.0022
     82  CG2      -20.4000  -18.7330  -14.6430 C.3   345  VAL345      0.0022
     83  N        -21.1810  -12.0720  -12.0120 N.3   348  ASN348     -0.1240
     84  CA       -20.1270  -12.0360  -11.0040 C.3   348  ASN348      0.1653
     85  C        -18.7950  -11.6030  -11.6170 C.2   348  ASN348      0.2266
     86  O        -18.0110  -10.8950  -10.9670 O.2   348  ASN348     -0.2867
     87  CB       -20.0320  -13.4040  -10.2980 C.3   348  ASN348      0.1155
     88  CG       -21.1290  -13.5880   -9.2150 C.2   348  ASN348      0.2627
     89  OD1      -20.9100  -13.3160   -8.0250 O.2   348  ASN348     -0.2716
     90  ND2      -22.3080  -14.0250   -9.6380 N.am  348  ASN348     -0.0877
@<TRIPOS>BOND
     1    81    80    1
     2    63    62    2
     3    80    82    1
     4    80    77    1
     5    78    79    2
     6    78    77    1
     7    62    61    1
     8    77    76    1
     9    68    69    1
    10    76    70   am
    11    64    61    1
    12    64    65    1
    13    67    65    1
    14    61    60    1
    15    66    65    1
    16    70    69    1
    17    70    71    2
    18    69    72    1
    19    74    73   ar
    20    60    56   am
    21    83    84    1
    22    72    73    1
    23    57    56    2
    24    85    84    1
    25    85    86    2
    26    73    75   ar
    27    56    55    1
    28    84    87    1
    29    59    58    1
    30    87    88    1
    31    53    51    1
    32    55    58    1
    33    55    54    1
    34    90    88   am
    35    88    89    2
    36    54    48   am
    37    51    50    1
    38    50    52    1
    39    50    47    1
    40    48    47    1
    41    48    49    2
    42    47    46    1
    43    30    28    1
    44    29    28    1
    45    28    25    1
    46    46    41   am
    47    34    33    2
    48    42    41    2
    49    25    24    1
    50    25    26    1
    51    41    40    1
    52    26    31   am
    53    26    27    2
    54    33    32    1
    55    31    32    1
    56    40    39    1
    57    40    43    1
    58    32    35    1
    59    39    45    1
    60    35    36    1
    61    43    44    1
    62    45    44    1
    63    36    37    1
    64    36    38    1
    65    12    13    2
    66    12    11    1
    67    22    20   ar
    68    22    23   ar
    69    20    17   ar
    70    11    14    1
    71    11    10    1
    72    23    21   ar
    73    14    15    1
    74    17    15   ar
    75    17    19   ar
    76    15    16   ar
    77    21    19   ar
    78    19    18   ar
    79    16    18   ar
    80     9     7   am
    81     7     6    1
    82     7     8    2
    83     3     4    2
    84     3     2    1
    85     6     5    1
    86     5     2    1
    87     2     1    1
