@<TRIPOS>MOLECULE
tmp/5yzdB00.pdb
 112 107 0 0 0
SMALL
GASTEIGER

@<TRIPOS>ATOM
      1  N        -17.3460  -16.0020  -47.1630 N.3   195  GLN195     -0.1245
      2  CA       -17.2520  -16.3410  -45.7600 C.3   195  GLN195      0.1566
      3  C        -15.8450  -16.8230  -45.3480 C.2   195  GLN195      0.2260
      4  O        -15.2130  -17.6010  -46.0660 O.2   195  GLN195     -0.2867
      5  CB       -18.3830  -17.3240  -45.5300 C.3   195  GLN195      0.0367
      6  CG       -19.5800  -16.4940  -45.0650 C.3   195  GLN195      0.0905
      7  CD       -20.7950  -17.3440  -44.7960 C.2   195  GLN195      0.2608
      8  OE1      -20.9230  -18.4560  -45.3580 O.2   195  GLN195     -0.2717
      9  NE2      -21.7510  -16.7950  -44.0500 N.am  195  GLN195     -0.0878
     10  N        -13.8510  -18.8410  -42.6030 N.3   197  TRP197     -0.1241
     11  CA       -14.0590  -19.8000  -41.5150 C.3   197  TRP197      0.1605
     12  C        -12.7490  -20.2120  -40.8230 C.2   197  TRP197      0.2264
     13  O        -11.6470  -20.0330  -41.3620 O.2   197  TRP197     -0.2867
     14  CB       -14.7290  -21.0550  -42.0650 C.3   197  TRP197      0.0550
     15  CG       -16.0370  -20.7620  -42.6560 C.ar  197  TRP197      0.0003
     16  CD1      -16.2650  -20.2950  -43.9120 C.ar  197  TRP197      0.0946
     17  CD2      -17.3150  -20.8560  -42.0200 C.ar  197  TRP197      0.0152
     18  NE1      -17.6060  -20.1150  -44.1070 N.ar  197  TRP197     -0.2442
     19  CE2      -18.2730  -20.4470  -42.9580 C.ar  197  TRP197      0.0810
     20  CE3      -17.7410  -21.2560  -40.7530 C.ar  197  TRP197      0.0012
     21  CZ2      -19.6350  -20.4220  -42.6700 C.ar  197  TRP197      0.0191
     22  CZ3      -19.0890  -21.2230  -40.4660 C.ar  197  TRP197      0.0001
     23  CH2      -20.0230  -20.8210  -41.4220 C.ar  197  TRP197      0.0015
     24  N        -16.5030  -21.9800  -37.3720 N.3   255  THR255     -0.1203
     25  CA       -17.2220  -20.7420  -37.1470 C.3   255  THR255      0.1994
     26  C        -16.5680  -19.6390  -37.9680 C.2   255  THR255      0.2617
     27  O        -15.4480  -19.7920  -38.4780 O.2   255  THR255     -0.2717
     28  CB       -17.2580  -20.4260  -35.6420 C.3   255  THR255      0.1784
     29  OG1      -18.2660  -19.4350  -35.3850 O.3   255  THR255     -0.2211
     30  CG2      -15.8820  -20.0010  -35.1010 C.3   255  THR255      0.0376
     31  N        -17.2730  -18.5120  -38.0870 N.am  256  LEU256     -0.1979
     32  CA       -16.7370  -17.3980  -38.8590 C.3   256  LEU256      0.1596
     33  C        -15.7800  -16.5750  -38.0140 C.2   256  LEU256      0.2287
     34  O        -15.9610  -16.4370  -36.8030 O.2   256  LEU256     -0.2864
     35  CB       -17.8580  -16.4910  -39.3420 C.3   256  LEU256      0.0297
     36  CG       -18.7980  -17.0360  -40.4010 C.3   256  LEU256      0.0022
     37  CD1      -20.0310  -16.1580  -40.4570 C.3   256  LEU256      0.0001
     38  CD2      -18.1090  -17.1520  -41.7610 C.3   256  LEU256      0.0001
     39  N        -21.3460  -25.6740  -39.2760 N.3   337  PRO337     -0.2102
     40  CA       -21.1320  -24.3190  -38.7440 C.3   337  PRO337      0.1504
     41  C        -21.8420  -24.1020  -37.4110 C.2   337  PRO337      0.2576
     42  O        -23.0010  -24.4850  -37.2370 O.2   337  PRO337     -0.2718
     43  CB       -21.7330  -23.4180  -39.8300 C.3   337  PRO337      0.0282
     44  CG       -22.6910  -24.2620  -40.5500 C.3   337  PRO337      0.0208
     45  CD       -22.2160  -25.6800  -40.4630 C.3   337  PRO337      0.0893
     46  N        -21.1560  -23.4310  -36.4790 N.am  338  ILE338     -0.1966
     47  CA       -21.6450  -23.2490  -35.1170 C.3   338  ILE338      0.1727
     48  C        -21.3130  -21.8320  -34.6750 C.2   338  ILE338      0.2617
     49  O        -20.4910  -21.1410  -35.2790 O.2   338  ILE338     -0.2715
     50  CB       -21.0520  -24.3010  -34.1160 C.3   338  ILE338      0.0290
     51  CG1      -19.5580  -24.0700  -33.8240 C.3   338  ILE338      0.0022
     52  CG2      -21.3340  -25.7240  -34.5360 C.3   338  ILE338      0.0023
     53  CD1      -19.0290  -24.8570  -32.6390 C.3   338  ILE338      0.0001
     54  N        -21.9550  -21.4050  -33.5950 N.am  339  SER339     -0.1936
     55  CA       -21.5530  -20.2090  -32.8750 C.3   339  SER339      0.2055
     56  C        -21.2630  -20.5730  -31.4280 C.2   339  SER339      0.2642
     57  O        -21.9400  -21.4250  -30.8420 O.2   339  SER339     -0.2714
     58  CB       -22.6560  -19.1580  -32.9770 C.3   339  SER339      0.2130
     59  OG       -22.4010  -18.0340  -32.1510 O.3   339  SER339     -0.2179
     60  N        -20.2770  -19.9110  -30.8310 N.am  340  LEU340     -0.1977
     61  CA       -19.9770  -20.1920  -29.4430 C.3   340  LEU340      0.1596
     62  C        -20.5290  -19.2120  -28.4410 C.2   340  LEU340      0.2287
     63  O        -20.3810  -19.4600  -27.2460 O.2   340  LEU340     -0.2864
     64  CB       -18.4620  -20.2750  -29.3110 C.3   340  LEU340      0.0297
     65  CG       -18.0280  -21.5670  -30.0110 C.3   340  LEU340      0.0022
     66  CD1      -16.5150  -21.7400  -30.0840 C.3   340  LEU340      0.0001
     67  CD2      -18.6980  -22.7510  -29.2060 C.3   340  LEU340      0.0001
     68  N        -26.5160  -17.3720  -28.5760 N.3   344  ASP344     -0.1225
     69  CA       -26.7150  -18.0200  -29.8700 C.3   344  ASP344      0.1805
     70  C        -26.9060  -19.5240  -29.6950 C.2   344  ASP344      0.2597
     71  O        -27.6820  -20.1500  -30.4250 O.2   344  ASP344     -0.2718
     72  CB       -25.5500  -17.7430  -30.8060 C.3   344  ASP344      0.1424
     73  CG       -25.5460  -16.3190  -31.3310 C.2   344  ASP344      0.3668
     74  OD1      -26.1420  -16.0960  -32.3970 O.co2 344  ASP344     -0.2456
     75  OD2      -24.9470  -15.4280  -30.6910 O.co2 344  ASP344     -0.2456
     76  N        -26.1460  -20.1380  -28.7840 N.am  345  VAL345     -0.1980
     77  CA       -26.3240  -21.5610  -28.5080 C.3   345  VAL345      0.1595
     78  C        -27.7450  -21.8200  -27.9970 C.2   345  VAL345      0.2287
     79  O        -28.4540  -22.6940  -28.5030 O.2   345  VAL345     -0.2864
     80  CB       -25.2490  -22.0610  -27.5190 C.3   345  VAL345      0.0276
     81  CG1      -25.5890  -23.4720  -27.0520 C.3   345  VAL345      0.0022
     82  CG2      -23.8380  -21.9880  -28.1400 C.3   345  VAL345      0.0022
     83  N        -30.4310  -21.3520  -30.7460 N.3   348  ASN348     -0.1240
     84  CA       -30.4850  -22.4180  -31.7310 C.3   348  ASN348      0.1653
     85  C        -30.9380  -23.7350  -31.1180 C.2   348  ASN348      0.2266
     86  O        -31.6840  -24.4690  -31.7630 O.2   348  ASN348     -0.2867
     87  CB       -29.1290  -22.5400  -32.4170 C.3   348  ASN348      0.1155
     88  CG       -28.9490  -21.4670  -33.4860 C.2   348  ASN348      0.2627
     89  OD1      -29.2280  -21.6680  -34.6750 O.2   348  ASN348     -0.2716
     90  ND2      -28.5080  -20.2940  -33.0460 N.am  348  ASN348     -0.0877
     91  N        -34.7590  -23.6610  -30.8340 N.3   351  ASN351     -0.1225
     92  CA       -35.3390  -23.9110  -32.1420 C.3   351  ASN351      0.1785
     93  C        -35.2640  -25.3970  -32.4830 C.2   351  ASN351      0.2597
     94  O        -36.2140  -25.9730  -33.0290 O.2   351  ASN351     -0.2718
     95  CB       -34.5940  -23.0920  -33.1900 C.3   351  ASN351      0.1169
     96  CG       -35.2310  -23.1740  -34.5380 C.2   351  ASN351      0.2627
     97  OD1      -34.8890  -24.0330  -35.3370 O.2   351  ASN351     -0.2716
     98  ND2      -36.0950  -22.2140  -34.8440 N.am  351  ASN351     -0.0877
     99  N        -34.1190  -26.0260  -32.2000 N.am  352  ALA352     -0.1979
    100  CA       -33.9520  -27.4270  -32.5470 C.3   352  ALA352      0.1597
    101  C        -34.9150  -28.2890  -31.7490 C.2   352  ALA352      0.2287
    102  O        -35.4680  -29.2560  -32.2770 O.2   352  ALA352     -0.2864
    103  CB       -32.5140  -27.8650  -32.3010 C.3   352  ALA352      0.0319
    104  N        -38.3400  -27.8600  -33.2990 N.3   355  LYS355     -0.1245
    105  CA       -38.4330  -28.6360  -34.5380 C.3   355  LYS355      0.1561
    106  C        -38.5320  -30.1150  -34.2520 C.2   355  LYS355      0.2260
    107  O        -39.1720  -30.8560  -35.0000 O.2   355  LYS355     -0.2867
    108  CB       -37.2330  -28.3900  -35.4570 C.3   355  LYS355      0.0271
    109  CG       -37.3530  -27.1070  -36.1900 C.3   355  LYS355      0.0035
    110  CD       -36.4070  -26.9860  -37.3310 C.3   355  LYS355      0.0206
    111  CE       -36.3560  -25.5260  -37.7710 C.3   355  LYS355      0.1093
    112  NZ       -35.0240  -25.0650  -38.2390 N.3   355  LYS355     -0.1314
@<TRIPOS>BOND
     1     1     2    1
     2     4     3    2
     3     2     5    1
     4     2     3    1
     5     5     6    1
     6     8     7    2
     7     6     7    1
     8     7     9   am
     9    18    16   ar
    10    18    19   ar
    11    16    15   ar
    12    19    21   ar
    13    19    17   ar
    14    21    23   ar
    15    15    14    1
    16    15    17   ar
    17    10    11    1
    18    14    11    1
    19    17    20   ar
    20    38    36    1
    21    11    12    1
    22    23    22   ar
    23    13    12    2
    24    20    22   ar
    25    44    45    1
    26    44    43    1
    27    45    39    1
    28    37    36    1
    29    36    35    1
    30    43    40    1
    31    35    32    1
    32    39    40    1
    33    32    31    1
    34    32    33    1
    35    40    41    1
    36    27    26    2
    37   112   111    1
    38    31    26   am
    39    33    34    2
    40    26    25    1
    41   111   110    1
    42    41    42    2
    43    41    46   am
    44    24    25    1
    45   110   109    1
    46    25    28    1
    47    46    47    1
    48   109   108    1
    49    28    29    1
    50    28    30    1
    51   108   105    1
    52    97    96    2
    53    49    48    2
    54    47    48    1
    55    47    50    1
    56   107   106    2
    57    98    96   am
    58    89    88    2
    59    48    54   am
    60   105   106    1
    61   105   104    1
    62    96    95    1
    63    52    50    1
    64    50    51    1
    65    51    53    1
    66    54    55    1
    67    88    90   am
    68    88    87    1
    69    95    92    1
    70    94    93    2
    71    58    55    1
    72    58    59    1
    73    55    56    1
    74   100   103    1
    75   100    99    1
    76   100   101    1
    77    93    99   am
    78    93    92    1
    79    87    84    1
    80    74    73   ar
    81   102   101    2
    82    92    91    1
    83    86    85    2
    84    84    85    1
    85    84    83    1
    86    56    57    2
    87    56    60   am
    88    73    72    1
    89    73    75   ar
    90    60    61    1
    91    72    69    1
    92    71    70    2
    93    66    65    1
    94    65    64    1
    95    65    67    1
    96    69    70    1
    97    69    68    1
    98    70    76   am
    99    61    64    1
   100    61    62    1
   101    76    77    1
   102    77    78    1
   103    77    80    1
   104    79    78    2
   105    62    63    2
   106    82    80    1
   107    80    81    1
