@<TRIPOS>MOLECULE
tmp/5z02A00.pdb
 153 149 0 0 0
SMALL
GASTEIGER

@<TRIPOS>ATOM
      1  N          1.5590  -15.2800   -8.9420 N.3    31  LEU31      -0.1231
      2  CA         2.6290  -15.9340   -8.1770 C.3    31  LEU31       0.1693
      3  C          3.3950  -16.9150   -9.0690 C.2    31  LEU31       0.2592
      4  O          4.5980  -16.9710   -9.0080 O.2    31  LEU31      -0.2718
      5  CB         2.0420  -16.5910   -6.9480 C.3    31  LEU31       0.0284
      6  CG         1.5670  -15.6190   -5.8410 C.3    31  LEU31       0.0019
      7  CD1        0.6630  -16.3630   -4.8670 C.3    31  LEU31       0.0001
      8  CD2        2.7080  -14.9730   -5.1330 C.3    31  LEU31       0.0001
      9  N          2.6420  -17.7570   -9.8220 N.am   32  PHE32      -0.1976
     10  CA         3.2760  -18.7630  -10.6520 C.3    32  PHE32       0.1639
     11  C          4.2340  -18.0940  -11.5820 C.2    32  PHE32       0.2290
     12  O          5.4270  -18.5100  -11.7480 O.2    32  PHE32      -0.2864
     13  CB         2.1660  -19.4930  -11.4160 C.3    32  PHE32       0.0560
     14  CG         2.7440  -20.5770  -12.3550 C.ar   32  PHE32      -0.0200
     15  CD1        3.2000  -20.2760  -13.5910 C.ar   32  PHE32      -0.0042
     16  CD2        2.9320  -21.8560  -11.8270 C.ar   32  PHE32      -0.0042
     17  CE1        3.7780  -21.2950  -14.3840 C.ar   32  PHE32      -0.0003
     18  CE2        3.4960  -22.8600  -12.6340 C.ar   32  PHE32      -0.0003
     19  CZ         3.9290  -22.5260  -13.8370 C.ar   32  PHE32      -0.0000
     20  N          5.6390  -15.0410  -11.4750 N.3    34  LEU34      -0.1231
     21  CA         6.8270  -14.4520  -10.8370 C.3    34  LEU34       0.1693
     22  C          7.8150  -15.4810  -10.4510 C.2    34  LEU34       0.2593
     23  O          9.0510  -15.2030  -10.6210 O.2    34  LEU34      -0.2718
     24  CB         6.3580  -13.6710   -9.6080 C.3    34  LEU34       0.0284
     25  CG         5.6760  -12.3580   -9.9330 C.3    34  LEU34       0.0019
     26  CD1        5.0820  -11.7820   -8.6700 C.3    34  LEU34       0.0001
     27  CD2        6.5840  -11.3720  -10.6720 C.3    34  LEU34       0.0001
     28  N          7.4180  -16.6120   -9.9640 N.am   35  GLY35      -0.1942
     29  CA         8.3290  -17.6990   -9.6890 C.3    35  GLY35       0.2014
     30  C          9.0690  -18.0580  -10.9530 C.2    35  GLY35       0.2638
     31  O         10.3060  -18.3100  -10.9470 O.2    35  GLY35      -0.2714
     32  N          8.3800  -18.2250  -12.0860 N.am   36  GLN36      -0.1977
     33  CA         9.0840  -18.5670  -13.3610 C.3    36  GLN36       0.1601
     34  C         10.0140  -17.5730  -13.8170 C.2    36  GLN36       0.2287
     35  O         11.0680  -17.9210  -14.4070 O.2    36  GLN36      -0.2864
     36  CB         8.0440  -18.7390  -14.4600 C.3    36  GLN36       0.0394
     37  CG         7.2990  -19.9560  -14.2340 C.3    36  GLN36       0.0908
     38  CD         8.1840  -21.1610  -14.1870 C.2    36  GLN36       0.2608
     39  OE1        8.9330  -21.3640  -15.2010 O.2    36  GLN36      -0.2717
     40  NE2        8.2020  -21.9050  -13.0380 N.am   36  GLN36      -0.0878
     41  N         11.8610  -15.6920  -11.8540 N.3    38  ILE38      -0.1231
     42  CA        13.0450  -15.8970  -10.9830 C.3    38  ILE38       0.1692
     43  C         13.8150  -17.1020  -11.4750 C.2    38  ILE38       0.2591
     44  O         15.0880  -16.9880  -11.5300 O.2    38  ILE38      -0.2718
     45  CB        12.5950  -16.1180   -9.5300 C.3    38  ILE38       0.0266
     46  CG1       12.1240  -14.7930   -8.9820 C.3    38  ILE38       0.0019
     47  CG2       13.7690  -16.6030   -8.6620 C.3    38  ILE38       0.0020
     48  CD1       11.3120  -14.9070   -7.7120 C.3    38  ILE38       0.0001
     49  N         13.1460  -18.2170  -11.7670 N.am   39  MET39      -0.1979
     50  CA        13.7870  -19.4510  -12.2360 C.3    39  MET39       0.1605
     51  C         14.4400  -19.2360  -13.5660 C.2    39  MET39       0.2287
     52  O         15.6080  -19.6550  -13.7200 O.2    39  MET39      -0.2864
     53  CB        12.8110  -20.5810  -12.3800 C.3    39  MET39       0.0413
     54  CG        12.1390  -21.0940  -11.1410 C.3    39  MET39       0.0598
     55  SD        13.2650  -21.3950   -9.7660 S.3    39  MET39      -0.1393
     56  CE        14.0520  -22.9140  -10.3800 C.3    39  MET39       0.0692
     57  N         18.0340  -16.9730   -8.2100 N.3    44  TYR44      -0.1241
     58  CA        18.0560  -17.7130   -6.9720 C.3    44  TYR44       0.1605
     59  C         19.4860  -18.2200   -6.6190 C.2    44  TYR44       0.2264
     60  O         20.3070  -18.4520   -7.5350 O.2    44  TYR44      -0.2867
     61  CB        17.0370  -18.8330   -6.9860 C.3    44  TYR44       0.0534
     62  CG        17.2640  -19.8440   -8.0590 C.ar   44  TYR44      -0.0201
     63  CD1       16.8240  -19.6100   -9.3620 C.ar   44  TYR44      -0.0009
     64  CD2       17.9930  -20.9850   -7.8080 C.ar   44  TYR44      -0.0009
     65  CE1       17.0670  -20.5210  -10.3800 C.ar   44  TYR44       0.0417
     66  CE2       18.2350  -21.9150   -8.8040 C.ar   44  TYR44       0.0417
     67  CZ        17.7490  -21.6890  -10.0810 C.ar   44  TYR44       0.1957
     68  OH        18.0340  -22.5530  -11.1670 O.3    44  TYR44      -0.2866
     69  N         17.7570  -22.6130   -2.4400 N.3    49  GLN49      -0.1231
     70  CA        17.0800  -22.0940   -3.5930 C.3    49  GLN49       0.1698
     71  C         15.8990  -21.2000   -3.2040 C.2    49  GLN49       0.2592
     72  O         15.2670  -20.5960   -4.1050 O.2    49  GLN49      -0.2718
     73  CB        16.6780  -23.2550   -4.5200 C.3    49  GLN49       0.0381
     74  CG        17.9580  -23.8350   -5.0680 C.3    49  GLN49       0.0905
     75  CD        17.8240  -24.9560   -6.0330 C.2    49  GLN49       0.2608
     76  OE1       16.7360  -25.2680   -6.4780 O.2    49  GLN49      -0.2717
     77  NE2       18.9580  -25.5330   -6.4070 N.am   49  GLN49      -0.0878
     78  N         15.5690  -21.0930   -1.9530 N.am   50  HIS50      -0.1976
     79  CA        14.6250  -20.1190   -1.4370 C.3    50  HIS50       0.1656
     80  C         15.1170  -18.6840   -1.5240 C.2    50  HIS50       0.2291
     81  O         14.2970  -17.7470   -1.3790 O.2    50  HIS50      -0.2864
     82  CB        14.2170  -20.3980   -0.0070 C.3    50  HIS50       0.0771
     83  CG        13.4810  -21.6720    0.2000 C.ar   50  HIS50       0.0820
     84  ND1       12.1660  -21.8440   -0.1950 N.ar   50  HIS50      -0.2267
     85  CD2       13.8320  -22.8100    0.8380 C.ar   50  HIS50       0.1154
     86  CE1       11.7550  -23.0520    0.1530 C.ar   50  HIS50       0.1986
     87  NE2       12.7460  -23.6620    0.7740 N.ar   50  HIS50      -0.2212
     88  N         16.5910  -15.2900   -3.1780 N.3    52  VAL52      -0.1245
     89  CA        16.6270  -14.5380   -4.4150 C.3    52  VAL52       0.1561
     90  C         17.5140  -13.2910   -4.2790 C.2    52  VAL52       0.2260
     91  O         17.3520  -12.5810   -3.3070 O.2    52  VAL52      -0.2867
     92  CB        15.1150  -14.1490   -4.7850 C.3    52  VAL52       0.0252
     93  CG1       15.0980  -13.4250   -6.0570 C.3    52  VAL52       0.0019
     94  CG2       14.2370  -15.3640   -4.8910 C.3    52  VAL52       0.0019
     95  N          9.7120   -5.3900   -5.7630 N.3    63  PHE63      -0.1241
     96  CA         9.6540   -5.7790   -4.3670 C.3    63  PHE63       0.1605
     97  C         10.3020   -4.7500   -3.3990 C.2    63  PHE63       0.2264
     98  O         10.1110   -4.8750   -2.1650 O.2    63  PHE63      -0.2867
     99  CB        10.2380   -7.2280   -4.1940 C.3    63  PHE63       0.0534
    100  CG         9.4340   -8.3270   -4.9110 C.ar   63  PHE63      -0.0203
    101  CD1        8.3090   -8.8580   -4.2750 C.ar   63  PHE63      -0.0042
    102  CD2        9.7580   -8.8260   -6.1280 C.ar   63  PHE63      -0.0042
    103  CE1        7.5060   -9.8000   -4.9270 C.ar   63  PHE63      -0.0003
    104  CE2        8.9660   -9.7610   -6.7570 C.ar   63  PHE63      -0.0003
    105  CZ         7.8210  -10.2160   -6.1650 C.ar   63  PHE63      -0.0000
    106  N         15.6970  -11.2190   -1.2470 N.3    68  PHE68      -0.1241
    107  CA        14.6840  -11.6810   -0.3180 C.3    68  PHE68       0.1605
    108  C         14.6400  -13.2190   -0.3670 C.2    68  PHE68       0.2264
    109  O         15.1220  -13.7870   -1.3340 O.2    68  PHE68      -0.2867
    110  CB        13.3060  -11.0910   -0.6370 C.3    68  PHE68       0.0534
    111  CG        12.7340  -11.4890   -2.0220 C.ar   68  PHE68      -0.0203
    112  CD1       13.1580  -10.8540   -3.1920 C.ar   68  PHE68      -0.0042
    113  CD2       11.8360  -12.5570   -2.1500 C.ar   68  PHE68      -0.0042
    114  CE1       12.6000  -11.1850   -4.4760 C.ar   68  PHE68      -0.0003
    115  CE2       11.2920  -12.8730   -3.3720 C.ar   68  PHE68      -0.0003
    116  CZ        11.6920  -12.2410   -4.5280 C.ar   68  PHE68      -0.0000
    117  N         12.0130  -16.3550   -0.4810 N.3    70  VAL70      -0.1245
    118  CA        10.6040  -16.6070   -0.9030 C.3    70  VAL70       0.1561
    119  C          9.7770  -16.9060    0.2810 C.2    70  VAL70       0.2260
    120  O          8.5190  -16.9340    0.1580 O.2    70  VAL70      -0.2867
    121  CB        10.4900  -17.6780   -1.9620 C.3    70  VAL70       0.0252
    122  CG1       11.2780  -17.2630   -3.1960 C.3    70  VAL70       0.0019
    123  CG2       10.7730  -19.0380   -1.3330 C.3    70  VAL70       0.0019
    124  N          6.4610  -14.0660    2.8850 N.3    73  HIS73      -0.1297
    125  CA         5.1420  -14.0160    2.2680 C.3    73  HIS73       0.1306
    126  C          4.4630  -12.7330    2.5170 C.3    73  HIS73       0.2013
    127  O          3.8090  -12.2090    1.5320 O.3    73  HIS73      -0.2188
    128  CB         4.2720  -15.1510    2.8320 C.3    73  HIS73       0.0691
    129  CG         4.6330  -16.4850    2.2890 C.ar   73  HIS73       0.0814
    130  ND1        3.7560  -17.5490    2.2520 N.ar   73  HIS73      -0.2268
    131  CD2        5.7960  -16.9240    1.7340 C.ar   73  HIS73       0.1154
    132  CE1        4.3470  -18.5740    1.6550 C.ar   73  HIS73       0.1986
    133  NE2        5.6050  -18.2280    1.3720 N.ar   73  HIS73      -0.2212
    134  N          5.9680  -10.3590   -0.0740 N.3    76  ILE76      -0.1231
    135  CA         5.6330  -10.7730   -1.4360 C.3    76  ILE76       0.1692
    136  C          4.1490  -10.4130   -1.7720 C.2    76  ILE76       0.2592
    137  O          3.8620   -9.7310   -2.7920 O.2    76  ILE76      -0.2718
    138  CB         5.9630  -12.2500   -1.7380 C.3    76  ILE76       0.0266
    139  CG1        7.5050  -12.3820   -1.6540 C.3    76  ILE76       0.0019
    140  CG2        5.3750  -12.7230   -3.0190 C.3    76  ILE76       0.0020
    141  CD1        8.0170  -13.7740   -1.5430 C.3    76  ILE76       0.0001
    142  N          3.2280  -10.8050   -0.9320 N.am   77  TYR77      -0.1976
    143  CA         1.8010  -10.4810   -1.2100 C.3    77  TYR77       0.1639
    144  C          1.5760   -9.0110   -1.1310 C.2    77  TYR77       0.2290
    145  O          0.8370   -8.4900   -2.0090 O.2    77  TYR77      -0.2864
    146  CB         0.8570  -11.1510   -0.1410 C.3    77  TYR77       0.0560
    147  CG         0.6030  -12.5040   -0.4240 C.ar   77  TYR77      -0.0198
    148  CD1       -0.1770  -12.8710   -1.4870 C.ar   77  TYR77      -0.0009
    149  CD2        1.0160  -13.4930    0.4390 C.ar   77  TYR77      -0.0009
    150  CE1       -0.4320  -14.2430   -1.7470 C.ar   77  TYR77       0.0417
    151  CE2        0.7730  -14.8310    0.1760 C.ar   77  TYR77       0.0417
    152  CZ         0.1350  -15.1660   -0.9300 C.ar   77  TYR77       0.1957
    153  OH        -0.0930  -16.5530   -1.1210 O.3    77  TYR77      -0.2866
@<TRIPOS>BOND
     1    39    38    2
     2    36    37    1
     3    36    33    1
     4    35    34    2
     5    17    19   ar
     6    17    15   ar
     7    37    38    1
     8    38    40   am
     9    19    18   ar
    10    34    33    1
    11    52    51    2
    12    15    14   ar
    13    51    50    1
    14    33    32    1
    15    18    16   ar
    16    53    50    1
    17    53    54    1
    18    14    16   ar
    19    14    13    1
    20    50    49    1
    21    32    30   am
    22    41    42    1
    23    49    43   am
    24    12    11    2
    25    11    10    1
    26    44    43    2
    27    20    21    1
    28    43    42    1
    29    13    10    1
    30    68    67    1
    31    54    55    1
    32    42    45    1
    33    30    31    2
    34    30    29    1
    35    21    22    1
    36    21    24    1
    37    27    25    1
    38    10     9    1
    39    23    22    2
    40    22    28   am
    41    56    55    1
    42    65    67   ar
    43    65    63   ar
    44    67    66   ar
    45    28    29    1
    46    25    24    1
    47    25    26    1
    48     9     3   am
    49    45    46    1
    50    45    47    1
    51    63    62   ar
    52     3     4    2
    53     3     2    1
    54    46    48    1
    55     1     2    1
    56    66    64   ar
    57    57    58    1
    58     2     5    1
    59    62    64   ar
    60    62    61    1
    61    60    59    2
    62    61    58    1
    63    58    59    1
    64     5     6    1
    65   104   105   ar
    66   104   102   ar
    67    76    75    2
    68    77    75   am
    69   105   103   ar
    70   102   100   ar
    71    93    92    1
    72    75    74    1
    73     6     8    1
    74     6     7    1
    75    95    96    1
    76    74    73    1
    77   103   101   ar
    78   100   101   ar
    79   100    99    1
    80    94    92    1
    81    92    89    1
    82   116   114   ar
    83   116   115   ar
    84    73    70    1
    85   114   112   ar
    86    89    90    1
    87    89    88    1
    88    96    99    1
    89    96    97    1
    90    90    91    2
    91    72    71    2
    92    70    71    1
    93    70    69    1
    94    97    98    2
    95   115   113   ar
    96    71    78   am
    97   122   121    1
    98   112   111   ar
    99   140   138    1
   100   137   136    2
   101   113   111   ar
   102   111   110    1
   103   145   144    2
   104   121   123    1
   105   121   118    1
   106    78    79    1
   107   136   135    1
   108   136   142   am
   109   150   148   ar
   110   150   152   ar
   111   138   139    1
   112   138   135    1
   113   139   141    1
   114    80    79    1
   115    80    81    2
   116   148   147   ar
   117    79    82    1
   118   135   134    1
   119   109   108    2
   120   106   107    1
   121   143   144    1
   122   143   142    1
   123   143   146    1
   124   153   152    1
   125   152   151   ar
   126   118   117    1
   127   118   119    1
   128   110   107    1
   129   147   146    1
   130   147   149   ar
   131   108   107    1
   132    84    86   ar
   133    84    83   ar
   134    82    83    1
   135    86    87   ar
   136   120   119    2
   137   151   149   ar
   138    83    85   ar
   139    87    85   ar
   140   133   132   ar
   141   133   131   ar
   142   127   126    1
   143   132   130   ar
   144   131   129   ar
   145   130   129   ar
   146   125   126    1
   147   125   128    1
   148   125   124    1
   149   129   128    1
