@<TRIPOS>MOLECULE
tmp/5z09A00.pdb
 169 158 0 0 0
SMALL
GASTEIGER

@<TRIPOS>ATOM
      1  N         19.1260   -1.8830   11.6540 N.3     6  LEU6       -0.1231
      2  CA        19.4700   -3.2340   12.1170 C.3     6  LEU6        0.1693
      3  C         20.9670   -3.3990   12.4100 C.2     6  LEU6        0.2592
      4  O         21.7930   -3.4660   11.4860 O.2     6  LEU6       -0.2718
      5  CB        19.0350   -4.2640   11.0790 C.3     6  LEU6        0.0284
      6  CG        17.5950   -4.1130   10.5780 C.3     6  LEU6        0.0019
      7  CD1       17.3550   -5.0530    9.4150 C.3     6  LEU6        0.0001
      8  CD2       16.6010   -4.3800   11.6960 C.3     6  LEU6        0.0001
      9  N         21.2930   -3.5620   13.6930 N.am    7  ALA7       -0.1966
     10  CA        22.6750   -3.5140   14.1560 C.3     7  ALA7        0.1728
     11  C         22.9920   -4.5580   15.2290 C.2     7  ALA7        0.2616
     12  O         23.7390   -4.2910   16.1620 O.2     7  ALA7       -0.2715
     13  CB        22.9540   -2.1330   14.6930 C.3     7  ALA7        0.0334
     14  N         22.4580   -5.7560   15.0710 N.am    8  ALA8       -0.1963
     15  CA        22.5760   -6.8030   16.0910 C.3     8  ALA8        0.1728
     16  C         23.2280   -8.0870   15.5530 C.2     8  ALA8        0.2617
     17  O         23.1190   -9.1580   16.1550 O.2     8  ALA8       -0.2715
     18  CB        21.1880   -7.0940   16.6410 C.3     8  ALA8        0.0334
     19  N         23.9170   -7.9710   14.4240 N.am    9  GLY9       -0.1940
     20  CA        24.9600   -8.9210   14.0580 C.3     9  GLY9        0.2014
     21  C         26.1420   -8.8540   15.0140 C.2     9  GLY9        0.2640
     22  O         26.3580   -7.8320   15.6810 O.2     9  GLY9       -0.2714
     23  N         26.8480   -9.9730   15.1630 N.am   10  SER10      -0.1935
     24  CA        28.2610   -9.9520   15.5330 C.3    10  SER10       0.2055
     25  C         29.0140  -10.0170   14.2330 C.2    10  SER10       0.2644
     26  O         29.0150  -11.0550   13.5900 O.2    10  SER10      -0.2714
     27  CB        28.6170  -11.1570   16.4100 C.3    10  SER10       0.2130
     28  OG        27.8400  -12.2830   16.0550 O.3    10  SER10      -0.2179
     29  N         29.4400   -8.8640   13.7420 N.am   11  GLY11      -0.1939
     30  CA        30.2550   -8.7890   12.5390 C.3    11  GLY11       0.2014
     31  C         31.5070   -9.6130   12.7030 C.2    11  GLY11       0.2639
     32  O         32.5770   -9.0820   12.9960 O.2    11  GLY11      -0.2714
     33  N         31.3680  -10.9150   12.4510 N.am   12  GLU12      -0.1963
     34  CA        32.4780  -11.8510   12.5290 C.3    12  GLU12       0.1733
     35  C         33.4650  -11.5880   11.3920 C.2    12  GLU12       0.2616
     36  O         34.6780  -11.5730   11.6070 O.2    12  GLU12      -0.2715
     37  CB        31.9680  -13.2900   12.4450 C.3    12  GLU12       0.0429
     38  CG        32.7400  -14.2820   13.2990 C.3    12  GLU12       0.1163
     39  CD        32.3190  -15.7170   13.0390 C.2    12  GLU12       0.3649
     40  OE1       33.1800  -16.5210   12.5890 O.co2  12  GLU12      -0.2457
     41  OE2       31.1120  -16.0090   13.2160 O.co2  12  GLU12      -0.2457
     42  N         32.9410  -11.2940   10.2070 N.am   13  ARG13      -0.1963
     43  CA        33.7870  -11.0420    9.0430 C.3    13  ARG13       0.1729
     44  C         34.6490   -9.7860    9.1850 C.2    13  ARG13       0.2616
     45  O         35.6720   -9.6480    8.4890 O.2    13  ARG13      -0.2715
     46  CB        32.9350  -10.9300    7.7910 C.3    13  ARG13       0.0348
     47  CG        32.3060  -12.2400    7.3660 C.3    13  ARG13       0.0492
     48  CD        31.4680  -12.1000    6.1060 C.3    13  ARG13       0.2205
     49  NE        30.3270  -11.2030    6.3090 N.pl3  13  ARG13      -0.0865
     50  CZ        30.0330  -10.1630    5.5370 C.cat  13  ARG13       0.5346
     51  NH1       30.7270   -9.9140    4.4250 N.pl3  13  ARG13       0.1354
     52  NH2       29.0220   -9.3730    5.8660 N.pl3  13  ARG13       0.1354
     53  N         34.2910   -8.9190   10.1400 N.am   14  LEU14      -0.1977
     54  CA        35.0220   -7.6700   10.3880 C.3    14  LEU14       0.1596
     55  C         35.9530   -7.7480   11.5940 C.2    14  LEU14       0.2287
     56  O         36.4540   -6.7150   12.0730 O.2    14  LEU14      -0.2864
     57  CB        34.0320   -6.5350   10.6160 C.3    14  LEU14       0.0297
     58  CG        34.5090   -5.1450   10.2100 C.3    14  LEU14       0.0022
     59  CD1       34.5110   -5.0190    8.6950 C.3    14  LEU14       0.0001
     60  CD2       33.6240   -4.0890   10.8520 C.3    14  LEU14       0.0001
     61  N         29.8300   -3.0670   14.9060 N.3    23  LYS23      -0.1245
     62  CA        30.2070   -2.5800   13.5750 C.3    23  LYS23       0.1561
     63  C         29.5910   -1.1970   13.3550 C.2    23  LYS23       0.2260
     64  O         30.1330   -0.3920   12.5940 O.2    23  LYS23      -0.2867
     65  CB        29.7670   -3.5760   12.5020 C.3    23  LYS23       0.0271
     66  CG        29.6290   -2.9720   11.1260 C.3    23  LYS23       0.0035
     67  CD        29.9120   -3.9800   10.0260 C.3    23  LYS23       0.0206
     68  CE        29.1710   -5.2890   10.2030 C.3    23  LYS23       0.1093
     69  NZ        29.3200   -6.1130    8.9680 N.3    23  LYS23      -0.1314
     70  N         18.0290   -1.5370   16.3530 N.3    52  ILE52      -0.1245
     71  CA        17.9400   -2.8950   16.8910 C.3    52  ILE52       0.1561
     72  C         19.3480   -3.4190   17.1350 C.2    52  ILE52       0.2260
     73  O         20.1230   -3.6120   16.1960 O.2    52  ILE52      -0.2867
     74  CB        17.2280   -3.8770   15.9380 C.3    52  ILE52       0.0252
     75  CG1       15.8910   -3.3140   15.4420 C.3    52  ILE52       0.0019
     76  CG2       17.0100   -5.2180   16.6330 C.3    52  ILE52       0.0019
     77  CD1       14.9290   -2.9330   16.5450 C.3    52  ILE52       0.0001
     78  N         17.3940   -7.4070   20.5840 N.3    73  GLN73      -0.1245
     79  CA        16.8290   -8.4610   19.7500 C.3    73  GLN73       0.1566
     80  C         16.4900   -9.6480   20.6440 C.2    73  GLN73       0.2260
     81  O         17.0290   -9.7650   21.7390 O.2    73  GLN73      -0.2867
     82  CB        17.8450   -8.8800   18.6880 C.3    73  GLN73       0.0367
     83  CG        17.2320   -9.5140   17.4610 C.3    73  GLN73       0.0905
     84  CD        18.2820   -9.9950   16.4860 C.2    73  GLN73       0.2608
     85  OE1       18.9260   -9.1970   15.8110 O.2    73  GLN73      -0.2717
     86  NE2       18.4360  -11.3100   16.3810 N.am   73  GLN73      -0.0878
     87  N         18.6230  -15.9650   15.6210 N.3    78  LYS78      -0.1231
     88  CA        19.3720  -14.8670   14.9860 C.3    78  LYS78       0.1693
     89  C         18.7780  -14.5090   13.6310 C.2    78  LYS78       0.2593
     90  O         17.9760  -15.2660   13.0810 O.2    78  LYS78      -0.2718
     91  CB        20.8480  -15.2490   14.7960 C.3    78  LYS78       0.0285
     92  CG        21.5810  -15.6480   16.0780 C.3    78  LYS78       0.0035
     93  CD        22.2960  -14.4710   16.7350 C.3    78  LYS78       0.0206
     94  CE        22.8780  -14.8400   18.0950 C.3    78  LYS78       0.1093
     95  NZ        22.0810  -14.2680   19.2150 N.3    78  LYS78      -0.1314
     96  N         19.2180  -13.3790   13.0830 N.am   79  GLY79      -0.1942
     97  CA        18.9210  -12.9990   11.7000 C.3    79  GLY79       0.2014
     98  C         18.3420  -11.5970   11.6000 C.2    79  GLY79       0.2639
     99  O         17.7440  -11.0920   12.5550 O.2    79  GLY79      -0.2714
    100  N         18.4740  -10.9890   10.4220 N.am   80  THR80      -0.1950
    101  CA        17.7880   -9.7260   10.1140 C.3    80  THR80       0.1897
    102  C         16.2680   -9.8430   10.2940 C.2    80  THR80       0.2313
    103  O         15.6080   -8.8980   10.7270 O.2    80  THR80      -0.2863
    104  CB        18.0420   -9.2770    8.6650 C.3    80  THR80       0.1794
    105  OG1       17.8690  -10.3860    7.7740 O.3    80  THR80      -0.2208
    106  CG2       19.4390   -8.7210    8.5030 C.3    80  THR80       0.0378
    107  N         15.4830   -9.5830   13.8360 N.3    83  ALA83      -0.1245
    108  CA        15.7200   -8.2100   14.2810 C.3    83  ALA83       0.1562
    109  C         14.4440   -7.3500   14.2640 C.2    83  ALA83       0.2260
    110  O         14.0740   -6.7750   15.2950 O.2    83  ALA83      -0.2867
    111  CB        16.8270   -7.5630   13.4590 C.3    83  ALA83       0.0290
    112  N         19.8390   -1.5420    6.8640 N.3    97  ASN97      -0.1225
    113  CA        20.9110   -2.3870    7.4240 C.3    97  ASN97       0.1785
    114  C         22.0260   -1.5620    8.0440 C.2    97  ASN97       0.2598
    115  O         22.6100   -0.6920    7.3830 O.2    97  ASN97      -0.2718
    116  CB        21.5250   -3.2750    6.3470 C.3    97  ASN97       0.1169
    117  CG        20.6870   -4.4890    6.0560 C.2    97  ASN97       0.2627
    118  OD1       19.9180   -4.9500    6.8990 O.2    97  ASN97      -0.2716
    119  ND2       20.8750   -5.0500    4.8790 N.am   97  ASN97      -0.0877
    120  N         22.3790   -1.9030    9.2770 N.am   98  GLY98      -0.1942
    121  CA        23.2600   -1.0580   10.0780 C.3    98  GLY98       0.2014
    122  C         24.7410   -1.1930    9.7270 C.2    98  GLY98       0.2638
    123  O         25.5840   -0.6360   10.4130 O.2    98  GLY98      -0.2714
    124  N         25.0310   -1.8350    8.6000 N.am   99  ASP99      -0.1971
    125  CA        26.3760   -1.9750    8.1010 C.3    99  ASP99       0.1709
    126  C         26.5940   -1.2790    6.7580 C.2    99  ASP99       0.2293
    127  O         27.5610   -1.5640    6.0420 O.2    99  ASP99      -0.2864
    128  CB        26.7360   -3.4610    8.0070 C.3    99  ASP99       0.1436
    129  CG        25.9090   -4.2090    6.9830 C.2    99  ASP99       0.3671
    130  OD1       25.0320   -3.6100    6.3690 O.co2  99  ASP99      -0.2456
    131  OD2       26.1450   -5.4100    6.7820 O.co2  99  ASP99      -0.2456
    132  N         21.9040  -21.3500    7.1990 N.3   179  ARG179     -0.1245
    133  CA        22.9180  -20.9140    8.1700 C.3   179  ARG179      0.1563
    134  C         22.3230  -20.6130    9.5410 C.2   179  ARG179      0.2260
    135  O         22.9860  -20.0260   10.3910 O.2   179  ARG179     -0.2867
    136  CB        23.7050  -19.7040    7.6530 C.3   179  ARG179      0.0307
    137  CG        22.8570  -18.5890    7.0870 C.3   179  ARG179      0.0489
    138  CD        23.6910  -17.3950    6.6690 C.3   179  ARG179      0.2205
    139  NE        22.9060  -16.1580    6.6340 N.pl3 179  ARG179     -0.0865
    140  CZ        23.4310  -14.9470    6.4760 C.cat 179  ARG179      0.5346
    141  NH1       24.7380  -14.8000    6.2750 N.pl3 179  ARG179      0.1354
    142  NH2       22.6580  -13.8750    6.5220 N.pl3 179  ARG179      0.1354
    143  N         19.5050  -19.0190   10.5120 N.3   181  GLU181     -0.1245
    144  CA        19.0590  -17.6310   10.7030 C.3   181  GLU181      0.1567
    145  C         17.6720  -17.3700   10.0890 C.2   181  GLU181      0.2260
    146  O         17.1970  -18.1340    9.2460 O.2   181  GLU181     -0.2867
    147  CB        20.0870  -16.6730   10.1090 C.3   181  GLU181      0.0388
    148  CG        21.3000  -16.4560   11.0020 C.3   181  GLU181      0.1160
    149  CD        22.2470  -15.4010   10.4720 C.2   181  GLU181      0.3649
    150  OE1       22.5420  -15.4130    9.2600 O.co2 181  GLU181     -0.2457
    151  OE2       22.6660  -14.5350   11.2700 O.co2 181  GLU181     -0.2457
    152  N         16.0940  -15.0690    7.8690 N.3   183  GLU183     -0.1245
    153  CA        16.4010  -14.0760    6.8590 C.3   183  GLU183      0.1567
    154  C         15.1820  -13.2130    6.5500 C.2   183  GLU183      0.2260
    155  O         14.1950  -13.6950    6.0030 O.2   183  GLU183     -0.2867
    156  CB        16.8570  -14.8170    5.6020 C.3   183  GLU183      0.0388
    157  CG        18.3030  -14.5820    5.2270 C.3   183  GLU183      0.1160
    158  CD        19.2500  -14.9620    6.3410 C.2   183  GLU183      0.3649
    159  OE1       19.6220  -14.0600    7.1290 O.co2 183  GLU183     -0.2457
    160  OE2       19.6160  -16.1560    6.4230 O.co2 183  GLU183     -0.2457
    161  N         36.2110  -15.5790    8.5430 N.3   344  LYS344     -0.1245
    162  CA        35.4530  -16.7220    9.0490 C.3   344  LYS344      0.1561
    163  C         36.1130  -18.0330    8.6340 C.2   344  LYS344      0.2260
    164  O         35.4530  -18.9260    8.0990 O.2   344  LYS344     -0.2867
    165  CB        33.9960  -16.7060    8.5520 C.3   344  LYS344      0.0271
    166  CG        33.1650  -15.5570    9.0740 C.3   344  LYS344      0.0035
    167  CD        31.7180  -15.6950    8.6460 C.3   344  LYS344      0.0206
    168  CE        30.8670  -16.3690    9.7030 C.3   344  LYS344      0.1093
    169  NZ        29.4630  -16.5290    9.2360 N.3   344  LYS344     -0.1314
@<TRIPOS>BOND
     1    51    50    1
     2   119   117   am
     3   157   156    1
     4   157   158    1
     5    50    52    1
     6    50    49    2
     7   156   153    1
     8   155   154    2
     9   127   126    2
    10   117   116    1
    11   117   118    2
    12    48    49    1
    13    48    47    1
    14   141   140    1
    15   158   160   ar
    16   158   159   ar
    17   116   113    1
    18   130   129   ar
    19   140   142    1
    20   140   139    2
    21   154   153    1
    22   139   138    1
    23   138   137    1
    24   126   125    1
    25   131   129   ar
    26   153   152    1
    27   112   113    1
    28   129   128    1
    29   137   136    1
    30   132   133    1
    31    47    46    1
    32   115   114    2
    33   113   114    1
    34   136   133    1
    35   105   104    1
    36    46    43    1
    37   128   125    1
    38   114   120   am
    39   164   163    2
    40   125   124    1
    41   133   134    1
    42    45    44    2
    43   106   104    1
    44   161   162    1
    45   165   162    1
    46   165   166    1
    47   124   122   am
    48   163   162    1
    49   167   166    1
    50   167   168    1
    51   104   101    1
    52    59    58    1
    53    69    68    1
    54    43    44    1
    55    43    42    1
    56    44    53   am
    57   169   168    1
    58   146   145    2
    59   150   149   ar
    60   120   121    1
    61     7     6    1
    62   134   135    2
    63   122   121    1
    64   122   123    2
    65    67    68    1
    66    67    66    1
    67   145   144    1
    68   147   144    1
    69   147   148    1
    70   101   102    1
    71   101   100    1
    72    53    54    1
    73    42    35   am
    74    58    57    1
    75    58    60    1
    76   102   103    2
    77    54    57    1
    78    54    55    1
    79   100    98   am
    80   149   148    1
    81   149   151   ar
    82   143   144    1
    83     6     5    1
    84     6     8    1
    85     5     2    1
    86    66    65    1
    87    35    36    2
    88    35    34    1
    89     4     3    2
    90    55    56    2
    91    98    97    1
    92    98    99    2
    93     1     2    1
    94    97    96    1
    95     2     3    1
    96     3     9   am
    97    37    34    1
    98    37    38    1
    99    33    34    1
   100    33    31   am
   101    65    62    1
   102    30    31    1
   103    30    29    1
   104    40    39   ar
   105    64    63    2
   106    31    32    2
   107    39    41   ar
   108    39    38    1
   109    90    89    2
   110    96    89   am
   111    63    62    1
   112   111   108    1
   113    62    61    1
   114    26    25    2
   115    89    88    1
   116     9    10    1
   117    29    25   am
   118   107   108    1
   119    20    19    1
   120    20    21    1
   121    10    13    1
   122    10    11    1
   123    25    24    1
   124   109   108    1
   125   109   110    2
   126    19    16   am
   127    91    88    1
   128    91    92    1
   129    88    87    1
   130    21    23   am
   131    21    22    2
   132    14    11   am
   133    14    15    1
   134    23    24    1
   135    11    12    2
   136    75    74    1
   137    75    77    1
   138    24    27    1
   139    16    15    1
   140    16    17    2
   141    85    84    2
   142    74    76    1
   143    74    71    1
   144    28    27    1
   145    92    93    1
   146    15    18    1
   147    73    72    2
   148    70    71    1
   149    86    84   am
   150    84    83    1
   151    93    94    1
   152    71    72    1
   153    83    82    1
   154    94    95    1
   155    82    79    1
   156    79    78    1
   157    79    80    1
   158    80    81    2
