@<TRIPOS>MOLECULE
tmp/5z0aF00.pdb
 136 129 0 0 0
SMALL
GASTEIGER

@<TRIPOS>ATOM
      1  N        -44.2230   15.8440    8.1510 N.3    80  THR80      -0.1218
      2  CA       -43.3840   14.6850    8.4800 C.3    80  THR80       0.1862
      3  C        -44.0160   13.7360    9.5110 C.2    80  THR80       0.2287
      4  O        -43.8340   12.5100    9.4080 O.2    80  THR80      -0.2866
      5  CB       -42.0430   15.1720    9.0200 C.3    80  THR80       0.1770
      6  OG1      -42.3010   16.1770   10.0080 O.3    80  THR80      -0.2211
      7  CG2      -41.2250   15.7920    7.8390 C.3    80  THR80       0.0375
      8  N        -35.2660   12.4290    6.3740 N.3    97  ASN97      -0.1240
      9  CA       -35.9860   13.3050    5.4330 C.3    97  ASN97       0.1653
     10  C        -35.4250   13.0960    4.0440 C.2    97  ASN97       0.2266
     11  O        -34.2030   13.1120    3.8400 O.2    97  ASN97      -0.2867
     12  CB       -35.8560   14.7840    5.7900 C.3    97  ASN97       0.1155
     13  CG       -36.6730   15.1770    6.9810 C.2    97  ASN97       0.2627
     14  OD1      -37.4920   14.3990    7.4780 O.2    97  ASN97      -0.2716
     15  ND2      -36.4150   16.3770    7.4990 N.am   97  ASN97      -0.0877
     16  N        -35.3950   15.1260    1.4980 N.3    99  ASP99      -0.1225
     17  CA       -34.7440   16.2880    0.9130 C.3    99  ASP99       0.1805
     18  C        -33.2320   16.4420    1.2270 C.2    99  ASP99       0.2597
     19  O        -32.6340   17.3870    0.7650 O.2    99  ASP99      -0.2718
     20  CB       -35.5410   17.5630    1.2420 C.3    99  ASP99       0.1424
     21  CG       -35.5850   17.8720    2.6580 C.2    99  ASP99       0.3668
     22  OD1      -34.8710   17.2200    3.4190 O.co2  99  ASP99      -0.2456
     23  OD2      -36.4080   18.7380    3.0800 O.co2  99  ASP99      -0.2456
     24  N        -32.6300   15.5060    1.9790 N.am  100  LEU100     -0.1979
     25  CA       -31.2830   15.6750    2.4770 C.3   100  LEU100      0.1596
     26  C        -30.2330   15.0570    1.6280 C.2   100  LEU100      0.2287
     27  O        -30.3670   13.9150    1.1790 O.2   100  LEU100     -0.2864
     28  CB       -31.1110   15.0150    3.8350 C.3   100  LEU100      0.0297
     29  CG       -32.0200   15.4840    4.9360 C.3   100  LEU100      0.0022
     30  CD1      -31.7530   14.5550    6.1370 C.3   100  LEU100      0.0001
     31  CD2      -31.7970   16.9300    5.3010 C.3   100  LEU100      0.0001
     32  N        -34.7900   26.7110   10.4220 N.3   130  TYR130     -0.1227
     33  CA       -34.8160   25.2850   10.7370 C.3   130  TYR130      0.1736
     34  C        -35.2770   25.0620   12.1760 C.2   130  TYR130      0.2596
     35  O        -35.4350   26.0320   12.9510 O.2   130  TYR130     -0.2718
     36  CB       -33.3980   24.7420   10.5840 C.3   130  TYR130      0.0548
     37  CG       -32.8730   24.7400    9.1540 C.ar  130  TYR130     -0.0200
     38  CD1      -31.9340   25.6940    8.7200 C.ar  130  TYR130     -0.0009
     39  CD2      -33.3290   23.8080    8.2240 C.ar  130  TYR130     -0.0009
     40  CE1      -31.4450   25.6850    7.4210 C.ar  130  TYR130      0.0417
     41  CE2      -32.8420   23.7990    6.9360 C.ar  130  TYR130      0.0417
     42  CZ       -31.9090   24.7460    6.5400 C.ar  130  TYR130      0.1957
     43  OH       -31.4060   24.7200    5.2420 O.3   130  TYR130     -0.2866
     44  N        -35.4150   23.7960   12.5550 N.am  131  GLY131     -0.1957
     45  CA       -35.6050   23.4250   13.9430 C.3   131  GLY131      0.1869
     46  C        -34.3070   23.4330   14.7340 C.2   131  GLY131      0.2309
     47  O        -33.4060   22.6280   14.4680 O.2   131  GLY131     -0.2863
     48  N        -38.9730   25.0800   16.4270 N.3   146  GLU146     -0.1245
     49  CA       -39.1510   25.3360   14.9880 C.3   146  GLU146      0.1567
     50  C        -39.0420   26.8040   14.6680 C.2   146  GLU146      0.2260
     51  O        -39.7780   27.6230   15.1870 O.2   146  GLU146     -0.2867
     52  CB       -40.4590   24.7630   14.4550 C.3   146  GLU146      0.0388
     53  CG       -40.4310   23.2370   14.2800 C.3   146  GLU146      0.1160
     54  CD       -39.4640   22.7440   13.1750 C.2   146  GLU146      0.3649
     55  OE1      -38.9840   21.6130   13.2960 O.co2 146  GLU146     -0.2457
     56  OE2      -39.1820   23.4870   12.2100 O.co2 146  GLU146     -0.2457
     57  N        -31.7770   20.4850   13.8980 N.3   157  ASN157     -0.1225
     58  CA       -32.2960   19.1810   13.5370 C.3   157  ASN157      0.1785
     59  C        -31.8940   18.8040   12.1010 C.2   157  ASN157      0.2597
     60  O        -32.3210   19.4280   11.1490 O.2   157  ASN157     -0.2718
     61  CB       -33.8160   19.2080   13.6550 C.3   157  ASN157      0.1169
     62  CG       -34.4750   17.9070   13.2840 C.2   157  ASN157      0.2627
     63  OD1      -33.8210   16.8500   13.2180 O.2   157  ASN157     -0.2716
     64  ND2      -35.7640   17.9880   12.9280 N.am  157  ASN157     -0.0877
     65  N        -30.9970   17.8180   11.9660 N.am  158  ALA158     -0.1979
     66  CA       -30.5130   17.4250   10.6550 C.3   158  ALA158      0.1597
     67  C        -31.5140   16.5820    9.8360 C.2   158  ALA158      0.2287
     68  O        -31.2860   16.3060    8.6910 O.2   158  ALA158     -0.2864
     69  CB       -29.2070   16.6670   10.8080 C.3   158  ALA158      0.0319
     70  N        -33.1710   10.5110   12.1170 N.3   161  TYR161     -0.1241
     71  CA       -33.6760   10.0210   13.3970 C.3   161  TYR161      0.1605
     72  C        -33.5900    8.5130   13.5150 C.2   161  TYR161      0.2264
     73  O        -33.8770    7.8080   12.5620 O.2   161  TYR161     -0.2867
     74  CB       -35.1320   10.4260   13.6100 C.3   161  TYR161      0.0534
     75  CG       -35.5280   11.8220   13.1150 C.ar  161  TYR161     -0.0201
     76  CD1      -36.1140   11.9870   11.8830 C.ar  161  TYR161     -0.0009
     77  CD2      -35.4420   12.9350   13.9500 C.ar  161  TYR161     -0.0009
     78  CE1      -36.5370   13.2510   11.4420 C.ar  161  TYR161      0.0417
     79  CE2      -35.8590   14.1830   13.5240 C.ar  161  TYR161      0.0417
     80  CZ       -36.4300   14.3140   12.2420 C.ar  161  TYR161      0.1957
     81  OH       -36.8760   15.5200   11.8340 O.3   161  TYR161     -0.2866
     82  N        -49.5380   21.5590    9.7550 N.3   181  GLU181     -0.1245
     83  CA       -48.9790   20.2330    9.5600 C.3   181  GLU181      0.1567
     84  C        -48.8270   19.4180   10.8530 C.2   181  GLU181      0.2260
     85  O        -48.6590   19.9710   11.9300 O.2   181  GLU181     -0.2867
     86  CB       -47.6240   20.2940    8.8470 C.3   181  GLU181      0.0388
     87  CG       -47.2820   21.4220    7.8800 C.3   181  GLU181      0.1160
     88  CD       -45.8930   21.2180    7.2470 C.2   181  GLU181      0.3649
     89  OE1      -44.9590   20.9850    8.0130 O.co2 181  GLU181     -0.2457
     90  OE2      -45.7400   21.2290    6.0230 O.co2 181  GLU181     -0.2457
     91  N        -46.3980   17.7550   12.6320 N.3   183  GLU183     -0.1231
     92  CA       -44.9520   17.8680   12.6010 C.3   183  GLU183      0.1699
     93  C        -44.3170   16.8360   13.4920 C.2   183  GLU183      0.2592
     94  O        -44.5910   16.7780   14.6980 O.2   183  GLU183     -0.2718
     95  CB       -44.4380   19.2430   13.0420 C.3   183  GLU183      0.0402
     96  CG       -44.8340   20.4200   12.1250 C.3   183  GLU183      0.1161
     97  CD       -44.4180   21.7670   12.6860 C.2   183  GLU183      0.3649
     98  OE1      -43.6350   21.8020   13.6760 O.co2 183  GLU183     -0.2457
     99  OE2      -44.8780   22.8090   12.1650 O.co2 183  GLU183     -0.2457
    100  N        -43.4770   16.0140   12.8810 N.am  184  LEU184     -0.1966
    101  CA       -42.7650   14.9830   13.6180 C.3   184  LEU184      0.1728
    102  C        -41.9940   15.5440   14.8240 C.2   184  LEU184      0.2616
    103  O        -41.9420   14.9050   15.8900 O.2   184  LEU184     -0.2715
    104  CB       -41.8430   14.2420   12.6710 C.3   184  LEU184      0.0311
    105  CG       -40.9790   13.1820   13.2930 C.3   184  LEU184      0.0022
    106  CD1      -41.7960   12.1290   14.0310 C.3   184  LEU184      0.0001
    107  CD2      -40.1670   12.5070   12.2180 C.3   184  LEU184      0.0001
    108  N        -41.4710   16.7510   14.6900 N.am  185  THR185     -0.1951
    109  CA       -40.7200   17.3540   15.7810 C.3   185  THR185      0.1897
    110  C        -41.5470   17.6530   17.0370 C.2   185  THR185      0.2313
    111  O        -41.0030   17.6120   18.1450 O.2   185  THR185     -0.2863
    112  CB       -40.0230   18.6470   15.3370 C.3   185  THR185      0.1794
    113  OG1      -40.9510   19.5080   14.6960 O.3   185  THR185     -0.2208
    114  CG2      -38.8980   18.3160   14.3460 C.3   185  THR185      0.0378
    115  N        -23.6510   18.5530    4.7300 N.3   206  TRP206     -0.1241
    116  CA       -25.0700   18.3200    4.9280 C.3   206  TRP206      0.1605
    117  C        -25.7520   19.4750    4.1840 C.2   206  TRP206      0.2264
    118  O        -25.3620   20.6190    4.3770 O.2   206  TRP206     -0.2867
    119  CB       -25.4290   18.4760    6.4100 C.3   206  TRP206      0.0550
    120  CG       -26.8970   18.3330    6.7430 C.ar  206  TRP206      0.0003
    121  CD1      -27.5310   17.1900    7.0610 C.ar  206  TRP206      0.0946
    122  CD2      -27.8940   19.3740    6.7820 C.ar  206  TRP206      0.0152
    123  NE1      -28.8730   17.4330    7.2930 N.ar  206  TRP206     -0.2442
    124  CE2      -29.1180   18.7660    7.1480 C.ar  206  TRP206      0.0810
    125  CE3      -27.8690   20.7420    6.5420 C.ar  206  TRP206      0.0012
    126  CZ2      -30.3090   19.4790    7.2810 C.ar  206  TRP206      0.0191
    127  CZ3      -29.0330   21.4560    6.6870 C.ar  206  TRP206      0.0001
    128  CH2      -30.2530   20.8220    7.0430 C.ar  206  TRP206      0.0015
    129  N        -29.9280   20.4810    2.8150 N.3   208  ASP208     -0.1239
    130  CA       -31.2770   20.1260    2.3560 C.3   208  ASP208      0.1674
    131  C        -31.5770   20.8140    1.0460 C.2   208  ASP208      0.2266
    132  O        -31.2710   21.9820    0.8450 O.2   208  ASP208     -0.2867
    133  CB       -32.3710   20.4680    3.3720 C.3   208  ASP208      0.1410
    134  CG       -32.5080   21.9150    3.6070 C.2   208  ASP208      0.3668
    135  OD1      -31.4870   22.5510    3.9010 O.co2 208  ASP208     -0.2456
    136  OD2      -33.6240   22.4320    3.4510 O.co2 208  ASP208     -0.2456
@<TRIPOS>BOND
     1    19    18    2
     2   132   131    2
     3    17    18    1
     4    17    20    1
     5    17    16    1
     6   131   130    1
     7    27    26    2
     8    18    24   am
     9    20    21    1
    10    26    25    1
    11    24    25    1
    12   130   129    1
    13   130   133    1
    14    25    28    1
    15    21    23   ar
    16    21    22   ar
    17   133   134    1
    18   136   134   ar
    19   134   135   ar
    20    28    29    1
    21    11    10    2
    22    10     9    1
    23   117   118    2
    24   117   116    1
    25   115   116    1
    26   116   119    1
    27    29    31    1
    28    29    30    1
    29    43    42    1
    30     9    12    1
    31     9     8    1
    32    12    13    1
    33    90    88   ar
    34   119   120    1
    35    42    41   ar
    36    42    40   ar
    37   125   127   ar
    38   125   122   ar
    39   127   128   ar
    40   120   122   ar
    41   120   121   ar
    42   122   124   ar
    43    41    39   ar
    44    13    14    2
    45    13    15   am
    46   128   126   ar
    47   121   123   ar
    48   124   126   ar
    49   124   123   ar
    50    88    87    1
    51    88    89   ar
    52    40    38   ar
    53     7     5    1
    54    87    86    1
    55     1     2    1
    56    39    37   ar
    57     2     5    1
    58     2     3    1
    59    68    67    2
    60    38    37   ar
    61    86    83    1
    62     5     6    1
    63    37    36    1
    64     4     3    2
    65    83    82    1
    66    83    84    1
    67    67    66    1
    68    32    33    1
    69    36    33    1
    70    66    69    1
    71    66    65    1
    72    33    34    1
    73    84    85    2
    74    60    59    2
    75    78    76   ar
    76    78    80   ar
    77    81    80    1
    78    76    75   ar
    79    65    59   am
    80    59    58    1
    81    70    71    1
    82    96    97    1
    83    96    95    1
    84    99    97   ar
    85    34    44   am
    86    34    35    2
    87    56    54   ar
    88   107   105    1
    89    80    79   ar
    90    44    45    1
    91    73    72    2
    92    92    91    1
    93    92    95    1
    94    92    93    1
    95   104   105    1
    96   104   101    1
    97    97    98   ar
    98   100    93   am
    99   100   101    1
   100    64    62   am
   101    75    74    1
   102    75    77   ar
   103    54    55   ar
   104    54    53    1
   105    63    62    2
   106    62    61    1
   107   105   106    1
   108    71    72    1
   109    71    74    1
   110    93    94    2
   111    79    77   ar
   112    58    61    1
   113    58    57    1
   114   101   102    1
   115    45    46    1
   116    53    52    1
   117   114   112    1
   118    52    49    1
   119    47    46    2
   120    50    49    1
   121    50    51    2
   122   108   102   am
   123   108   109    1
   124   113   112    1
   125   102   103    2
   126    49    48    1
   127   112   109    1
   128   109   110    1
   129   110   111    2
