@<TRIPOS>MOLECULE
tmp/5z0bC03.pdb
 129 123 0 0 0
SMALL
GASTEIGER

@<TRIPOS>ATOM
      1  N         64.1200   26.7790  -15.7590 N.3     4  VAL4       -0.1245
      2  CA        64.3580   26.1580  -17.0550 C.3     4  VAL4        0.1561
      3  C         65.2100   24.9020  -16.8670 C.2     4  VAL4        0.2260
      4  O         64.9790   23.8880  -17.5250 O.2     4  VAL4       -0.2867
      5  CB        65.0350   27.1400  -18.0540 C.3     4  VAL4        0.0252
      6  CG1       66.4900   27.4200  -17.6840 C.3     4  VAL4        0.0019
      7  CG2       64.9310   26.6060  -19.4750 C.3     4  VAL4        0.0019
      8  N         58.4460   20.3950  -26.8550 N.3    19  LEU19      -0.1231
      9  CA        57.4830   21.2750  -26.2000 C.3    19  LEU19       0.1693
     10  C         57.8010   22.7430  -26.4870 C.2    19  LEU19       0.2591
     11  O         56.8910   23.5510  -26.6800 O.2    19  LEU19      -0.2718
     12  CB        57.4560   21.0060  -24.6910 C.3    19  LEU19       0.0284
     13  CG        56.7260   19.7200  -24.2870 C.3    19  LEU19       0.0019
     14  CD1       57.0690   19.3110  -22.8690 C.3    19  LEU19       0.0001
     15  CD2       55.2160   19.9000  -24.4280 C.3    19  LEU19       0.0001
     16  N         59.0870   23.0790  -26.5440 N.am   20  VAL20      -0.1980
     17  CA        59.5070   24.4370  -26.8800 C.3    20  VAL20       0.1595
     18  C         59.1400   24.7580  -28.3310 C.2    20  VAL20       0.2287
     19  O         58.7010   25.8690  -28.6310 O.2    20  VAL20      -0.2864
     20  CB        61.0330   24.6270  -26.6560 C.3    20  VAL20       0.0276
     21  CG1       61.5290   25.9710  -27.1970 C.3    20  VAL20       0.0022
     22  CG2       61.3660   24.5300  -25.1810 C.3    20  VAL20       0.0022
     23  N         55.5500   25.4710  -28.3460 N.3    23  ALA23      -0.1231
     24  CA        55.2740   26.7520  -27.7020 C.3    23  ALA23       0.1694
     25  C         55.4120   27.9240  -28.6710 C.2    23  ALA23       0.2592
     26  O         54.5470   28.7960  -28.7230 O.2    23  ALA23      -0.2718
     27  CB        56.2070   26.9500  -26.5140 C.3    23  ALA23       0.0304
     28  N         56.4970   27.9390  -29.4400 N.am   24  PHE24      -0.1976
     29  CA        56.7630   29.0400  -30.3620 C.3    24  PHE24       0.1639
     30  C         55.9480   28.9550  -31.6520 C.2    24  PHE24       0.2290
     31  O         55.5930   29.9800  -32.2330 O.2    24  PHE24      -0.2864
     32  CB        58.2600   29.0990  -30.6760 C.3    24  PHE24       0.0560
     33  CG        59.0720   29.6960  -29.5620 C.ar   24  PHE24      -0.0200
     34  CD1       59.1030   31.0670  -29.3660 C.ar   24  PHE24      -0.0042
     35  CD2       59.7630   28.8840  -28.6790 C.ar   24  PHE24      -0.0042
     36  CE1       59.8370   31.6190  -28.3310 C.ar   24  PHE24      -0.0003
     37  CE2       60.4940   29.4290  -27.6390 C.ar   24  PHE24      -0.0003
     38  CZ        60.5270   30.7990  -27.4620 C.ar   24  PHE24      -0.0000
     39  N         67.3110   27.9020  -27.4690 N.3    42  VAL42      -0.1245
     40  CA        66.6860   27.7550  -26.1590 C.3    42  VAL42       0.1561
     41  C         67.2290   26.5310  -25.4310 C.2    42  VAL42       0.2260
     42  O         67.4870   26.5730  -24.2280 O.2    42  VAL42      -0.2867
     43  CB        65.1470   27.6400  -26.2830 C.3    42  VAL42       0.0252
     44  CG1       64.5130   27.2110  -24.9600 C.3    42  VAL42       0.0019
     45  CG2       64.5580   28.9540  -26.7580 C.3    42  VAL42       0.0019
     46  N         70.7750   27.0350  -24.1770 N.3    45  PHE45      -0.1241
     47  CA        70.6510   27.8880  -23.0010 C.3    45  PHE45       0.1605
     48  C         70.1830   27.0770  -21.7950 C.2    45  PHE45       0.2264
     49  O         70.6690   27.2720  -20.6820 O.2    45  PHE45      -0.2867
     50  CB        69.6950   29.0460  -23.2930 C.3    45  PHE45       0.0534
     51  CG        69.1730   29.7350  -22.0670 C.ar   45  PHE45      -0.0203
     52  CD1       69.9990   30.5230  -21.2840 C.ar   45  PHE45      -0.0042
     53  CD2       67.8400   29.6130  -21.7150 C.ar   45  PHE45      -0.0042
     54  CE1       69.5060   31.1590  -20.1620 C.ar   45  PHE45      -0.0003
     55  CE2       67.3420   30.2460  -20.5980 C.ar   45  PHE45      -0.0003
     56  CZ        68.1740   31.0230  -19.8210 C.ar   45  PHE45      -0.0000
     57  N         60.2520   31.4520  -16.5990 N.3    62  LEU62      -0.1245
     58  CA        59.9960   31.0250  -17.9690 C.3    62  LEU62       0.1561
     59  C         59.0790   32.0290  -18.6780 C.2    62  LEU62       0.2260
     60  O         59.1820   32.2120  -19.8930 O.2    62  LEU62      -0.2867
     61  CB        59.4160   29.6090  -17.9880 C.3    62  LEU62       0.0270
     62  CG        60.4710   28.5240  -17.7230 C.3    62  LEU62       0.0019
     63  CD1       59.8430   27.1620  -17.4750 C.3    62  LEU62       0.0001
     64  CD2       61.4580   28.4290  -18.8880 C.3    62  LEU62       0.0001
     65  N         61.3680   34.8170  -19.8480 N.3    65  LEU65      -0.1231
     66  CA        62.2330   34.2610  -20.8770 C.3    65  LEU65       0.1693
     67  C         61.4700   34.0190  -22.1800 C.2    65  LEU65       0.2592
     68  O         61.9380   34.3880  -23.2590 O.2    65  LEU65      -0.2718
     69  CB        62.8590   32.9560  -20.3820 C.3    65  LEU65       0.0284
     70  CG        63.8660   33.0830  -19.2360 C.3    65  LEU65       0.0019
     71  CD1       64.0980   31.7310  -18.5880 C.3    65  LEU65       0.0001
     72  CD2       65.1760   33.6680  -19.7340 C.3    65  LEU65       0.0001
     73  N         60.2900   33.4120  -22.0770 N.am   66  PHE66      -0.1976
     74  CA        59.4690   33.1460  -23.2540 C.3    66  PHE66       0.1639
     75  C         59.0560   34.4570  -23.9060 C.2    66  PHE66       0.2290
     76  O         59.2060   34.6310  -25.1140 O.2    66  PHE66      -0.2864
     77  CB        58.2340   32.3190  -22.8850 C.3    66  PHE66       0.0560
     78  CG        57.3860   31.9350  -24.0650 C.ar   66  PHE66      -0.0200
     79  CD1       57.9220   31.1940  -25.1050 C.ar   66  PHE66      -0.0042
     80  CD2       56.0520   32.3000  -24.1280 C.ar   66  PHE66      -0.0042
     81  CE1       57.1480   30.8350  -26.1920 C.ar   66  PHE66      -0.0003
     82  CE2       55.2710   31.9430  -25.2140 C.ar   66  PHE66      -0.0003
     83  CZ        55.8200   31.2090  -26.2460 C.ar   66  PHE66      -0.0000
     84  N         62.0940   36.2380  -25.5340 N.3    69  LYS69      -0.1245
     85  CA        62.4340   35.5700  -26.7780 C.3    69  LYS69       0.1561
     86  C         61.3880   35.9000  -27.8440 C.2    69  LYS69       0.2260
     87  O         61.7400   36.2090  -28.9820 O.2    69  LYS69      -0.2867
     88  CB        62.5450   34.0570  -26.5620 C.3    69  LYS69       0.0271
     89  CG        63.5690   33.3710  -27.4610 C.3    69  LYS69       0.0035
     90  CD        64.9990   33.7040  -27.0300 C.3    69  LYS69       0.0206
     91  CE        66.0350   33.0680  -27.9480 C.3    69  LYS69       0.1093
     92  NZ        67.4320   33.3530  -27.5060 N.3    69  LYS69      -0.1314
     93  N         50.1040   29.0650  -22.1220 N.3   244  GLY244     -0.1210
     94  CA        51.3300   28.9120  -22.8870 C.3   244  GLY244      0.1956
     95  C         52.5270   28.3800  -22.1180 C.2   244  GLY244      0.2612
     96  O         53.6180   28.2590  -22.6790 O.2   244  GLY244     -0.2717
     97  N         52.3340   28.0630  -20.8400 N.am  245  ASP245     -0.1959
     98  CA        53.4140   27.5250  -20.0140 C.3   245  ASP245      0.1840
     99  C         53.4910   26.0110  -20.1780 C.2   245  ASP245      0.2622
    100  O         53.1600   25.2570  -19.2630 O.2   245  ASP245     -0.2715
    101  CB        53.2060   27.8990  -18.5460 C.3   245  ASP245      0.1450
    102  CG        53.1840   29.4020  -18.3270 C.2   245  ASP245      0.3671
    103  OD1       53.8230   30.1270  -19.1170 O.co2 245  ASP245     -0.2456
    104  OD2       52.5350   29.8580  -17.3660 O.co2 245  ASP245     -0.2456
    105  N         53.9340   25.5810  -21.3550 N.am  246  LEU246     -0.1963
    106  CA        53.8260   24.1870  -21.7660 C.3   246  LEU246      0.1728
    107  C         54.7830   23.2600  -21.0310 C.2   246  LEU246      0.2616
    108  O         54.4850   22.0810  -20.8480 O.2   246  LEU246     -0.2715
    109  CB        54.0640   24.0720  -23.2730 C.3   246  LEU246      0.0311
    110  CG        53.2060   24.9680  -24.1700 C.3   246  LEU246      0.0022
    111  CD1       53.3720   24.5710  -25.6300 C.3   246  LEU246      0.0001
    112  CD2       51.7350   24.9010  -23.7720 C.3   246  LEU246      0.0001
    113  N         55.9340   23.7780  -20.6160 N.am  247  LEU247     -0.1963
    114  CA        56.8990   22.9510  -19.9050 C.3   247  LEU247      0.1728
    115  C         56.3390   22.5710  -18.5420 C.2   247  LEU247      0.2616
    116  O         56.3800   21.4050  -18.1550 O.2   247  LEU247     -0.2715
    117  CB        58.2420   23.6690  -19.7620 C.3   247  LEU247      0.0311
    118  CG        58.9750   23.9650  -21.0760 C.3   247  LEU247      0.0022
    119  CD1       60.2170   24.8100  -20.8170 C.3   247  LEU247      0.0001
    120  CD2       59.3410   22.6860  -21.8230 C.3   247  LEU247      0.0001
    121  N         55.8030   23.5540  -17.8260 N.am  248  GLU248     -0.1977
    122  CA        55.1850   23.3040  -16.5300 C.3   248  GLU248      0.1602
    123  C         53.9560   22.4070  -16.6570 C.2   248  GLU248      0.2287
    124  O         53.7440   21.5030  -15.8460 O.2   248  GLU248     -0.2864
    125  CB        54.7920   24.6220  -15.8580 C.3   248  GLU248      0.0415
    126  CG        55.9470   25.5800  -15.6070 C.3   248  GLU248      0.1163
    127  CD        56.1150   26.6110  -16.7100 C.2   248  GLU248      0.3649
    128  OE1       56.0850   26.2310  -17.8990 O.co2 248  GLU248     -0.2457
    129  OE2       56.2620   27.8080  -16.3850 O.co2 248  GLU248     -0.2457
@<TRIPOS>BOND
     1    31    30    2
     2    30    29    1
     3    32    29    1
     4    32    33    1
     5    29    28    1
     6    33    34   ar
     7    33    35   ar
     8    28    25   am
     9    34    36   ar
    10    87    86    2
    11    26    25    2
    12    35    37   ar
    13    25    24    1
    14    19    18    2
    15    23    24    1
    16    36    38   ar
    17    18    17    1
    18    91    92    1
    19    91    90    1
    20    86    85    1
    21    24    27    1
    22    37    38   ar
    23    39    40    1
    24    89    90    1
    25    89    88    1
    26    21    20    1
    27    17    20    1
    28    17    16    1
    29     8     9    1
    30    85    88    1
    31    85    84    1
    32    45    43    1
    33    11    10    2
    34    20    22    1
    35    16    10   am
    36    10     9    1
    37    43    40    1
    38    43    44    1
    39    83    81   ar
    40    83    82   ar
    41     9    12    1
    42    81    79   ar
    43    40    41    1
    44   111   110    1
    45    41    42    2
    46    82    80   ar
    47    76    75    2
    48    79    78   ar
    49    12    13    1
    50    15    13    1
    51    13    14    1
    52    46    47    1
    53   110   112    1
    54   110   109    1
    55    80    78   ar
    56    78    77    1
    57    75    74    1
    58    50    47    1
    59    50    51    1
    60   109   106    1
    61    68    67    2
    62    74    77    1
    63    74    73    1
    64    47    48    1
    65    94    93    1
    66    94    95    1
    67    96    95    2
    68    67    73   am
    69    67    66    1
    70    95    97   am
    71    51    53   ar
    72    51    52   ar
    73   120   118    1
    74    48    49    2
    75   106   105    1
    76   106   107    1
    77    53    55   ar
    78   105    99   am
    79    52    54   ar
    80   118   119    1
    81   118   117    1
    82   107   108    2
    83   107   113   am
    84    66    69    1
    85    66    65    1
    86    97    98    1
    87   113   114    1
    88    55    56   ar
    89    69    70    1
    90    99    98    1
    91    99   100    2
    92    54    56   ar
    93    98   101    1
    94   114   117    1
    95   114   115    1
    96    60    59    2
    97    72    70    1
    98     7     5    1
    99    70    71    1
   100   103   102   ar
   101    64    62    1
   102    59    58    1
   103   101   102    1
   104   115   116    2
   105   115   121   am
   106   102   104   ar
   107     5     6    1
   108     5     2    1
   109    61    58    1
   110    61    62    1
   111    58    57    1
   112   128   127   ar
   113   121   122    1
   114    62    63    1
   115     4     3    2
   116     2     3    1
   117     2     1    1
   118   127   129   ar
   119   127   126    1
   120   123   122    1
   121   123   124    2
   122   122   125    1
   123   125   126    1
