@<TRIPOS>MOLECULE
tmp/5z0bC06.pdb
 150 139 0 0 0
SMALL
GASTEIGER

@<TRIPOS>ATOM
      1  N         15.7350   15.8090  -28.4290 N.3   383  LEU383     -0.1231
      2  CA        16.5170   16.4580  -29.4780 C.3   383  LEU383      0.1693
      3  C         17.4080   15.4370  -30.1800 C.2   383  LEU383      0.2591
      4  O         17.5100   15.4260  -31.4070 O.2   383  LEU383     -0.2718
      5  CB        17.3550   17.5990  -28.8950 C.3   383  LEU383      0.0284
      6  CG        18.2160   18.4080  -29.8680 C.3   383  LEU383      0.0019
      7  CD1       17.3910   19.4850  -30.5580 C.3   383  LEU383      0.0001
      8  CD2       19.3910   19.0310  -29.1330 C.3   383  LEU383      0.0001
      9  N         18.0490   14.5800  -29.3930 N.am  384  ILE384     -0.1980
     10  CA        18.9420   13.5690  -29.9420 C.3   384  ILE384      0.1595
     11  C         18.0970   12.5050  -30.6400 C.2   384  ILE384      0.2287
     12  O         18.4750   12.0160  -31.7020 O.2   384  ILE384     -0.2864
     13  CB        19.8420   12.9420  -28.8520 C.3   384  ILE384      0.0276
     14  CG1       20.8820   13.9660  -28.3920 C.3   384  ILE384      0.0022
     15  CG2       20.5540   11.6920  -29.3780 C.3   384  ILE384      0.0022
     16  CD1       21.6380   13.5730  -27.1400 C.3   384  ILE384      0.0001
     17  N         16.9080   14.0870  -34.1080 N.3   387  ASN387     -0.1225
     18  CA        18.0220   14.3090  -35.0180 C.3   387  ASN387      0.1785
     19  C         18.7460   13.0370  -35.4500 C.2   387  ASN387      0.2597
     20  O         19.2120   12.9460  -36.5850 O.2   387  ASN387     -0.2718
     21  CB        19.0150   15.2730  -34.3720 C.3   387  ASN387      0.1169
     22  CG        18.6220   16.7230  -34.5710 C.2   387  ASN387      0.2627
     23  OD1       18.9750   17.3430  -35.5740 O.2   387  ASN387     -0.2716
     24  ND2       17.8710   17.2670  -33.6190 N.am  387  ASN387     -0.0877
     25  N         18.8460   12.0590  -34.5540 N.am  388  CYS388     -0.1970
     26  CA        19.5060   10.8000  -34.8890 C.3   388  CYS388      0.1712
     27  C         18.6330    9.9730  -35.8250 C.2   388  CYS388      0.2296
     28  O         19.1400    9.2820  -36.7080 O.2   388  CYS388     -0.2864
     29  CB        19.8350    9.9910  -33.6320 C.3   388  CYS388      0.0983
     30  SG        21.3620   10.5000  -32.8070 S.3   388  CYS388     -0.0798
     31  N         22.7900   14.6950  -43.7820 N.3   399  PHE399     -0.1241
     32  CA        22.5750   15.2180  -42.4420 C.3   399  PHE399      0.1605
     33  C         23.2490   16.5790  -42.2930 C.2   399  PHE399      0.2264
     34  O         22.6700   17.5050  -41.7230 O.2   399  PHE399     -0.2867
     35  CB        23.0950   14.2230  -41.4010 C.3   399  PHE399      0.0534
     36  CG        22.7810   14.6010  -39.9830 C.ar  399  PHE399     -0.0203
     37  CD1       21.4810   14.8900  -39.5970 C.ar  399  PHE399     -0.0042
     38  CD2       23.7800   14.6270  -39.0270 C.ar  399  PHE399     -0.0042
     39  CE1       21.1910   15.2260  -38.2900 C.ar  399  PHE399     -0.0003
     40  CE2       23.4960   14.9590  -37.7190 C.ar  399  PHE399     -0.0003
     41  CZ        22.2000   15.2570  -37.3490 C.ar  399  PHE399     -0.0000
     42  N         21.4770   20.2530  -41.6070 N.3   403  LEU403     -0.1245
     43  CA        21.9330   21.1700  -40.5670 C.3   403  LEU403      0.1561
     44  C         22.4500   22.4580  -41.1790 C.2   403  LEU403      0.2260
     45  O         22.2840   23.5420  -40.6220 O.2   403  LEU403     -0.2867
     46  CB        23.0190   20.5080  -39.7220 C.3   403  LEU403      0.0270
     47  CG        22.5240   19.3000  -38.9270 C.3   403  LEU403      0.0019
     48  CD1       23.6900   18.4920  -38.3960 C.3   403  LEU403      0.0001
     49  CD2       21.6230   19.7470  -37.7840 C.3   403  LEU403      0.0001
     50  N         19.5360   24.5850  -41.8090 N.3   406  ARG406     -0.1231
     51  CA        18.9270   25.0220  -40.5550 C.3   406  ARG406      0.1694
     52  C         19.6330   26.2030  -39.8940 C.2   406  ARG406      0.2592
     53  O         18.9890   27.1340  -39.4090 O.2   406  ARG406     -0.2718
     54  CB        18.7630   23.8060  -39.6400 C.3   406  ARG406      0.0321
     55  CG        18.0730   24.1110  -38.3210 C.3   406  ARG406      0.0489
     56  CD        17.9690   22.8680  -37.4520 C.3   406  ARG406      0.2205
     57  NE        17.4350   21.7270  -38.1900 N.pl3 406  ARG406     -0.0865
     58  CZ        17.6890   20.4580  -37.8910 C.cat 406  ARG406      0.5346
     59  NH1       18.4730   20.1610  -36.8640 N.pl3 406  ARG406      0.1354
     60  NH2       17.1590   19.4840  -38.6180 N.pl3 406  ARG406      0.1354
     61  N         20.9600   26.1550  -39.8780 N.am  407  TYR407     -0.1976
     62  CA        21.7760   27.2080  -39.2780 C.3   407  TYR407      0.1639
     63  C         22.0120   28.4390  -40.1430 C.2   407  TYR407      0.2290
     64  O         22.1680   29.5430  -39.6200 O.2   407  TYR407     -0.2864
     65  CB        23.1230   26.6230  -38.8530 C.3   407  TYR407      0.0560
     66  CG        23.1070   26.0790  -37.4460 C.ar  407  TYR407     -0.0198
     67  CD1       22.5050   24.8620  -37.1560 C.ar  407  TYR407     -0.0009
     68  CD2       23.6470   26.8100  -36.3960 C.ar  407  TYR407     -0.0009
     69  CE1       22.4770   24.3700  -35.8660 C.ar  407  TYR407      0.0417
     70  CE2       23.6220   26.3280  -35.1030 C.ar  407  TYR407      0.0417
     71  CZ        23.0350   25.1080  -34.8430 C.ar  407  TYR407      0.1957
     72  OH        23.0040   24.6250  -33.5540 O.3   407  TYR407     -0.2866
     73  N         19.2100   30.5870  -39.3240 N.3   410  LYS410     -0.1245
     74  CA        19.2600   31.1470  -37.9760 C.3   410  LYS410      0.1561
     75  C         20.1490   32.3850  -37.9170 C.2   410  LYS410      0.2260
     76  O         19.7430   33.4210  -37.3920 O.2   410  LYS410     -0.2867
     77  CB        19.7630   30.1080  -36.9670 C.3   410  LYS410      0.0271
     78  CG        18.7210   29.0960  -36.5000 C.3   410  LYS410      0.0035
     79  CD        19.3950   27.8520  -35.9350 C.3   410  LYS410      0.0206
     80  CE        18.4000   26.8710  -35.3290 C.3   410  LYS410      0.1093
     81  NZ        17.8990   27.3050  -33.9940 N.3   410  LYS410     -0.1314
     82  N         28.9000   19.8020  -37.0400 N.3   426  LEU426     -0.1245
     83  CA        27.6700   19.4460  -36.3420 C.3   426  LEU426      0.1561
     84  C         27.1350   18.1110  -36.8470 C.2   426  LEU426      0.2260
     85  O         26.6700   17.2890  -36.0630 O.2   426  LEU426     -0.2867
     86  CB        26.6120   20.5430  -36.5090 C.3   426  LEU426      0.0270
     87  CG        26.8370   21.8280  -35.7060 C.3   426  LEU426      0.0019
     88  CD1       25.8120   22.8880  -36.0760 C.3   426  LEU426      0.0001
     89  CD2       26.7820   21.5460  -34.2120 C.3   426  LEU426      0.0001
     90  N         28.8310   14.8710  -35.4920 N.3   429  VAL429     -0.1231
     91  CA        28.3960   14.4250  -34.1680 C.3   429  VAL429      0.1692
     92  C         27.3750   13.2990  -34.2750 C.2   429  VAL429      0.2592
     93  O         27.3930   12.3530  -33.4850 O.2   429  VAL429     -0.2718
     94  CB        27.7830   15.5870  -33.3510 C.3   429  VAL429      0.0266
     95  CG1       27.1740   15.0810  -32.0390 C.3   429  VAL429      0.0020
     96  CG2       28.8300   16.6480  -33.0740 C.3   429  VAL429      0.0020
     97  N         26.4910   13.4060  -35.2590 N.am  430  GLY430     -0.1957
     98  CA        25.5150   12.3670  -35.5240 C.3   430  GLY430      0.1869
     99  C         26.1970   11.0520  -35.8380 C.2   430  GLY430      0.2309
    100  O         25.8380   10.0050  -35.2990 O.2   430  GLY430     -0.2863
    101  N         28.0920    9.4780  -32.5370 N.3   433  CYS433     -0.1221
    102  CA        27.4030    9.2520  -31.2630 C.3   433  CYS433      0.1808
    103  C         26.0860    8.4770  -31.3470 C.2   433  CYS433      0.2601
    104  O         25.7170    7.7980  -30.3880 O.2   433  CYS433     -0.2717
    105  CB        27.1140   10.5940  -30.5800 C.3   433  CYS433      0.0970
    106  SG        28.5640   11.5930  -30.2040 S.3   433  CYS433     -0.0800
    107  N         25.3770    8.5690  -32.4670 N.am  434  CYS434     -0.1970
    108  CA        24.0290    8.0060  -32.5410 C.3   434  CYS434      0.1712
    109  C         23.9820    6.4810  -32.4020 C.2   434  CYS434      0.2296
    110  O         22.9840    5.9280  -31.9390 O.2   434  CYS434     -0.2864
    111  CB        23.3780    8.4040  -33.8680 C.3   434  CYS434      0.0983
    112  SG        22.9670   10.1570  -34.0030 S.3   434  CYS434     -0.0798
    113  N         26.7410   12.8180  -27.4890 N.3   445  ALA445     -0.1245
    114  CA        26.1080   13.7740  -28.4000 C.3   445  ALA445      0.1562
    115  C         26.0880   15.2340  -27.9240 C.2   445  ALA445      0.2260
    116  O         26.5470   16.1190  -28.6470 O.2   445  ALA445     -0.2867
    117  CB        24.6920   13.3220  -28.6910 C.3   445  ALA445      0.0290
    118  N         28.3670   18.5270  -29.1130 N.3   449  LEU449     -0.1245
    119  CA        27.7280   19.7150  -29.6680 C.3   449  LEU449      0.1561
    120  C         28.3050   20.9680  -29.0220 C.2   449  LEU449      0.2260
    121  O         28.5170   21.9820  -29.6870 O.2   449  LEU449     -0.2867
    122  CB        26.2080   19.6740  -29.4720 C.3   449  LEU449      0.0270
    123  CG        25.3920   18.7820  -30.4140 C.3   449  LEU449      0.0019
    124  CD1       23.9240   18.8100  -30.0120 C.3   449  LEU449      0.0001
    125  CD2       25.5540   19.2020  -31.8730 C.3   449  LEU449      0.0001
    126  N         30.0460   24.0350  -30.9800 N.3   453  LEU453     -0.1245
    127  CA        29.5300   25.3870  -30.8130 C.3   453  LEU453      0.1561
    128  C         30.6000   26.3250  -30.2600 C.2   453  LEU453      0.2260
    129  O         30.5820   27.5260  -30.5400 O.2   453  LEU453     -0.2867
    130  CB        28.3010   25.3810  -29.9040 C.3   453  LEU453      0.0270
    131  CG        27.0530   24.7170  -30.4940 C.3   453  LEU453      0.0019
    132  CD1       25.9810   24.6090  -29.4340 C.3   453  LEU453      0.0001
    133  CD2       26.5280   25.4830  -31.6970 C.3   453  LEU453      0.0001
    134  N         24.0430   25.3750  -26.0950 N.3   481  ARG481     -0.1245
    135  CA        23.4080   24.4710  -27.0420 C.3   481  ARG481      0.1563
    136  C         21.9010   24.7460  -27.1710 C.2   481  ARG481      0.2260
    137  O         21.4160   24.9620  -28.2810 O.2   481  ARG481     -0.2867
    138  CB        23.6940   23.0180  -26.6310 C.3   481  ARG481      0.0307
    139  CG        23.4530   21.9770  -27.7190 C.3   481  ARG481      0.0489
    140  CD        21.9850   21.6070  -27.8610 C.3   481  ARG481      0.2205
    141  NE        21.4220   21.1230  -26.6010 N.pl3 481  ARG481     -0.0865
    142  CZ        20.1410   21.2150  -26.2560 C.cat 481  ARG481      0.5346
    143  NH1       19.2620   21.7940  -27.0640 N.pl3 481  ARG481      0.1354
    144  NH2       19.7370   20.7370  -25.0870 N.pl3 481  ARG481      0.1354
    145  N         19.8220   26.1280  -30.3330 N.3   485  SER485     -0.1217
    146  CA        18.7000   25.3360  -30.8240 C.3   485  SER485      0.1889
    147  C         17.4310   26.1810  -30.9120 C.2   485  SER485      0.2288
    148  O         16.6010   25.9830  -31.7990 O.2   485  SER485     -0.2866
    149  CB        18.4570   24.1270  -29.9200 C.3   485  SER485      0.2089
    150  OG        19.4810   23.1610  -30.0720 O.3   485  SER485     -0.2183
@<TRIPOS>BOND
     1    31    32    1
     2    32    33    1
     3    32    35    1
     4    33    34    2
     5    50    51    1
     6    42    43    1
     7    35    36    1
     8    44    45    2
     9    44    43    1
    10    43    46    1
    11    51    52    1
    12    51    54    1
    13    63    64    2
    14    63    62    1
    15    36    37   ar
    16    36    38   ar
    17    52    61   am
    18    52    53    2
    19    61    62    1
    20    46    47    1
    21    54    55    1
    22    37    39   ar
    23    73    74    1
    24    62    65    1
    25    38    40   ar
    26    47    48    1
    27    47    49    1
    28    65    66    1
    29    60    58    1
    30    55    56    1
    31    39    41   ar
    32    57    58    2
    33    57    56    1
    34    74    75    1
    35    74    77    1
    36    75    76    2
    37    58    59    1
    38    40    41   ar
    39    66    67   ar
    40    66    68   ar
    41    67    69   ar
    42    82    83    1
    43    77    78    1
    44    84    83    1
    45    84    85    2
    46    28    27    2
    47    20    19    2
    48    86    83    1
    49    86    87    1
    50    78    79    1
    51    68    70   ar
    52    88    87    1
    53    79    80    1
    54    69    71   ar
    55    99    98    1
    56    99   100    2
    57    27    26    1
    58    87    89    1
    59    23    22    2
    60    98    97    1
    61    90    91    1
    62    19    18    1
    63    19    25   am
    64    80    81    1
    65    97    92   am
    66    70    71   ar
    67    18    21    1
    68    18    17    1
    69    26    25    1
    70    26    29    1
    71    71    72    1
    72    22    21    1
    73    22    24   am
    74    92    91    1
    75    92    93    2
    76    91    94    1
    77   112   111    1
    78   112    30    1
    79   111   108    1
    80    29    30    1
    81    94    96    1
    82    94    95    1
    83   108   107    1
    84   108   109    1
    85   101   102    1
    86   107   103   am
    87   109   110    2
    88   125   123    1
    89   148   147    2
    90    12    11    2
    91   133   131    1
    92     4     3    2
    93   103   102    1
    94   103   104    2
    95   102   105    1
    96   126   127    1
    97   147   146    1
    98   146   145    1
    99   146   149    1
   100   127   128    1
   101   127   130    1
   102    11    10    1
   103   105   106    1
   104     7     6    1
   105   129   128    2
   106   131   130    1
   107   131   132    1
   108   123   124    1
   109   123   122    1
   110     3     2    1
   111     3     9   am
   112   150   149    1
   113    10     9    1
   114    10    13    1
   115     6     8    1
   116     6     5    1
   117   121   120    2
   118   119   122    1
   119   119   118    1
   120   119   120    1
   121     2     5    1
   122     2     1    1
   123    15    13    1
   124    13    14    1
   125   117   114    1
   126   116   115    2
   127   114   115    1
   128   114   113    1
   129    14    16    1
   130   137   136    2
   131   140   139    1
   132   140   141    1
   133   139   138    1
   134   136   135    1
   135   143   142    1
   136   135   138    1
   137   135   134    1
   138   141   142    2
   139   142   144    1
