@<TRIPOS>MOLECULE
tmp/5z0bC00.pdb
 142 135 0 0 0
SMALL
GASTEIGER

@<TRIPOS>ATOM
      1  N         38.2880   19.9060  -28.3570 N.3   191  LYS191     -0.1245
      2  CA        37.9460   19.7300  -26.9430 C.3   191  LYS191      0.1561
      3  C         38.8060   20.6080  -26.0440 C.2   191  LYS191      0.2260
      4  O         38.2990   21.2630  -25.1360 O.2   191  LYS191     -0.2867
      5  CB        38.0850   18.2710  -26.5000 C.3   191  LYS191      0.0271
      6  CG        37.0250   17.3450  -27.0640 C.3   191  LYS191      0.0035
      7  CD        37.1720   15.9540  -26.4850 C.3   191  LYS191      0.0206
      8  CE        36.1470   15.0020  -27.0650 C.3   191  LYS191      0.1093
      9  NZ        36.2310   13.6600  -26.4360 N.3   191  LYS191     -0.1314
     10  N         37.8730   24.0980  -25.8740 N.3   194  LEU194     -0.1231
     11  CA        36.7420   24.3530  -24.9920 C.3   194  LEU194      0.1693
     12  C         37.1910   24.3650  -23.5400 C.2   194  LEU194      0.2591
     13  O         36.6700   25.1290  -22.7290 O.2   194  LEU194     -0.2718
     14  CB        35.6430   23.3070  -25.1840 C.3   194  LEU194      0.0284
     15  CG        34.4580   23.4370  -24.2170 C.3   194  LEU194      0.0019
     16  CD1       33.8750   24.8510  -24.2200 C.3   194  LEU194      0.0001
     17  CD2       33.3760   22.4220  -24.5460 C.3   194  LEU194      0.0001
     18  N         38.1470   23.5020  -23.2120 N.am  195  LYS195     -0.1980
     19  CA        38.7160   23.4860  -21.8730 C.3   195  LYS195      0.1596
     20  C         39.3130   24.8510  -21.5510 C.2   195  LYS195      0.2287
     21  O         39.0560   25.4110  -20.4860 O.2   195  LYS195     -0.2864
     22  CB        39.7740   22.3850  -21.7430 C.3   195  LYS195      0.0298
     23  CG        39.1890   20.9780  -21.8030 C.3   195  LYS195      0.0038
     24  CD        40.1880   19.9090  -21.4060 C.3   195  LYS195      0.0206
     25  CE        39.5440   18.5280  -21.4180 C.3   195  LYS195      0.1093
     26  NZ        40.5550   17.4340  -21.4400 N.3   195  LYS195     -0.1314
     27  N         36.4530   27.5510  -21.4160 N.3   198  SER198     -0.1217
     28  CA        35.6750   27.4250  -20.1880 C.3   198  SER198      0.1889
     29  C         36.4270   28.0260  -19.0020 C.2   198  SER198      0.2288
     30  O         35.8730   28.7990  -18.2200 O.2   198  SER198     -0.2866
     31  CB        35.3510   25.9560  -19.9060 C.3   198  SER198      0.2089
     32  OG        36.4970   25.2600  -19.4470 O.3   198  SER198     -0.2183
     33  N         35.0450   25.6550  -14.8050 N.3   207  PHE207     -0.1241
     34  CA        35.9620   24.6000  -15.2140 C.3   207  PHE207      0.1605
     35  C         35.9580   23.4550  -14.2030 C.2   207  PHE207      0.2264
     36  O         35.9080   22.2830  -14.5760 O.2   207  PHE207     -0.2867
     37  CB        37.3720   25.1770  -15.3810 C.3   207  PHE207      0.0534
     38  CG        38.4230   24.1560  -15.7190 C.ar  207  PHE207     -0.0203
     39  CD1       39.0770   23.4490  -14.7210 C.ar  207  PHE207     -0.0042
     40  CD2       38.7590   23.9060  -17.0390 C.ar  207  PHE207     -0.0042
     41  CE1       40.0460   22.5150  -15.0370 C.ar  207  PHE207     -0.0003
     42  CE2       39.7280   22.9730  -17.3600 C.ar  207  PHE207     -0.0003
     43  CZ        40.3710   22.2770  -16.3570 C.ar  207  PHE207     -0.0000
     44  N         32.6570   21.3670  -14.1290 N.3   210  TRP210     -0.1227
     45  CA        32.6850   20.4670  -15.2730 C.3   210  TRP210      0.1737
     46  C         33.5930   19.2690  -14.9820 C.2   210  TRP210      0.2595
     47  O         33.2420   18.1260  -15.2700 O.2   210  TRP210     -0.2718
     48  CB        33.1670   21.2150  -16.5180 C.3   210  TRP210      0.0564
     49  CG        32.8600   20.5240  -17.8130 C.ar  210  TRP210      0.0003
     50  CD1       33.2030   19.2530  -18.1690 C.ar  210  TRP210      0.0946
     51  CD2       32.1680   21.0850  -18.9370 C.ar  210  TRP210      0.0152
     52  NE1       32.7530   18.9820  -19.4380 N.ar  210  TRP210     -0.2442
     53  CE2       32.1140   20.0840  -19.9290 C.ar  210  TRP210      0.0810
     54  CE3       31.5870   22.3280  -19.1970 C.ar  210  TRP210      0.0012
     55  CZ2       31.5070   20.3000  -21.1680 C.ar  210  TRP210      0.0191
     56  CZ3       30.9790   22.5360  -20.4250 C.ar  210  TRP210      0.0001
     57  CH2       30.9440   21.5250  -21.3950 C.ar  210  TRP210      0.0015
     58  N         34.7590   19.5430  -14.4020 N.am  211  ALA211     -0.1980
     59  CA        35.7250   18.4980  -14.0700 C.3   211  ALA211      0.1597
     60  C         35.1820   17.5380  -13.0130 C.2   211  ALA211      0.2287
     61  O         35.3620   16.3240  -13.1190 O.2   211  ALA211     -0.2864
     62  CB        37.0330   19.1200  -13.5940 C.3   211  ALA211      0.0319
     63  N         32.5160   15.1970  -14.6840 N.3   214  ARG214     -0.1231
     64  CA        33.0820   14.1810  -15.5650 C.3   214  ARG214      0.1694
     65  C         33.9020   13.1380  -14.8070 C.2   214  ARG214      0.2591
     66  O         33.8070   11.9450  -15.0950 O.2   214  ARG214     -0.2718
     67  CB        33.9490   14.8390  -16.6400 C.3   214  ARG214      0.0321
     68  CG        34.4270   13.8900  -17.7330 C.3   214  ARG214      0.0489
     69  CD        33.2660   13.3550  -18.5690 C.3   214  ARG214      0.2205
     70  NE        33.6720   12.2570  -19.4440 N.pl3 214  ARG214     -0.0865
     71  CZ        33.6620   10.9700  -19.1040 C.cat 214  ARG214      0.5346
     72  NH1       33.2690   10.5910  -17.8940 N.pl3 214  ARG214      0.1354
     73  NH2       34.0490   10.0550  -19.9810 N.pl3 214  ARG214      0.1354
     74  N         34.7040   13.5790  -13.8430 N.am  215  LEU215     -0.1980
     75  CA        35.5230   12.6530  -13.0690 C.3   215  LEU215      0.1596
     76  C         34.6760   11.8160  -12.1070 C.2   215  LEU215      0.2287
     77  O         35.0210   10.6730  -11.8070 O.2   215  LEU215     -0.2864
     78  CB        36.6110   13.4090  -12.2990 C.3   215  LEU215      0.0297
     79  CG        37.7770   13.9970  -13.1050 C.3   215  LEU215      0.0022
     80  CD1       38.7760   14.6420  -12.1760 C.3   215  LEU215      0.0001
     81  CD2       38.4770   12.9260  -13.9300 C.3   215  LEU215      0.0001
     82  N         33.3870    9.0220  -14.1080 N.3   218  ARG218     -0.1245
     83  CA        34.4410    8.1090  -14.5290 C.3   218  ARG218      0.1563
     84  C         35.0200    7.3230  -13.3630 C.2   218  ARG218      0.2260
     85  O         35.4490    6.1770  -13.5290 O.2   218  ARG218     -0.2867
     86  CB        35.5460    8.8940  -15.2430 C.3   218  ARG218      0.0307
     87  CG        36.5720    8.0260  -15.9480 C.3   218  ARG218      0.0489
     88  CD        37.7330    8.8520  -16.4920 C.3   218  ARG218      0.2205
     89  NE        37.2990    9.9550  -17.3460 N.pl3 218  ARG218     -0.0865
     90  CZ        37.0430    9.8370  -18.6470 C.cat 218  ARG218      0.5346
     91  NH1       37.1520    8.6590  -19.2500 N.pl3 218  ARG218      0.1354
     92  NH2       36.6660   10.8950  -19.3490 N.pl3 218  ARG218      0.1354
     93  N         44.1700   19.2850  -11.9910 N.3   234  LEU234     -0.1245
     94  CA        43.8530   19.4890  -13.4010 C.3   234  LEU234      0.1561
     95  C         43.7030   20.9690  -13.7190 C.2   234  LEU234      0.2260
     96  O         44.0910   21.4190  -14.7950 O.2   234  LEU234     -0.2867
     97  CB        42.5660   18.7620  -13.7900 C.3   234  LEU234      0.0270
     98  CG        42.6560   17.2690  -14.1020 C.3   234  LEU234      0.0019
     99  CD1       41.2480   16.7010  -14.2000 C.3   234  LEU234      0.0001
    100  CD2       43.4440   16.9980  -15.3740 C.3   234  LEU234      0.0001
    101  N         45.8470   22.7700  -16.6650 N.3   238  HIS238     -0.1241
    102  CA        45.2310   23.4070  -17.8190 C.3   238  HIS238      0.1621
    103  C         45.3540   24.9320  -17.7960 C.2   238  HIS238      0.2264
    104  O         45.4210   25.5610  -18.8510 O.2   238  HIS238     -0.2867
    105  CB        43.7730   22.9700  -17.9280 C.3   238  HIS238      0.0745
    106  CG        43.6200   21.5720  -18.4380 C.ar  238  HIS238      0.0817
    107  ND1       43.7570   21.2590  -19.7730 N.ar  238  HIS238     -0.2268
    108  CD2       43.3680   20.4040  -17.8020 C.ar  238  HIS238      0.1154
    109  CE1       43.5910   19.9590  -19.9370 C.ar  238  HIS238      0.1986
    110  NE2       43.3540   19.4160  -18.7580 N.ar  238  HIS238     -0.2212
    111  N         43.0340    9.5320  -19.6080 N.3   287  ALA287     -0.1245
    112  CA        42.1000   10.5670  -20.0360 C.3   287  ALA287      0.1562
    113  C         40.8650    9.9820  -20.7220 C.2   287  ALA287      0.2260
    114  O         39.8070   10.6110  -20.7360 O.2   287  ALA287     -0.2867
    115  CB        42.8010   11.5560  -20.9640 C.3   287  ALA287      0.0290
    116  N         27.6180   16.8000  -25.3450 N.3   447  ASP447     -0.1225
    117  CA        28.9070   17.3590  -24.9630 C.3   447  ASP447      0.1805
    118  C         29.7470   17.6400  -26.2120 C.2   447  ASP447      0.2597
    119  O         30.5170   18.5960  -26.2290 O.2   447  ASP447     -0.2718
    120  CB        29.6490   16.4240  -24.0020 C.3   447  ASP447      0.1424
    121  CG        28.9730   16.3280  -22.6400 C.2   447  ASP447      0.3668
    122  OD1       28.2920   17.2970  -22.2440 O.co2 447  ASP447     -0.2456
    123  OD2       29.1170   15.2860  -21.9650 O.co2 447  ASP447     -0.2456
    124  N         29.5960   16.8220  -27.2540 N.am  448  TYR448     -0.1976
    125  CA        30.2520   17.1010  -28.5350 C.3   448  TYR448      0.1639
    126  C         29.6790   18.3400  -29.2160 C.2   448  TYR448      0.2290
    127  O         30.4170   19.1060  -29.8380 O.2   448  TYR448     -0.2864
    128  CB        30.1350   15.9130  -29.4940 C.3   448  TYR448      0.0560
    129  CG        31.3840   15.0640  -29.5920 C.ar  448  TYR448     -0.0198
    130  CD1       31.6470   14.0450  -28.6820 C.ar  448  TYR448     -0.0009
    131  CD2       32.3020   15.2860  -30.6070 C.ar  448  TYR448     -0.0009
    132  CE1       32.7940   13.2750  -28.7870 C.ar  448  TYR448      0.0417
    133  CE2       33.4460   14.5260  -30.7190 C.ar  448  TYR448      0.0417
    134  CZ        33.6900   13.5220  -29.8080 C.ar  448  TYR448      0.1957
    135  OH        34.8330   12.7630  -29.9200 O.3   448  TYR448     -0.2866
    136  N         31.3020   21.2920  -27.8390 N.3   451  VAL451     -0.1245
    137  CA        32.6260   21.4680  -28.4290 C.3   451  VAL451      0.1561
    138  C         32.5400   22.1710  -29.7860 C.2   451  VAL451      0.2260
    139  O         33.3130   23.0910  -30.0590 O.2   451  VAL451     -0.2867
    140  CB        33.3470   20.1080  -28.5790 C.3   451  VAL451      0.0252
    141  CG1       34.6600   20.2430  -29.3460 C.3   451  VAL451      0.0019
    142  CG2       33.6180   19.5150  -27.2110 C.3   451  VAL451      0.0019
@<TRIPOS>BOND
     1   133   131   ar
     2   133   134   ar
     3   131   129   ar
     4   139   138    2
     5   135   134    1
     6   127   126    2
     7   134   132   ar
     8   138   137    1
     9   129   128    1
    10   129   130   ar
    11   128   125    1
    12   141   140    1
    13   126   125    1
    14   132   130   ar
    15   140   137    1
    16   140   142    1
    17   125   124    1
    18   137   136    1
    19     1     2    1
    20   124   118   am
    21     8     7    1
    22     8     9    1
    23     6     5    1
    24     6     7    1
    25     2     5    1
    26     2     3    1
    27   119   118    2
    28   118   117    1
    29     3     4    2
    30    10    11    1
    31   116   117    1
    32    14    11    1
    33    14    15    1
    34    11    12    1
    35   117   120    1
    36    17    15    1
    37    16    15    1
    38   120   121    1
    39    12    18   am
    40    12    13    2
    41    18    19    1
    42   121   122   ar
    43   121   123   ar
    44    19    22    1
    45    19    20    1
    46    23    22    1
    47    23    24    1
    48    20    21    2
    49    26    25    1
    50    25    24    1
    51    27    28    1
    52    57    55   ar
    53    57    56   ar
    54    55    53   ar
    55   115   112    1
    56   114   113    2
    57   113   112    1
    58    56    54   ar
    59    28    31    1
    60    28    29    1
    61   112   111    1
    62    73    71    1
    63   109   107   ar
    64   109   110   ar
    65    53    52   ar
    66    53    51   ar
    67    31    32    1
    68   107   106   ar
    69    70    71    2
    70    70    69    1
    71    52    50   ar
    72    92    90    1
    73    91    90    1
    74    54    51   ar
    75    71    72    1
    76    29    30    2
    77    51    49   ar
    78   104   103    2
    79   110   108   ar
    80    90    89    2
    81    69    68    1
    82   106   105    1
    83   106   108   ar
    84    50    49   ar
    85   105   102    1
    86   102   103    1
    87   102   101    1
    88    49    48    1
    89    68    67    1
    90    42    40   ar
    91    42    43   ar
    92    89    88    1
    93    40    38   ar
    94    67    64    1
    95    48    45    1
    96    88    87    1
    97    43    41   ar
    98    87    86    1
    99    38    37    1
   100    38    39   ar
   101    64    65    1
   102    64    63    1
   103    37    34    1
   104   100    98    1
   105    45    46    1
   106    45    44    1
   107    47    46    2
   108    86    83    1
   109    34    33    1
   110    34    35    1
   111    66    65    2
   112    41    39   ar
   113    46    58   am
   114    65    74   am
   115    96    95    2
   116    36    35    2
   117    83    82    1
   118    83    84    1
   119    58    59    1
   120    99    98    1
   121    98    97    1
   122    59    62    1
   123    59    60    1
   124    81    79    1
   125    74    75    1
   126    97    94    1
   127    95    94    1
   128    85    84    2
   129    94    93    1
   130    61    60    2
   131    79    78    1
   132    79    80    1
   133    75    78    1
   134    75    76    1
   135    76    77    2
