@<TRIPOS>MOLECULE
tmp/5z0bC04.pdb
 112 107 0 0 0
SMALL
GASTEIGER

@<TRIPOS>ATOM
      1  N         48.4440   21.6970  -46.4020 N.3   111  LEU111     -0.1245
      2  CA        49.5690   20.7900  -46.5610 C.3   111  LEU111      0.1561
      3  C         49.3690   19.9290  -47.7980 C.2   111  LEU111      0.2260
      4  O         48.4220   19.1440  -47.8610 O.2   111  LEU111     -0.2867
      5  CB        49.7270   19.9020  -45.3240 C.3   111  LEU111      0.0270
      6  CG        50.0990   20.5870  -44.0100 C.3   111  LEU111      0.0019
      7  CD1       49.7590   19.6910  -42.8320 C.3   111  LEU111      0.0001
      8  CD2       51.5830   20.9200  -44.0050 C.3   111  LEU111      0.0001
      9  N         56.2650   17.8190  -38.4530 N.3   134  TYR134     -0.1241
     10  CA        54.9280   17.4090  -38.0430 C.3   134  TYR134      0.1605
     11  C         54.4100   18.2570  -36.8780 C.2   134  TYR134      0.2264
     12  O         53.3090   18.7980  -36.9370 O.2   134  TYR134     -0.2867
     13  CB        54.9290   15.9270  -37.6630 C.3   134  TYR134      0.0534
     14  CG        53.6650   15.4740  -36.9810 C.ar  134  TYR134     -0.0201
     15  CD1       52.5390   15.1300  -37.7150 C.ar  134  TYR134     -0.0009
     16  CD2       53.5990   15.3840  -35.5980 C.ar  134  TYR134     -0.0009
     17  CE1       51.3810   14.7140  -37.0890 C.ar  134  TYR134      0.0417
     18  CE2       52.4480   14.9720  -34.9650 C.ar  134  TYR134      0.0417
     19  CZ        51.3420   14.6380  -35.7140 C.ar  134  TYR134      0.1957
     20  OH        50.1940   14.2240  -35.0810 O.3   134  TYR134     -0.2866
     21  N         51.2390   21.1190  -37.2630 N.3   138  ILE138     -0.1245
     22  CA        50.0390   20.9100  -36.4590 C.3   138  ILE138      0.1561
     23  C         49.8700   22.0430  -35.4530 C.2   138  ILE138      0.2260
     24  O         48.7760   22.5820  -35.2950 O.2   138  ILE138     -0.2867
     25  CB        50.0800   19.5630  -35.7020 C.3   138  ILE138      0.0252
     26  CG1       50.1020   18.3750  -36.6710 C.3   138  ILE138      0.0019
     27  CG2       48.8880   19.4250  -34.7640 C.3   138  ILE138      0.0019
     28  CD1       49.0030   18.3720  -37.7090 C.3   138  ILE138      0.0001
     29  N         46.8440   24.6570  -34.8890 N.3   142  HIS142     -0.1241
     30  CA        46.0320   24.3920  -33.7030 C.3   142  HIS142      0.1621
     31  C         46.7230   24.9850  -32.4730 C.2   142  HIS142      0.2264
     32  O         47.3400   24.2600  -31.6890 O.2   142  HIS142     -0.2867
     33  CB        45.8130   22.8860  -33.5290 C.3   142  HIS142      0.0745
     34  CG        45.1040   22.2440  -34.6800 C.ar  142  HIS142      0.0817
     35  ND1       43.7380   22.0560  -34.7020 N.ar  142  HIS142     -0.2268
     36  CD2       45.5690   21.7630  -35.8570 C.ar  142  HIS142      0.1154
     37  CE1       43.3950   21.4790  -35.8400 C.ar  142  HIS142      0.1986
     38  NE2       44.4860   21.2920  -36.5590 N.ar  142  HIS142     -0.2212
     39  N         46.1290   23.3150  -29.0810 N.3   145  PHE145     -0.1241
     40  CA        46.2650   21.8630  -28.9840 C.3   145  PHE145      0.1605
     41  C         46.9730   21.5010  -27.6750 C.2   145  PHE145      0.2264
     42  O         48.0160   22.0720  -27.3490 O.2   145  PHE145     -0.2867
     43  CB        47.0330   21.3120  -30.1920 C.3   145  PHE145      0.0534
     44  CG        46.7360   19.8670  -30.4970 C.ar  145  PHE145     -0.0203
     45  CD1       47.1850   18.8590  -29.6620 C.ar  145  PHE145     -0.0042
     46  CD2       45.9860   19.5210  -31.6100 C.ar  145  PHE145     -0.0042
     47  CE1       46.9050   17.5340  -29.9370 C.ar  145  PHE145     -0.0003
     48  CE2       45.7030   18.1970  -31.8900 C.ar  145  PHE145     -0.0003
     49  CZ        46.1640   17.2030  -31.0520 C.ar  145  PHE145     -0.0000
     50  N         50.4180   12.1890  -29.9840 N.3   153  PHE153     -0.1241
     51  CA        50.0490   12.0550  -31.3890 C.3   153  PHE153      0.1605
     52  C         51.2820   11.9120  -32.2790 C.2   153  PHE153      0.2264
     53  O         51.2690   11.1470  -33.2420 O.2   153  PHE153     -0.2867
     54  CB        49.2020   13.2520  -31.8340 C.3   153  PHE153      0.0534
     55  CG        47.7270   13.0770  -31.5870 C.ar  153  PHE153     -0.0203
     56  CD1       46.9360   12.4200  -32.5130 C.ar  153  PHE153     -0.0042
     57  CD2       47.1360   13.5440  -30.4250 C.ar  153  PHE153     -0.0042
     58  CE1       45.5810   12.2490  -32.2960 C.ar  153  PHE153     -0.0003
     59  CE2       45.7820   13.3730  -30.2000 C.ar  153  PHE153     -0.0003
     60  CZ        45.0050   12.7200  -31.1360 C.ar  153  PHE153     -0.0000
     61  N         52.0730    8.9920  -34.7930 N.3   157  TYR157     -0.1241
     62  CA        52.4070    9.3490  -36.1670 C.3   157  TYR157      0.1605
     63  C         53.6600    8.5980  -36.6060 C.2   157  TYR157      0.2264
     64  O         53.6960    7.9950  -37.6800 O.2   157  TYR157     -0.2867
     65  CB        52.6080   10.8630  -36.2620 C.3   157  TYR157      0.0534
     66  CG        52.8760   11.4220  -37.6410 C.ar  157  TYR157     -0.0201
     67  CD1       51.8620   11.5180  -38.5860 C.ar  157  TYR157     -0.0009
     68  CD2       54.1360   11.8950  -37.9840 C.ar  157  TYR157     -0.0009
     69  CE1       52.1030   12.0480  -39.8420 C.ar  157  TYR157      0.0417
     70  CE2       54.3860   12.4260  -39.2350 C.ar  157  TYR157      0.0417
     71  CZ        53.3680   12.5010  -40.1590 C.ar  157  TYR157      0.1957
     72  OH        53.6220   13.0340  -41.4010 O.3   157  TYR157     -0.2866
     73  N         46.6110    7.5100  -41.0020 N.3   178  LEU178     -0.1245
     74  CA        46.7860    8.9560  -40.9240 C.3   178  LEU178      0.1561
     75  C         45.4320    9.6640  -40.9760 C.2   178  LEU178      0.2260
     76  O         45.2700   10.7440  -40.4050 O.2   178  LEU178     -0.2867
     77  CB        47.7090    9.4510  -42.0410 C.3   178  LEU178      0.0270
     78  CG        49.1500    8.9210  -41.9800 C.3   178  LEU178      0.0019
     79  CD1       50.0190    9.5880  -43.0320 C.3   178  LEU178      0.0001
     80  CD2       49.7780    9.0970  -40.5980 C.3   178  LEU178      0.0001
     81  N         44.0870    9.2350  -37.4690 N.3   181  LEU181     -0.1231
     82  CA        44.8310   10.1090  -36.5820 C.3   181  LEU181      0.1693
     83  C         44.4020   11.5680  -36.7630 C.2   181  LEU181      0.2591
     84  O         44.3120   12.3160  -35.7900 O.2   181  LEU181     -0.2718
     85  CB        46.3300    9.9200  -36.8370 C.3   181  LEU181      0.0284
     86  CG        47.3160    9.8940  -35.6670 C.3   181  LEU181      0.0019
     87  CD1       46.8660    8.9690  -34.5440 C.3   181  LEU181      0.0001
     88  CD2       48.6580    9.4150  -36.1920 C.3   181  LEU181      0.0001
     89  N         44.1350   11.9640  -38.0060 N.am  182  ARG182     -0.1980
     90  CA        43.6640   13.3180  -38.3010 C.3   182  ARG182      0.1597
     91  C         42.3070   13.5750  -37.6420 C.2   182  ARG182      0.2287
     92  O         42.0690   14.6520  -37.0970 O.2   182  ARG182     -0.2864
     93  CB        43.5760   13.5430  -39.8160 C.3   182  ARG182      0.0334
     94  CG        43.2350   14.9770  -40.2400 C.3   182  ARG182      0.0492
     95  CD        43.1200   15.0840  -41.7600 C.3   182  ARG182      0.2205
     96  NE        42.9790   16.4610  -42.2400 N.pl3 182  ARG182     -0.0865
     97  CZ        41.8280   17.0980  -42.4400 C.cat 182  ARG182      0.5346
     98  NH1       40.6660   16.5030  -42.2010 N.pl3 182  ARG182      0.1354
     99  NH2       41.8430   18.3480  -42.8860 N.pl3 182  ARG182      0.1354
    100  N         42.6940   13.8690  -33.9780 N.3   185  GLY185     -0.1210
    101  CA        43.3830   15.1270  -33.7560 C.3   185  GLY185      0.1956
    102  C         42.4740   16.3410  -33.7660 C.2   185  GLY185      0.2611
    103  O         42.5410   17.1720  -32.8620 O.2   185  GLY185     -0.2717
    104  N         41.6330   16.4520  -34.7920 N.am  186  LYS186     -0.1979
    105  CA        40.6980   17.5680  -34.8960 C.3   186  LYS186      0.1596
    106  C         39.8100   17.6170  -33.6600 C.2   186  LYS186      0.2287
    107  O         39.5320   18.6890  -33.1230 O.2   186  LYS186     -0.2864
    108  CB        39.8340   17.4450  -36.1560 C.3   186  LYS186      0.0298
    109  CG        40.5590   17.7190  -37.4710 C.3   186  LYS186      0.0038
    110  CD        41.0470   19.1610  -37.5890 C.3   186  LYS186      0.0206
    111  CE        41.5450   19.4600  -39.0020 C.3   186  LYS186      0.1093
    112  NZ        42.1250   20.8270  -39.1390 N.3   186  LYS186     -0.1314
@<TRIPOS>BOND
     1     4     3    2
     2     3     2    1
     3     2     1    1
     4     2     5    1
     5     5     6    1
     6     6     8    1
     7     6     7    1
     8    79    78    1
     9    99    97    1
    10    97    96    2
    11    97    98    1
    12    96    95    1
    13    77    78    1
    14    77    74    1
    15    78    80    1
    16    95    94    1
    17    72    71    1
    18    73    74    1
    19    75    74    1
    20    75    76    2
    21    94    93    1
    22    71    69   ar
    23    71    70   ar
    24    69    67   ar
    25    93    90    1
    26    70    68   ar
    27   112   111    1
    28   111   110    1
    29    67    66   ar
    30     9    10    1
    31    90    89    1
    32    90    91    1
    33    10    13    1
    34    10    11    1
    35    89    83   am
    36    68    66   ar
    37    15    17   ar
    38    15    14   ar
    39    28    26    1
    40    64    63    2
    41    13    14    1
    42    91    92    2
    43    66    65    1
    44   110   109    1
    45   109   108    1
    46    81    82    1
    47    21    22    1
    48    17    19   ar
    49    14    16   ar
    50    12    11    2
    51    85    82    1
    52    85    86    1
    53    83    82    1
    54    83    84    2
    55    26    25    1
    56    63    62    1
    57    38    36   ar
    58    38    37   ar
    59    22    25    1
    60    22    23    1
    61    65    62    1
    62    88    86    1
    63    62    61    1
    64   108   105    1
    65    36    34   ar
    66    37    35   ar
    67    19    20    1
    68    19    18   ar
    69    25    27    1
    70    86    87    1
    71    16    18   ar
    72    23    24    2
    73   105   104    1
    74   105   106    1
    75    29    30    1
    76   104   102   am
    77    35    34   ar
    78    34    33    1
    79   100   101    1
    80   102   101    1
    81   102   103    2
    82    30    33    1
    83    30    31    1
    84   106   107    2
    85    53    52    2
    86    56    58   ar
    87    56    55   ar
    88    31    32    2
    89    58    60   ar
    90    52    51    1
    91    48    46   ar
    92    48    49   ar
    93    54    55    1
    94    54    51    1
    95    46    44   ar
    96    55    57   ar
    97    51    50    1
    98    60    59   ar
    99    49    47   ar
   100    44    43    1
   101    44    45   ar
   102    57    59   ar
   103    43    40    1
   104    47    45   ar
   105    39    40    1
   106    40    41    1
   107    41    42    2
