@<TRIPOS>MOLECULE
tmp/5z0bC02.pdb
 115 104 0 0 0
SMALL
GASTEIGER

@<TRIPOS>ATOM
      1  N         35.6430   28.3190  -11.3710 N.3   205  ARG205     -0.1245
      2  CA        34.4940   27.6190  -10.7970 C.3   205  ARG205      0.1563
      3  C         33.7590   26.7890  -11.8550 C.2   205  ARG205      0.2260
      4  O         33.3230   25.6700  -11.5880 O.2   205  ARG205     -0.2867
      5  CB        33.5390   28.6320  -10.1550 C.3   205  ARG205      0.0307
      6  CG        32.3120   28.0470   -9.4550 C.3   205  ARG205      0.0489
      7  CD        31.4620   29.1770   -8.8780 C.3   205  ARG205      0.2205
      8  NE        30.3050   28.7160   -8.1090 N.pl3 205  ARG205     -0.0865
      9  CZ        29.0500   28.6820   -8.5570 C.cat 205  ARG205      0.5346
     10  NH1       28.7490   29.0730   -9.7880 N.pl3 205  ARG205      0.1354
     11  NH2       28.0840   28.2500   -7.7600 N.pl3 205  ARG205      0.1354
     12  N         36.0000   23.8090  -12.9230 N.3   208  LYS208     -0.1231
     13  CA        36.0750   22.8280  -11.8420 C.3   208  LYS208      0.1693
     14  C         34.7860   22.0230  -11.6920 C.2   208  LYS208      0.2591
     15  O         34.8230   20.8280  -11.3980 O.2   208  LYS208     -0.2718
     16  CB        36.3850   23.5310  -10.5230 C.3   208  LYS208      0.0285
     17  CG        37.8360   23.9320  -10.3470 C.3   208  LYS208      0.0035
     18  CD        38.0390   24.6190   -9.0100 C.3   208  LYS208      0.0206
     19  CE        39.5070   24.8310   -8.7030 C.3   208  LYS208      0.1093
     20  NZ        39.6880   25.4260   -7.3520 N.3   208  LYS208     -0.1314
     21  N         33.6480   22.6820  -11.8860 N.am  209  ALA209     -0.1980
     22  CA        32.3580   22.0030  -11.8160 C.3   209  ALA209      0.1597
     23  C         32.2650   20.9640  -12.9240 C.2   209  ALA209      0.2287
     24  O         31.8510   19.8270  -12.6920 O.2   209  ALA209     -0.2864
     25  CB        31.2150   23.0040  -11.9230 C.3   209  ALA209      0.0319
     26  N         34.5320   18.0880  -11.9920 N.3   212  VAL212     -0.1245
     27  CA        33.9200   17.2820  -10.9390 C.3   212  VAL212      0.1561
     28  C         32.8920   16.3260  -11.5260 C.2   212  VAL212      0.2260
     29  O         32.8550   15.1450  -11.1760 O.2   212  VAL212     -0.2867
     30  CB        33.2400   18.1650   -9.8680 C.3   212  VAL212      0.0252
     31  CG1       32.2990   17.3400   -8.9880 C.3   212  VAL212      0.0019
     32  CG2       34.2830   18.8690   -9.0190 C.3   212  VAL212      0.0019
     33  N         34.8410   11.9010   -2.4470 N.3   224  PHE224     -0.1241
     34  CA        34.6850   13.2840   -2.8900 C.3   224  PHE224      0.1605
     35  C         35.9960   14.0620   -2.7510 C.2   224  PHE224      0.2264
     36  O         36.3500   14.8620   -3.6190 O.2   224  PHE224     -0.2867
     37  CB        33.5650   13.9590   -2.0910 C.3   224  PHE224      0.0534
     38  CG        33.3020   15.3900   -2.4800 C.ar  224  PHE224     -0.0203
     39  CD1       32.7380   15.6980   -3.7050 C.ar  224  PHE224     -0.0042
     40  CD2       33.5840   16.4220   -1.6020 C.ar  224  PHE224     -0.0042
     41  CE1       32.4870   17.0080   -4.0600 C.ar  224  PHE224     -0.0003
     42  CE2       33.3310   17.7350   -1.9500 C.ar  224  PHE224     -0.0003
     43  CZ        32.7790   18.0280   -3.1790 C.ar  224  PHE224     -0.0000
     44  N         38.0590   15.9450   -5.6910 N.3   228  SER228     -0.1217
     45  CA        38.3750   17.3590   -5.5280 C.3   228  SER228      0.1889
     46  C         39.8620   17.6180   -5.7420 C.2   228  SER228      0.2288
     47  O         40.2480   18.6000   -6.3740 O.2   228  SER228     -0.2866
     48  CB        37.9590   17.8430   -4.1360 C.3   228  SER228      0.2089
     49  OG        36.5610   17.7110   -3.9450 O.3   228  SER228     -0.2183
     50  N         40.6600   17.4260   -9.4300 N.3   231  VAL231     -0.1245
     51  CA        40.1410   18.6140  -10.1020 C.3   231  VAL231      0.1561
     52  C         41.0770   19.7940   -9.8460 C.2   231  VAL231      0.2260
     53  O         41.3460   20.5920  -10.7430 O.2   231  VAL231     -0.2867
     54  CB        38.6990   18.9400   -9.6200 C.3   231  VAL231      0.0252
     55  CG1       38.2390   20.3730  -10.0310 C.3   231  VAL231      0.0019
     56  CG2       37.7350   17.8770  -10.1500 C.3   231  VAL231      0.0019
     57  N         29.1720   26.3330   -2.1990 N.3   320  ASP320     -0.1239
     58  CA        29.7520   25.6300   -3.3370 C.3   320  ASP320      0.1674
     59  C         30.2270   24.2230   -2.9720 C.2   320  ASP320      0.2266
     60  O         30.2600   23.3430   -3.8320 O.2   320  ASP320     -0.2867
     61  CB        30.9100   26.4370   -3.9340 C.3   320  ASP320      0.1410
     62  CG        30.4400   27.5100   -4.9060 C.2   320  ASP320      0.3668
     63  OD1       29.2220   27.5990   -5.1780 O.co2 320  ASP320     -0.2456
     64  OD2       31.2960   28.2650   -5.4090 O.co2 320  ASP320     -0.2456
     65  N         26.8550   22.3530   -3.0950 N.3   323  LEU323     -0.1231
     66  CA        26.4900   22.1570   -4.4920 C.3   323  LEU323      0.1693
     67  C         27.4360   21.1690   -5.1710 C.2   323  LEU323      0.2592
     68  O         27.0290   20.4130   -6.0530 O.2   323  LEU323     -0.2718
     69  CB        26.5030   23.4860   -5.2480 C.3   323  LEU323      0.0284
     70  CG        25.4360   24.5190   -4.8890 C.3   323  LEU323      0.0019
     71  CD1       25.7560   25.8280   -5.5780 C.3   323  LEU323      0.0001
     72  CD2       24.0520   24.0340   -5.2860 C.3   323  LEU323      0.0001
     73  N         28.7020   21.1880   -4.7620 N.am  324  GLY324     -0.1957
     74  CA        29.6930   20.2770   -5.3050 C.3   324  GLY324      0.1869
     75  C         29.4080   18.8420   -4.9090 C.2   324  GLY324      0.2309
     76  O         29.6010   17.9190   -5.7030 O.2   324  GLY324     -0.2863
     77  N         26.4490   17.6830   -7.0490 N.3   327  LEU327     -0.1245
     78  CA        26.9060   17.3550   -8.3900 C.3   327  LEU327      0.1561
     79  C         27.6720   16.0310   -8.4060 C.2   327  LEU327      0.2260
     80  O         27.4570   15.1900   -9.2770 O.2   327  LEU327     -0.2867
     81  CB        27.7800   18.4840   -8.9350 C.3   327  LEU327      0.0270
     82  CG        28.3200   18.3280  -10.3560 C.3   327  LEU327      0.0019
     83  CD1       27.1900   18.0850  -11.3440 C.3   327  LEU327      0.0001
     84  CD2       29.1210   19.5620  -10.7480 C.3   327  LEU327      0.0001
     85  N         25.3580   19.7270  -15.1680 N.3   343  LEU343     -0.1245
     86  CA        25.6470   21.0910  -14.7450 C.3   343  LEU343      0.1561
     87  C         24.3830   21.9440  -14.8220 C.2   343  LEU343      0.2260
     88  O         24.1260   22.7740  -13.9490 O.2   343  LEU343     -0.2867
     89  CB        26.7570   21.6930  -15.6080 C.3   343  LEU343      0.0270
     90  CG        28.1560   21.1010  -15.4060 C.3   343  LEU343      0.0019
     91  CD1       29.1500   21.7520  -16.3570 C.3   343  LEU343      0.0001
     92  CD2       28.6320   21.2410  -13.9630 C.3   343  LEU343      0.0001
     93  N         22.4530   20.8750  -11.8010 N.3   346  ALA346     -0.1231
     94  CA        23.0670   21.3850  -10.5840 C.3   346  ALA346      0.1694
     95  C         22.7400   22.8610  -10.3980 C.2   346  ALA346      0.2591
     96  O         22.4990   23.3180   -9.2830 O.2   346  ALA346     -0.2718
     97  CB        24.5730   21.1720  -10.6210 C.3   346  ALA346      0.0304
     98  N         22.7350   23.6030  -11.4980 N.am  347  LYS347     -0.1980
     99  CA        22.4460   25.0300  -11.4480 C.3   347  LYS347      0.1596
    100  C         20.9600   25.2820  -11.2000 C.2   347  LYS347      0.2287
    101  O         20.5920   26.2590  -10.5490 O.2   347  LYS347     -0.2864
    102  CB        22.9030   25.7030  -12.7380 C.3   347  LYS347      0.0298
    103  CG        24.4140   25.8510  -12.8120 C.3   347  LYS347      0.0038
    104  CD        24.8890   26.2850  -14.1850 C.3   347  LYS347      0.0206
    105  CE        26.4110   26.2790  -14.2560 C.3   347  LYS347      0.1093
    106  NZ        27.0280   27.2490  -13.3050 N.3   347  LYS347     -0.1314
    107  N         20.6730   24.8350   -7.6170 N.3   350  GLU350     -0.1245
    108  CA        21.2130   26.0400   -6.9930 C.3   350  GLU350      0.1567
    109  C         20.1790   27.1660   -6.9320 C.2   350  GLU350      0.2260
    110  O         19.9540   27.7550   -5.8750 O.2   350  GLU350     -0.2867
    111  CB        22.4590   26.5010   -7.7560 C.3   350  GLU350      0.0388
    112  CG        23.0400   27.8300   -7.3020 C.3   350  GLU350      0.1160
    113  CD        24.3010   28.1970   -8.0650 C.2   350  GLU350      0.3649
    114  OE1       24.4130   27.8130   -9.2480 O.co2 350  GLU350     -0.2457
    115  OE2       25.1830   28.8620   -7.4830 O.co2 350  GLU350     -0.2457
@<TRIPOS>BOND
     1    91    90    1
     2    89    90    1
     3    89    86    1
     4    90    92    1
     5    85    86    1
     6    87    86    1
     7    87    88    2
     8   105   104    1
     9   105   106    1
    10   104   103    1
    11    23    24    2
    12    23    22    1
    13    12    13    1
    14   103   102    1
    15   102    99    1
    16    26    27    1
    17    25    22    1
    18    21    22    1
    19    21    14   am
    20     3     4    2
    21     3     2    1
    22    13    14    1
    23    13    16    1
    24    93    94    1
    25    14    15    2
    26    28    29    2
    27    28    27    1
    28    98    99    1
    29    98    95   am
    30    99   100    1
    31     1     2    1
    32    83    82    1
    33   100   101    2
    34    27    30    1
    35     2     5    1
    36    84    82    1
    37    53    52    2
    38    97    94    1
    39    94    95    1
    40    16    17    1
    41    95    96    2
    42    82    81    1
    43    17    18    1
    44     5     6    1
    45    56    54    1
    46    51    52    1
    47    51    54    1
    48    51    50    1
    49    55    54    1
    50    30    32    1
    51    30    31    1
    52    10     9    1
    53     6     7    1
    54    80    79    2
    55   114   113   ar
    56    18    19    1
    57    81    78    1
    58     7     8    1
    59    19    20    1
    60     9     8    2
    61     9    11    1
    62    79    78    1
    63    78    77    1
    64   113   115   ar
    65   113   112    1
    66   111   112    1
    67   111   108    1
    68   107   108    1
    69   108   109    1
    70   109   110    2
    71    47    46    2
    72    68    67    2
    73    46    45    1
    74    76    75    2
    75    44    45    1
    76    71    70    1
    77    45    48    1
    78    64    62   ar
    79    74    75    1
    80    74    73    1
    81    72    70    1
    82    69    70    1
    83    69    66    1
    84    63    62   ar
    85    67    73   am
    86    67    66    1
    87    62    61    1
    88    66    65    1
    89    48    49    1
    90    41    39   ar
    91    41    43   ar
    92    61    58    1
    93    60    59    2
    94    39    38   ar
    95    36    35    2
    96    58    59    1
    97    58    57    1
    98    43    42   ar
    99    34    35    1
   100    34    33    1
   101    34    37    1
   102    38    37    1
   103    38    40   ar
   104    42    40   ar
