@<TRIPOS>MOLECULE
tmp/5z0qG00.pdb
 118 109 0 0 0
SMALL
GASTEIGER

@<TRIPOS>ATOM
      1  N        176.0000  -48.4450  156.9100 N.3    31  ALA31      -0.1245
      2  CA       176.2320  -48.6410  158.3400 C.3    31  ALA31       0.1562
      3  C        176.5060  -50.1140  158.6330 C.2    31  ALA31       0.2260
      4  O        175.6470  -50.8670  159.0970 O.2    31  ALA31      -0.2867
      5  CB       175.0490  -48.1170  159.1410 C.3    31  ALA31       0.0290
      6  N        165.1310  -58.7180  160.0330 N.3    89  GLY89      -0.1210
      7  CA       165.4780  -57.3240  159.8750 C.3    89  GLY89       0.1956
      8  C        164.6660  -56.4220  160.7910 C.2    89  GLY89       0.2612
      9  O        163.6320  -56.8060  161.3440 O.2    89  GLY89      -0.2717
     10  N        165.1520  -55.1930  160.9500 N.am   90  VAL90      -0.1965
     11  CA       164.5160  -54.2110  161.8210 C.3    90  VAL90       0.1727
     12  C        163.6680  -53.2680  160.9780 C.2    90  VAL90       0.2616
     13  O        162.6430  -52.7530  161.4400 O.2    90  VAL90      -0.2715
     14  CB       165.5690  -53.4440  162.6430 C.3    90  VAL90       0.0290
     15  CG1      164.9150  -52.3800  163.5120 C.3    90  VAL90       0.0023
     16  CG2      166.3720  -54.4120  163.4990 C.3    90  VAL90       0.0023
     17  N        164.0850  -53.0490  159.7270 N.am   91  VAL91      -0.1977
     18  CA       163.3430  -52.1570  158.8380 C.3    91  VAL91       0.1596
     19  C        161.9290  -52.6770  158.6160 C.2    91  VAL91       0.2287
     20  O        160.9650  -51.9020  158.5790 O.2    91  VAL91      -0.2864
     21  CB       164.0990  -51.9800  157.5080 C.3    91  VAL91       0.0276
     22  CG1      163.2660  -51.1710  156.5250 C.3    91  VAL91       0.0022
     23  CG2      165.4430  -51.3120  157.7520 C.3    91  VAL91       0.0022
     24  N        159.6650  -51.7230  161.3930 N.3    94  ILE94      -0.1245
     25  CA       159.2120  -50.3380  161.3230 C.3    94  ILE94       0.1561
     26  C        157.9910  -50.2260  160.4190 C.2    94  ILE94       0.2260
     27  O        156.9990  -49.5740  160.7640 O.2    94  ILE94      -0.2867
     28  CB       160.3550  -49.4240  160.8460 C.3    94  ILE94       0.0252
     29  CG1      161.5360  -49.4940  161.8170 C.3    94  ILE94       0.0019
     30  CG2      159.8640  -47.9900  160.6910 C.3    94  ILE94       0.0019
     31  CD1      162.7290  -48.6740  161.3860 C.3    94  ILE94       0.0001
     32  N        167.1660  -41.8900  160.6810 N.3   115  TYR115     -0.1241
     33  CA       167.2110  -43.0250  159.7710 C.3   115  TYR115      0.1605
     34  C        166.0700  -42.9300  158.7560 C.2   115  TYR115      0.2264
     35  O        164.9140  -42.7200  159.1500 O.2   115  TYR115     -0.2867
     36  CB       167.1120  -44.3180  160.5860 C.3   115  TYR115      0.0534
     37  CG       167.4300  -45.5990  159.8480 C.ar  115  TYR115     -0.0201
     38  CD1      168.6120  -45.7440  159.1340 C.ar  115  TYR115     -0.0009
     39  CD2      166.5640  -46.6830  159.9070 C.ar  115  TYR115     -0.0009
     40  CE1      168.9060  -46.9230  158.4700 C.ar  115  TYR115      0.0417
     41  CE2      166.8490  -47.8630  159.2490 C.ar  115  TYR115      0.0417
     42  CZ       168.0200  -47.9800  158.5320 C.ar  115  TYR115      0.1957
     43  OH       168.3040  -49.1570  157.8770 O.3   115  TYR115     -0.2866
     44  N        162.3450  -44.1660  158.9370 N.3   118  PHE118     -0.1241
     45  CA       161.4480  -43.5880  159.9290 C.3   118  PHE118      0.1605
     46  C        160.4550  -42.6110  159.3120 C.2   118  PHE118      0.2264
     47  O        159.3790  -42.4000  159.8830 O.2   118  PHE118     -0.2867
     48  CB       162.2530  -42.9030  161.0340 C.3   118  PHE118      0.0534
     49  CG       162.5630  -43.8000  162.1980 C.ar  118  PHE118     -0.0203
     50  CD1      163.4360  -44.8650  162.0570 C.ar  118  PHE118     -0.0042
     51  CD2      161.9790  -43.5780  163.4330 C.ar  118  PHE118     -0.0042
     52  CE1      163.7190  -45.6920  163.1270 C.ar  118  PHE118     -0.0003
     53  CE2      162.2580  -44.4010  164.5060 C.ar  118  PHE118     -0.0003
     54  CZ       163.1290  -45.4590  164.3530 C.ar  118  PHE118     -0.0000
     55  N        164.0790  -43.4470  168.3870 N.3   162  CYS162     -0.1235
     56  CA       165.3330  -44.0630  167.9580 C.3   162  CYS162      0.1677
     57  C        166.3760  -43.7610  169.0310 C.2   162  CYS162      0.2270
     58  O        166.9070  -42.6480  169.0890 O.2   162  CYS162     -0.2867
     59  CB       165.7600  -43.5430  166.5920 C.3   162  CYS162      0.0956
     60  SG       167.1800  -44.3920  165.8680 S.3   162  CYS162     -0.0801
     61  N        170.1540  -42.4760  165.4890 N.3   166  ASN166     -0.1240
     62  CA       170.8030  -42.5030  164.1910 C.3   166  ASN166      0.1653
     63  C        170.3140  -41.3130  163.3840 C.2   166  ASN166      0.2266
     64  O        169.0960  -41.1470  163.2300 O.2   166  ASN166     -0.2867
     65  CB       170.4730  -43.8140  163.4590 C.3   166  ASN166      0.1155
     66  CG       171.3710  -44.0720  162.2600 C.2   166  ASN166      0.2627
     67  OD1      171.7010  -43.1630  161.5000 O.2   166  ASN166     -0.2716
     68  ND2      171.7580  -45.3280  162.0800 N.am  166  ASN166     -0.0877
     69  N        163.2090  -47.8840  168.4510 N.3   194  ASP194     -0.1239
     70  CA       164.2420  -48.6530  167.7670 C.3   194  ASP194      0.1674
     71  C        165.5290  -48.5800  168.5810 C.2   194  ASP194      0.2266
     72  O        166.0860  -47.4930  168.7740 O.2   194  ASP194     -0.2867
     73  CB       164.4580  -48.1190  166.3520 C.3   194  ASP194      0.1410
     74  CG       165.3490  -49.0170  165.5160 C.2   194  ASP194      0.3668
     75  OD1      165.8160  -50.0520  166.0360 O.co2 194  ASP194     -0.2456
     76  OD2      165.5780  -48.6890  164.3330 O.co2 194  ASP194     -0.2456
     77  N        168.6480  -50.7630  168.3430 N.3   196  ILE196     -0.1231
     78  CA       169.6100  -51.7300  167.8310 C.3   196  ILE196      0.1692
     79  C        171.0410  -51.2060  167.8360 C.2   196  ILE196      0.2592
     80  O        171.9770  -52.0190  167.7950 O.2   196  ILE196     -0.2718
     81  CB       169.2290  -52.2200  166.4190 C.3   196  ILE196      0.0266
     82  CG1      169.5500  -51.1560  165.3700 C.3   196  ILE196      0.0019
     83  CG2      167.7580  -52.6010  166.3710 C.3   196  ILE196      0.0020
     84  CD1      169.6470  -51.7220  163.9770 C.3   196  ILE196      0.0001
     85  N        171.2470  -49.8910  167.8760 N.am  197  HIS197     -0.1976
     86  CA       172.5430  -49.3390  168.2480 C.3   197  HIS197      0.1656
     87  C        172.7600  -49.3760  169.7520 C.2   197  HIS197      0.2291
     88  O        173.6600  -48.7020  170.2650 O.2   197  HIS197     -0.2864
     89  CB       172.6810  -47.9060  167.7300 C.3   197  HIS197      0.0771
     90  CG       172.9670  -47.8210  166.2640 C.ar  197  HIS197      0.0820
     91  ND1      174.2360  -47.9640  165.7450 N.ar  197  HIS197     -0.2267
     92  CD2      172.1500  -47.6100  165.2050 C.ar  197  HIS197      0.1154
     93  CE1      174.1890  -47.8440  164.4300 C.ar  197  HIS197      0.1986
     94  NE2      172.9350  -47.6290  164.0770 N.ar  197  HIS197     -0.2212
     95  N        172.5400  -57.2410  164.7800 N.3   229  SER229     -0.1202
     96  CA       173.0490  -57.0170  163.4290 C.3   229  SER229      0.2020
     97  C        174.1870  -56.0020  163.4240 C.2   229  SER229      0.2618
     98  O        175.2620  -56.2610  162.8700 O.2   229  SER229     -0.2717
     99  CB       171.9170  -56.5540  162.5110 C.3   229  SER229      0.2103
    100  OG       170.9210  -57.5530  162.3720 O.3   229  SER229     -0.2182
    101  N        173.9690  -54.8380  164.0370 N.am  230  LYS230     -0.1979
    102  CA       174.9490  -53.7610  163.9610 C.3   230  LYS230      0.1596
    103  C        176.1470  -54.0110  164.8690 C.2   230  LYS230      0.2287
    104  O        177.2920  -53.7730  164.4680 O.2   230  LYS230     -0.2864
    105  CB       174.2880  -52.4300  164.3150 C.3   230  LYS230      0.0298
    106  CG       173.2930  -51.9510  163.2790 C.3   230  LYS230      0.0038
    107  CD       174.0010  -51.5350  162.0080 C.3   230  LYS230      0.0206
    108  CE       173.8640  -50.0450  161.7890 C.3   230  LYS230      0.1093
    109  NZ       172.4590  -49.6630  161.4800 N.3   230  LYS230     -0.1314
    110  N        174.5550  -58.0150  159.6660 N.3   235  ALA235     -0.1245
    111  CA       173.3820  -57.4640  158.9990 C.3   235  ALA235      0.1562
    112  C        173.0290  -58.2280  157.7310 C.2   235  ALA235      0.2260
    113  O        171.9040  -58.0980  157.2350 O.2   235  ALA235     -0.2867
    114  CB       173.6110  -55.9880  158.6740 C.3   235  ALA235      0.0290
    115  N        170.4010  -60.8190  159.4790 N.3   238  GLY238     -0.1225
    116  CA       169.2550  -59.9950  159.8130 C.3   238  GLY238      0.1811
    117  C        168.2730  -60.5710  160.8050 C.2   238  GLY238      0.2280
    118  O        167.1000  -60.1870  160.7930 O.2   238  GLY238     -0.2866
@<TRIPOS>BOND
     1    22    21    1
     2     1     2    1
     3   113   112    2
     4    21    23    1
     5    21    18    1
     6   112   111    1
     7    43    42    1
     8     2     3    1
     9     2     5    1
    10    40    42   ar
    11    40    38   ar
    12    42    41   ar
    13    20    19    2
    14    19    18    1
    15     3     4    2
    16   114   111    1
    17    34    35    2
    18    34    33    1
    19    18    17    1
    20    44    45    1
    21   111   110    1
    22    38    37   ar
    23    41    39   ar
    24    46    47    2
    25    46    45    1
    26   115   116    1
    27    17    12   am
    28    33    36    1
    29    33    32    1
    30   116   117    1
    31    37    39   ar
    32    37    36    1
    33     7     6    1
    34     7     8    1
    35    45    48    1
    36    26    27    2
    37    26    25    1
    38    30    28    1
    39     8    10   am
    40     8     9    2
    41   118   117    2
    42    28    25    1
    43    28    29    1
    44    10    11    1
    45    12    13    2
    46    12    11    1
    47    48    49    1
    48    25    24    1
    49    31    29    1
    50   109   108    1
    51    67    66    2
    52   108   107    1
    53    11    14    1
    54   107   106    1
    55    50    49   ar
    56    50    52   ar
    57    68    66   am
    58    49    51   ar
    59    66    65    1
    60   100    99    1
    61    99    96    1
    62    14    16    1
    63    14    15    1
    64    98    97    2
    65    52    54   ar
    66    64    63    2
    67   106   105    1
    68    63    62    1
    69    97    96    1
    70    97   101   am
    71    96    95    1
    72    51    53   ar
    73    65    62    1
    74   102   101    1
    75   102   105    1
    76   102   103    1
    77    84    82    1
    78    94    93   ar
    79    94    92   ar
    80    62    61    1
    81    76    74   ar
    82    54    53   ar
    83    93    91   ar
    84   104   103    2
    85    92    90   ar
    86    82    81    1
    87    74    75   ar
    88    74    73    1
    89    91    90   ar
    90    60    59    1
    91    90    89    1
    92    73    70    1
    93    83    81    1
    94    81    78    1
    95    59    56    1
    96    89    86    1
    97    70    69    1
    98    70    71    1
    99    80    79    2
   100    78    79    1
   101    78    77    1
   102    79    85   am
   103    85    86    1
   104    56    55    1
   105    56    57    1
   106    86    87    1
   107    71    72    2
   108    57    58    2
   109    87    88    2
