@<TRIPOS>MOLECULE
tmp/5z0sB00.pdb
 176 163 0 0 0
SMALL
GASTEIGER

@<TRIPOS>ATOM
      1  N        -18.9020  -21.6960  -61.3410 N.3    21  LEU21      -0.1231
      2  CA       -19.8940  -22.4320  -60.5710 C.3    21  LEU21       0.1693
      3  C        -20.9860  -21.4770  -60.1030 C.2    21  LEU21       0.2592
      4  O        -20.7050  -20.3520  -59.6840 O.2    21  LEU21      -0.2718
      5  CB       -19.2580  -23.1280  -59.3640 C.3    21  LEU21       0.0284
      6  CG       -18.2550  -24.2510  -59.6130 C.3    21  LEU21       0.0019
      7  CD1      -17.6680  -24.7310  -58.2830 C.3    21  LEU21       0.0001
      8  CD2      -18.9050  -25.3970  -60.3640 C.3    21  LEU21       0.0001
      9  N        -22.2330  -21.9180  -60.2210 N.am   22  GLY22      -0.1957
     10  CA       -23.3400  -21.2140  -59.6110 C.3    22  GLY22       0.1869
     11  C        -23.7570  -19.9150  -60.2490 C.2    22  GLY22       0.2309
     12  O        -24.4790  -19.1420  -59.6150 O.2    22  GLY22      -0.2863
     13  N        -23.2640  -16.8290  -55.8810 N.3    26  PHE26      -0.1241
     14  CA       -22.6030  -16.9320  -54.5860 C.3    26  PHE26       0.1605
     15  C        -21.2320  -16.2590  -54.5920 C.2    26  PHE26       0.2264
     16  O        -20.3520  -16.6110  -53.8040 O.2    26  PHE26      -0.2867
     17  CB       -22.5080  -18.3970  -54.1680 C.3    26  PHE26       0.0534
     18  CG       -23.8340  -19.0830  -54.1470 C.ar   26  PHE26      -0.0203
     19  CD1      -24.6490  -19.0080  -53.0310 C.ar   26  PHE26      -0.0042
     20  CD2      -24.3000  -19.7630  -55.2580 C.ar   26  PHE26      -0.0042
     21  CE1      -25.9070  -19.6270  -53.0140 C.ar   26  PHE26      -0.0003
     22  CE2      -25.5530  -20.3850  -55.2460 C.ar   26  PHE26      -0.0003
     23  CZ       -26.3540  -20.3140  -54.1280 C.ar   26  PHE26      -0.0000
     24  N        -16.9810  -17.7050  -58.2120 N.3    29  VAL29      -0.1245
     25  CA       -16.4470  -18.9830  -57.7640 C.3    29  VAL29       0.1561
     26  C        -16.2130  -19.8500  -58.9900 C.2    29  VAL29       0.2260
     27  O        -17.0810  -19.9360  -59.8590 O.2    29  VAL29      -0.2867
     28  CB       -17.4110  -19.6770  -56.7810 C.3    29  VAL29       0.0252
     29  CG1      -16.9180  -21.0680  -56.4000 C.3    29  VAL29       0.0019
     30  CG2      -17.6170  -18.8110  -55.5580 C.3    29  VAL29       0.0019
     31  N        -12.9960  -25.7550  -55.1570 N.3    45  ALA45      -0.1245
     32  CA       -13.7040  -24.5370  -55.5200 C.3    45  ALA45       0.1562
     33  C        -12.8710  -23.3400  -55.0810 C.2    45  ALA45       0.2260
     34  O        -12.2620  -23.3590  -54.0100 O.2    45  ALA45      -0.2867
     35  CB       -15.1000  -24.4980  -54.8830 C.3    45  ALA45       0.0290
     36  N        -12.7630  -19.0420  -54.7960 N.3    47  LYS47      -0.1245
     37  CA       -13.5870  -17.8440  -54.6980 C.3    47  LYS47       0.1561
     38  C        -12.6960  -16.6250  -54.8750 C.2    47  LYS47       0.2260
     39  O        -11.6270  -16.5470  -54.2710 O.2    47  LYS47      -0.2867
     40  CB       -14.3210  -17.7800  -53.3510 C.3    47  LYS47       0.0271
     41  CG       -15.3160  -16.6110  -53.2300 C.3    47  LYS47       0.0035
     42  CD       -16.2730  -16.7330  -52.0430 C.3    47  LYS47       0.0206
     43  CE       -17.2830  -15.5610  -52.0160 C.3    47  LYS47       0.1093
     44  NZ       -18.2830  -15.6560  -50.8870 N.3    47  LYS47      -0.1314
     45  N        -14.1140  -13.2900  -44.6530 N.3    64  GLU64      -0.1245
     46  CA       -14.6600  -14.6320  -44.8040 C.3    64  GLU64       0.1567
     47  C        -13.5660  -15.6870  -44.7210 C.2    64  GLU64       0.2260
     48  O        -13.7920  -16.7690  -44.1780 O.2    64  GLU64      -0.2867
     49  CB       -15.4230  -14.6880  -46.1150 C.3    64  GLU64       0.0388
     50  CG       -15.9510  -16.0230  -46.5530 C.3    64  GLU64       0.1160
     51  CD       -16.6230  -15.9240  -47.9220 C.2    64  GLU64       0.3649
     52  OE1      -16.9120  -14.7870  -48.3890 O.co2  64  GLU64      -0.2457
     53  OE2      -16.8500  -16.9950  -48.5220 O.co2  64  GLU64      -0.2457
     54  N        -13.0230  -18.4890  -41.6620 N.3    68  MET68      -0.1245
     55  CA       -12.7890  -19.9090  -41.8920 C.3    68  MET68       0.1570
     56  C        -11.5440  -20.3900  -41.1570 C.2    68  MET68       0.2261
     57  O        -11.5290  -21.5000  -40.6100 O.2    68  MET68      -0.2867
     58  CB       -12.6930  -20.1970  -43.3970 C.3    68  MET68       0.0387
     59  CG       -13.9980  -19.9520  -44.1640 C.3    68  MET68       0.0595
     60  SD       -13.9230  -20.1800  -45.9690 S.3    68  MET68      -0.1393
     61  CE       -13.7570  -21.9370  -45.9780 C.3    68  MET68       0.0692
     62  N        -17.9440  -26.7550  -45.1420 N.3    78  ILE78      -0.1245
     63  CA       -16.9910  -26.4880  -46.2260 C.3    78  ILE78       0.1561
     64  C        -15.6960  -25.9610  -45.6230 C.2    78  ILE78       0.2260
     65  O        -15.6710  -24.8880  -45.0060 O.2    78  ILE78      -0.2867
     66  CB       -17.5510  -25.4850  -47.2460 C.3    78  ILE78       0.0252
     67  CG1      -18.7710  -26.0410  -47.9960 C.3    78  ILE78       0.0019
     68  CG2      -16.4650  -25.1000  -48.2550 C.3    78  ILE78       0.0019
     69  CD1      -18.4480  -27.1420  -48.9570 C.3    78  ILE78       0.0001
     70  N         -9.6220  -17.6570  -52.5490 N.3    92  VAL92      -0.1245
     71  CA        -9.9450  -18.4380  -51.3530 C.3    92  VAL92       0.1561
     72  C        -10.2900  -19.8480  -51.8150 C.2    92  VAL92       0.2260
     73  O        -11.2840  -20.0610  -52.5120 O.2    92  VAL92      -0.2867
     74  CB       -11.0930  -17.8130  -50.5450 C.3    92  VAL92       0.0252
     75  CG1      -11.2770  -18.5860  -49.2500 C.3    92  VAL92       0.0019
     76  CG2      -10.8050  -16.3550  -50.2180 C.3    92  VAL92       0.0019
     77  N        -11.5510  -23.5420  -51.3970 N.3    94  VAL94      -0.1231
     78  CA       -12.3700  -24.3020  -50.4580 C.3    94  VAL94       0.1692
     79  C        -12.7170  -25.6520  -51.0680 C.2    94  VAL94       0.2592
     80  O        -12.4850  -25.9080  -52.2480 O.2    94  VAL94      -0.2718
     81  CB       -13.6440  -23.5430  -50.0350 C.3    94  VAL94       0.0266
     82  CG1      -13.2610  -22.2750  -49.2980 C.3    94  VAL94       0.0020
     83  CG2      -14.5340  -23.2340  -51.2530 C.3    94  VAL94       0.0020
     84  N        -13.2550  -26.5260  -50.2280 N.am   95  GLU95      -0.1966
     85  CA       -13.6360  -27.8530  -50.6800 C.3    95  GLU95       0.1733
     86  C        -14.7070  -27.7550  -51.7640 C.2    95  GLU95       0.2616
     87  O        -15.5620  -26.8670  -51.7310 O.2    95  GLU95      -0.2715
     88  CB       -14.1250  -28.6790  -49.4860 C.3    95  GLU95       0.0429
     89  CG       -13.0400  -28.8800  -48.4020 C.3    95  GLU95       0.1163
     90  CD       -13.4600  -29.8330  -47.2800 C.2    95  GLU95       0.3649
     91  OE1      -14.5190  -29.6170  -46.6580 O.co2  95  GLU95      -0.2457
     92  OE2      -12.7180  -30.7990  -47.0170 O.co2  95  GLU95      -0.2457
     93  N        -14.6350  -28.6520  -52.7480 N.am   96  TYR96      -0.1960
     94  CA       -15.5700  -28.6960  -53.8670 C.3    96  TYR96       0.1771
     95  C        -16.6710  -29.7190  -53.5840 C.2    96  TYR96       0.2619
     96  O        -16.3990  -30.8140  -53.0910 O.2    96  TYR96      -0.2715
     97  CB       -14.8270  -29.0450  -55.1680 C.3    96  TYR96       0.0574
     98  CG       -15.7120  -29.2910  -56.3790 C.ar   96  TYR96      -0.0198
     99  CD1      -16.6050  -28.3160  -56.8400 C.ar   96  TYR96      -0.0009
    100  CD2      -15.6550  -30.4970  -57.0670 C.ar   96  TYR96      -0.0009
    101  CE1      -17.4210  -28.5500  -57.9480 C.ar   96  TYR96       0.0417
    102  CE2      -16.4670  -30.7380  -58.1670 C.ar   96  TYR96       0.0417
    103  CZ       -17.3440  -29.7670  -58.6080 C.ar   96  TYR96       0.1957
    104  OH       -18.1260  -30.0260  -59.7230 O.3    96  TYR96      -0.2866
    105  N        -17.9160  -29.3520  -53.8790 N.am   97  ALA97      -0.1963
    106  CA       -19.0820  -30.1980  -53.6180 C.3    97  ALA97       0.1728
    107  C        -19.7060  -30.5420  -54.9670 C.2    97  ALA97       0.2616
    108  O        -20.5090  -29.7750  -55.4990 O.2    97  ALA97      -0.2715
    109  CB       -20.0750  -29.4960  -52.6940 C.3    97  ALA97       0.0334
    110  N        -19.3310  -31.6980  -55.5220 N.am   98  SER98      -0.1950
    111  CA       -19.6430  -32.0050  -56.9180 C.3    98  SER98       0.1924
    112  C        -21.1370  -32.1910  -57.1780 C.2    98  SER98       0.2314
    113  O        -21.5710  -32.0200  -58.3210 O.2    98  SER98      -0.2863
    114  CB       -18.8880  -33.2620  -57.3650 C.3    98  SER98       0.2116
    115  OG       -19.3010  -34.4060  -56.6200 O.3    98  SER98      -0.2180
    116  N        -23.7870  -30.4680  -55.8200 N.3   100  GLY100     -0.1210
    117  CA       -24.6460  -29.3060  -55.7080 C.3   100  GLY100      0.1956
    118  C        -25.1980  -29.1010  -54.3150 C.2   100  GLY100      0.2611
    119  O        -24.8910  -29.8280  -53.3700 O.2   100  GLY100     -0.2717
    120  N        -26.0490  -28.0850  -54.1870 N.am  101  ASN101     -0.1974
    121  CA       -26.6540  -27.8590  -52.8860 C.3   101  ASN101      0.1688
    122  C        -27.7050  -28.9260  -52.6050 C.2   101  ASN101      0.2292
    123  O        -28.0510  -29.7420  -53.4610 O.2   101  ASN101     -0.2864
    124  CB       -27.2200  -26.4320  -52.7660 C.3   101  ASN101      0.1181
    125  CG       -28.4540  -26.1660  -53.6430 C.2   101  ASN101      0.2629
    126  OD1      -29.4290  -26.8980  -53.6070 O.2   101  ASN101     -0.2716
    127  ND2      -28.4230  -25.0640  -54.3840 N.am  101  ASN101     -0.0877
    128  N        -31.2730  -28.9970  -54.6050 N.3   104  GLU104     -0.1245
    129  CA       -31.1710  -29.6510  -55.9120 C.3   104  GLU104      0.1567
    130  C        -31.0190  -31.1610  -55.7610 C.2   104  GLU104      0.2260
    131  O        -31.6900  -31.9380  -56.4470 O.2   104  GLU104     -0.2867
    132  CB       -29.9840  -29.0680  -56.7080 C.3   104  GLU104      0.0388
    133  CG       -29.9750  -27.5320  -56.8320 C.3   104  GLU104      0.1160
    134  CD       -28.6310  -26.9210  -57.3120 C.2   104  GLU104      0.3649
    135  OE1      -27.5300  -27.4070  -56.9370 O.co2 104  GLU104     -0.2457
    136  OE2      -28.6840  -25.9120  -58.0590 O.co2 104  GLU104     -0.2457
    137  N        -30.4870  -24.7640  -49.4240 N.3   148  ARG148     -0.1231
    138  CA       -29.7120  -24.1250  -50.4760 C.3   148  ARG148      0.1694
    139  C        -28.2870  -23.8290  -50.0210 C.2   148  ARG148      0.2592
    140  O        -27.3900  -23.6770  -50.8600 O.2   148  ARG148     -0.2718
    141  CB       -30.4220  -22.8450  -50.9430 C.3   148  ARG148      0.0321
    142  CG       -30.5110  -21.7760  -49.8870 C.3   148  ARG148      0.0489
    143  CD       -31.1730  -20.5020  -50.3810 C.3   148  ARG148      0.2205
    144  NE       -31.4690  -19.5890  -49.2750 N.pl3 148  ARG148     -0.0865
    145  CZ       -32.6050  -19.6070  -48.5870 C.cat 148  ARG148      0.5346
    146  NH1      -33.5450  -20.4890  -48.9070 N.pl3 148  ARG148      0.1354
    147  NH2      -32.7940  -18.7580  -47.5850 N.pl3 148  ARG148      0.1354
    148  N        -28.0410  -23.7710  -48.7120 N.am  149  ASN149     -0.1974
    149  CA       -26.7050  -23.4840  -48.2130 C.3   149  ASN149      0.1688
    150  C        -26.0480  -24.6990  -47.5780 C.2   149  ASN149      0.2292
    151  O        -25.0840  -24.5550  -46.8290 O.2   149  ASN149     -0.2864
    152  CB       -26.7340  -22.2980  -47.2480 C.3   149  ASN149      0.1181
    153  CG       -26.9730  -20.9790  -47.9650 C.2   149  ASN149      0.2629
    154  OD1      -26.4050  -20.7270  -49.0260 O.2   149  ASN149     -0.2716
    155  ND2      -27.8340  -20.1410  -47.4020 N.am  149  ASN149     -0.0877
    156  N        -24.0680  -27.9450  -49.0730 N.3   151  LEU151     -0.1245
    157  CA       -23.5340  -28.5180  -50.3010 C.3   151  LEU151      0.1561
    158  C        -23.2480  -30.0020  -50.0910 C.2   151  LEU151      0.2260
    159  O        -23.0920  -30.4670  -48.9600 O.2   151  LEU151     -0.2867
    160  CB       -22.2700  -27.7840  -50.7420 C.3   151  LEU151      0.0270
    161  CG       -22.4260  -26.3020  -51.0270 C.3   151  LEU151      0.0019
    162  CD1      -21.1340  -25.7320  -51.5850 C.3   151  LEU151      0.0001
    163  CD2      -23.5740  -26.0880  -51.9810 C.3   151  LEU151      0.0001
    164  N        -22.3770  -24.4290  -45.9480 N.3   161  ALA161     -0.1231
    165  CA       -21.6480  -23.4490  -46.7370 C.3   161  ALA161      0.1694
    166  C        -22.0270  -22.0290  -46.3450 C.2   161  ALA161      0.2592
    167  O        -23.0780  -21.7780  -45.7410 O.2   161  ALA161     -0.2718
    168  CB       -21.9020  -23.6360  -48.2360 C.3   161  ALA161      0.0304
    169  N        -21.1410  -21.1030  -46.7220 N.am  162  ASP162     -0.1974
    170  CA       -21.3090  -19.6620  -46.5140 C.3   162  ASP162      0.1709
    171  C        -21.5660  -19.3000  -45.0460 C.2   162  ASP162      0.2293
    172  O        -22.1790  -18.2770  -44.7470 O.2   162  ASP162     -0.2864
    173  CB       -22.4050  -19.1070  -47.4220 C.3   162  ASP162      0.1436
    174  CG       -21.8790  -18.7650  -48.8040 C.2   162  ASP162      0.3671
    175  OD1      -20.6430  -18.6520  -48.9360 O.co2 162  ASP162     -0.2456
    176  OD2      -22.6860  -18.6270  -49.7520 O.co2 162  ASP162     -0.2456
@<TRIPOS>BOND
     1     1     2    1
     2     2     3    1
     3     2     5    1
     4     8     6    1
     5    11    12    2
     6    11    10    1
     7     9     3   am
     8     9    10    1
     9     3     4    2
    10    27    26    2
    11   104   103    1
    12     6     5    1
    13     6     7    1
    14    26    25    1
    15   103   102   ar
    16   103   101   ar
    17   113   112    2
    18    24    25    1
    19   102   100   ar
    20   136   134   ar
    21   101    99   ar
    22    25    28    1
    23   114   111    1
    24   114   115    1
    25   134   135   ar
    26   134   133    1
    27   112   111    1
    28   100    98   ar
    29   111   110    1
    30    99    98   ar
    31   133   132    1
    32    28    29    1
    33    28    30    1
    34   132   129    1
    35   131   130    2
    36    98    97    1
    37   129   130    1
    38   129   128    1
    39    13    14    1
    40   116   117    1
    41   117   118    1
    42   110   107   am
    43    32    31    1
    44    32    33    1
    45    32    35    1
    46   108   107    2
    47    20    22   ar
    48    20    18   ar
    49    22    23   ar
    50    97    94    1
    51    33    34    2
    52   107   106    1
    53    38    37    1
    54    38    39    2
    55    36    37    1
    56    37    40    1
    57    15    14    1
    58    15    16    2
    59    14    17    1
    60   127   125   am
    61   118   120   am
    62   118   119    2
    63   120   121    1
    64    17    18    1
    65    18    19   ar
    66    23    21   ar
    67   105   106    1
    68   105    95   am
    69    94    95    1
    70    94    93    1
    71   125   126    2
    72   125   124    1
    73   106   109    1
    74    95    96    2
    75   123   122    2
    76    40    41    1
    77    41    42    1
    78    19    21   ar
    79   121   124    1
    80   121   122    1
    81    93    86   am
    82    70    71    1
    83    73    72    2
    84    80    79    2
    85    42    43    1
    86    43    44    1
    87   163   161    1
    88    72    71    1
    89    86    87    2
    90    86    85    1
    91   162   161    1
    92    77    78    1
    93    71    74    1
    94    83    81    1
    95    79    78    1
    96    79    84   am
    97   161   160    1
    98   141   138    1
    99   141   142    1
   100   140   139    2
   101   160   157    1
   102    85    84    1
   103    85    88    1
   104    74    76    1
   105    74    75    1
   106   138   139    1
   107   138   137    1
   108    78    81    1
   109   143   142    1
   110   143   144    1
   111   157   158    1
   112   157   156    1
   113   158   159    2
   114    81    82    1
   115   139   148   am
   116   176   174   ar
   117    88    89    1
   118   144   145    2
   119   154   153    2
   120    69    67    1
   121   175   174   ar
   122   146   145    1
   123   174   173    1
   124   148   149    1
   125   145   147    1
   126    53    51   ar
   127    89    90    1
   128    52    51   ar
   129    68    66    1
   130   168   165    1
   131   149   150    1
   132   149   152    1
   133    67    66    1
   134   153   155   am
   135   153   152    1
   136    51    50    1
   137   150   151    2
   138   173   170    1
   139    90    92   ar
   140    90    91   ar
   141    66    63    1
   142   165   166    1
   143   165   164    1
   144   169   170    1
   145   169   166   am
   146    50    49    1
   147   170   171    1
   148   166   167    2
   149    63    64    1
   150    63    62    1
   151    49    46    1
   152    61    60    1
   153    60    59    1
   154    64    65    2
   155   171   172    2
   156    46    47    1
   157    46    45    1
   158    47    48    2
   159    59    58    1
   160    58    55    1
   161    55    54    1
   162    55    56    1
   163    56    57    2
