@<TRIPOS>MOLECULE
tmp/5z0tB00.pdb
 103 99 0 0 0
SMALL
GASTEIGER

@<TRIPOS>ATOM
      1  N         20.3250  -16.6500   68.9170 N.3   221  HIS221     -0.1241
      2  CA        19.6100  -15.6650   68.0800 C.3   221  HIS221      0.1621
      3  C         18.3180  -15.1830   68.7710 C.2   221  HIS221      0.2264
      4  O         17.9160  -14.0230   68.6340 O.2   221  HIS221     -0.2867
      5  CB        19.3510  -16.2380   66.6880 C.3   221  HIS221      0.0745
      6  CG        18.5360  -17.4930   66.6840 C.ar  221  HIS221      0.0817
      7  ND1       19.0730  -18.7470   66.5050 N.ar  221  HIS221     -0.2268
      8  CD2       17.2130  -17.6770   66.8470 C.ar  221  HIS221      0.1154
      9  CE1       18.1060  -19.6440   66.5460 C.ar  221  HIS221      0.1986
     10  NE2       16.9650  -19.0200   66.7510 N.ar  221  HIS221     -0.2212
     11  N         15.1260  -15.9430   68.4380 N.3   223  TYR223     -0.1241
     12  CA        13.8620  -15.9410   67.6840 C.3   223  TYR223      0.1605
     13  C         12.8970  -17.0340   68.1450 C.2   223  TYR223      0.2264
     14  O         11.7670  -17.0640   67.6780 O.2   223  TYR223     -0.2867
     15  CB        14.0850  -16.0440   66.1630 C.3   223  TYR223      0.0534
     16  CG        14.6110  -14.7610   65.5890 C.ar  223  TYR223     -0.0201
     17  CD1       13.7490  -13.7120   65.2710 C.ar  223  TYR223     -0.0009
     18  CD2       15.9750  -14.5490   65.4210 C.ar  223  TYR223     -0.0009
     19  CE1       14.2270  -12.5050   64.7850 C.ar  223  TYR223      0.0417
     20  CE2       16.4480  -13.3450   64.9300 C.ar  223  TYR223      0.0417
     21  CZ        15.5790  -12.3390   64.6120 C.ar  223  TYR223      0.1957
     22  OH        16.0770  -11.1530   64.1400 O.3   223  TYR223     -0.2866
     23  N          5.3950  -16.4030   65.8460 N.3   267  HIS267     -0.1241
     24  CA         5.6370  -17.7060   66.4730 C.3   267  HIS267      0.1621
     25  C          6.3950  -17.5110   67.7670 C.2   267  HIS267      0.2264
     26  O          6.9740  -16.4560   67.9830 O.2   267  HIS267     -0.2867
     27  CB         6.4570  -18.5880   65.5330 C.3   267  HIS267      0.0745
     28  CG         7.7150  -17.9500   65.0370 C.ar  267  HIS267      0.0817
     29  ND1        7.8220  -17.4290   63.7600 N.ar  267  HIS267     -0.2268
     30  CD2        8.9170  -17.7530   65.6300 C.ar  267  HIS267      0.1154
     31  CE1        9.0390  -16.9310   63.6000 C.ar  267  HIS267      0.1986
     32  NE2        9.7210  -17.1200   64.7160 N.ar  267  HIS267     -0.2212
     33  N          6.9250  -21.9050   61.8090 N.3   310  PHE310     -0.1227
     34  CA         7.6080  -21.1030   60.8030 C.3   310  PHE310      0.1736
     35  C          8.5250  -21.9650   59.9300 C.2   310  PHE310      0.2595
     36  O          9.4380  -22.6200   60.4320 O.2   310  PHE310     -0.2718
     37  CB         8.4060  -19.9690   61.4340 C.3   310  PHE310      0.0547
     38  CG         9.1340  -19.1390   60.4180 C.ar  310  PHE310     -0.0202
     39  CD1        8.4180  -18.4470   59.4440 C.ar  310  PHE310     -0.0042
     40  CD2       10.5170  -19.0790   60.4010 C.ar  310  PHE310     -0.0042
     41  CE1        9.0770  -17.6950   58.4840 C.ar  310  PHE310     -0.0003
     42  CE2       11.1770  -18.3330   59.4370 C.ar  310  PHE310     -0.0003
     43  CZ        10.4490  -17.6350   58.4880 C.ar  310  PHE310     -0.0000
     44  N          8.2460  -21.9670   58.6270 N.am  311  LEU311     -0.1980
     45  CA         8.9840  -22.7520   57.6360 C.3   311  LEU311      0.1596
     46  C          9.1260  -24.2300   58.0160 C.2   311  LEU311      0.2287
     47  O         10.0880  -24.8840   57.6290 O.2   311  LEU311     -0.2864
     48  CB        10.3530  -22.1040   57.3680 C.3   311  LEU311      0.0297
     49  CG        10.2620  -20.7340   56.6750 C.3   311  LEU311      0.0022
     50  CD1       11.6430  -20.1240   56.5250 C.3   311  LEU311      0.0001
     51  CD2        9.5770  -20.8380   55.3180 C.3   311  LEU311      0.0001
     52  N          9.8320  -25.4930   60.8550 N.3   313  PHE313     -0.1241
     53  CA        10.7590  -25.7220   61.9630 C.3   313  PHE313      0.1605
     54  C          9.9540  -25.9740   63.2260 C.2   313  PHE313      0.2264
     55  O          9.3310  -25.0580   63.7620 O.2   313  PHE313     -0.2867
     56  CB        11.7150  -24.5330   62.1710 C.3   313  PHE313      0.0534
     57  CG        12.7200  -24.3740   61.0620 C.ar  313  PHE313     -0.0203
     58  CD1       13.7050  -25.3440   60.8560 C.ar  313  PHE313     -0.0042
     59  CD2       12.6780  -23.2680   60.2060 C.ar  313  PHE313     -0.0042
     60  CE1       14.6250  -25.2160   59.8110 C.ar  313  PHE313     -0.0003
     61  CE2       13.6070  -23.1240   59.1750 C.ar  313  PHE313     -0.0003
     62  CZ        14.5730  -24.1040   58.9740 C.ar  313  PHE313     -0.0000
     63  N         10.7900  -26.1690   66.1610 N.3   315  SER315     -0.1202
     64  CA        11.1940  -25.2890   67.2430 C.3   315  SER315      0.2020
     65  C         10.4550  -23.9470   67.2820 C.2   315  SER315      0.2618
     66  O         10.5920  -23.2280   68.2610 O.2   315  SER315     -0.2717
     67  CB        12.7030  -25.0300   67.1830 C.3   315  SER315      0.2103
     68  OG        13.0550  -24.3970   65.9710 O.3   315  SER315     -0.2182
     69  N          9.7040  -23.6120   66.2250 N.am  316  LEU316     -0.1979
     70  CA         9.0560  -22.3110   66.0850 C.3   316  LEU316      0.1596
     71  C          7.5340  -22.4460   65.8640 C.2   316  LEU316      0.2287
     72  O          7.0050  -22.0910   64.8170 O.2   316  LEU316     -0.2864
     73  CB         9.7140  -21.5460   64.9170 C.3   316  LEU316      0.0297
     74  CG        11.2250  -21.2920   65.0410 C.3   316  LEU316      0.0022
     75  CD1       11.7440  -20.6000   63.7850 C.3   316  LEU316      0.0001
     76  CD2       11.5470  -20.4880   66.2810 C.3   316  LEU316      0.0001
     77  N         20.4820  -12.6570   58.1220 N.3   472  ASP472     -0.1239
     78  CA        19.9070  -13.7200   57.2690 C.3   472  ASP472      0.1674
     79  C         20.4760  -13.7950   55.8540 C.2   472  ASP472      0.2266
     80  O         19.9690  -14.5530   55.0150 O.2   472  ASP472     -0.2867
     81  CB        18.3770  -13.5520   57.1920 C.3   472  ASP472      0.1410
     82  CG        17.6750  -13.9660   58.4680 C.2   472  ASP472      0.3668
     83  OD1       18.1470  -14.9020   59.1340 O.co2 472  ASP472     -0.2456
     84  OD2       16.6430  -13.3670   58.8090 O.co2 472  ASP472     -0.2456
     85  N         24.4360  -17.7630   57.5360 N.3   516  ASP516     -0.1239
     86  CA        24.1020  -18.1090   58.9220 C.3   516  ASP516      0.1674
     87  C         24.6970  -19.4720   59.2790 C.2   516  ASP516      0.2266
     88  O         24.3570  -20.4480   58.6080 O.2   516  ASP516     -0.2867
     89  CB        22.5650  -18.1480   59.0020 C.3   516  ASP516      0.1410
     90  CG        22.0190  -18.5820   60.3410 C.2   516  ASP516      0.3668
     91  OD1       22.7510  -18.6880   61.3440 O.co2 516  ASP516     -0.2456
     92  OD2       20.7740  -18.7930   60.3870 O.co2 516  ASP516     -0.2456
     93  N         27.1890  -13.8130   61.5940 N.3   520  ARG520     -0.1245
     94  CA        27.0400  -13.3240   62.9610 C.3   520  ARG520      0.1563
     95  C         28.3600  -13.4470   63.7390 C.2   520  ARG520      0.2260
     96  O         28.3800  -13.8100   64.9280 O.2   520  ARG520     -0.2867
     97  CB        25.9190  -14.1050   63.6580 C.3   520  ARG520      0.0307
     98  CG        24.5800  -13.9890   62.9370 C.3   520  ARG520      0.0489
     99  CD        23.7500  -15.2510   63.0960 C.3   520  ARG520      0.2205
    100  NE        22.5460  -15.1850   62.2610 N.pl3 520  ARG520     -0.0865
    101  CZ        21.4080  -15.8430   62.4920 C.cat 520  ARG520      0.5346
    102  NH1       21.2570  -16.6210   63.5670 N.pl3 520  ARG520      0.1354
    103  NH2       20.3900  -15.6820   61.6390 N.pl3 520  ARG520      0.1354
@<TRIPOS>BOND
     1    80    79    2
     2    51    49    1
     3    79    78    1
     4    50    49    1
     5    49    48    1
     6    81    78    1
     7    81    82    1
     8    78    77    1
     9    48    45    1
    10    85    86    1
    11    47    46    2
    12    45    46    1
    13    45    44    1
    14    82    84   ar
    15    82    83   ar
    16    41    43   ar
    17    41    39   ar
    18    43    42   ar
    19    88    87    2
    20    44    35   am
    21    86    89    1
    22    86    87    1
    23    62    61   ar
    24    62    60   ar
    25    89    90    1
    26    61    59   ar
    27    42    40   ar
    28    39    38   ar
    29    60    58   ar
    30    35    36    2
    31    35    34    1
    32    59    57   ar
    33    90    92   ar
    34    90    91   ar
    35    40    38   ar
    36    38    37    1
    37    34    37    1
    38    34    33    1
    39    52    53    1
    40    58    57   ar
    41    57    56    1
    42    93    94    1
    43   103   101    1
    44    53    56    1
    45    53    54    1
    46   100   101    2
    47   100    99    1
    48   101   102    1
    49    98    99    1
    50    98    97    1
    51    94    97    1
    52    94    95    1
    53    54    55    2
    54    31    29   ar
    55    31    32   ar
    56    95    96    2
    57    29    28   ar
    58    75    74    1
    59    22    21    1
    60    21    19   ar
    61    21    20   ar
    62    32    30   ar
    63    19    17   ar
    64    72    71    2
    65    73    74    1
    66    73    70    1
    67    20    18   ar
    68    28    27    1
    69    28    30   ar
    70    74    76    1
    71    17    16   ar
    72    18    16   ar
    73    27    24    1
    74    16    15    1
    75    23    24    1
    76    71    70    1
    77    68    67    1
    78    70    69    1
    79    63    64    1
    80    15    12    1
    81    69    65   am
    82    24    25    1
    83     7     9   ar
    84     7     6   ar
    85     9    10   ar
    86     6     5    1
    87     6     8   ar
    88     5     2    1
    89    10     8   ar
    90    67    64    1
    91    64    65    1
    92    65    66    2
    93    14    13    2
    94    12    13    1
    95    12    11    1
    96    25    26    2
    97     2     3    1
    98     2     1    1
    99     4     3    2
