@<TRIPOS>MOLECULE
tmp/5z12E00.pdb
 230 220 0 0 0
SMALL
GASTEIGER

@<TRIPOS>ATOM
      1  N        -18.1710  -49.3440  -35.3920 N.3    25  ILE25      -0.1231
      2  CA       -17.6770  -49.8380  -34.1150 C.3    25  ILE25       0.1692
      3  C        -18.2270  -51.2530  -33.9120 C.2    25  ILE25       0.2592
      4  O        -17.4620  -52.2010  -33.8890 O.2    25  ILE25      -0.2718
      5  CB       -18.0720  -48.8600  -32.9590 C.3    25  ILE25       0.0266
      6  CG1      -17.3370  -47.5100  -33.1020 C.3    25  ILE25       0.0019
      7  CG2      -17.8580  -49.4860  -31.5710 C.3    25  ILE25       0.0020
      8  CD1      -15.8220  -47.5670  -32.9660 C.3    25  ILE25       0.0001
      9  N        -19.5550  -51.3590  -33.8040 N.am   26  THR26      -0.1953
     10  CA       -20.3160  -52.6240  -33.7530 C.3    26  THR26       0.1897
     11  C        -19.5750  -53.6800  -34.5410 C.2    26  THR26       0.2313
     12  O        -19.1140  -54.6470  -33.9560 O.2    26  THR26      -0.2863
     13  CB       -21.7720  -52.4110  -34.2920 C.3    26  THR26       0.1794
     14  OG1      -22.6280  -51.9480  -33.2360 O.3    26  THR26      -0.2208
     15  CG2      -22.3970  -53.6700  -34.8910 C.3    26  THR26       0.0378
     16  N        -15.9680  -55.4110  -33.6090 N.3    29  ILE29      -0.1245
     17  CA       -15.9720  -56.3690  -32.5090 C.3    29  ILE29       0.1561
     18  C        -16.7270  -57.6660  -32.7960 C.2    29  ILE29       0.2260
     19  O        -16.1720  -58.7420  -32.5920 O.2    29  ILE29      -0.2867
     20  CB       -16.4620  -55.6990  -31.2090 C.3    29  ILE29       0.0252
     21  CG1      -15.3140  -54.8460  -30.6600 C.3    29  ILE29       0.0019
     22  CG2      -16.8660  -56.7390  -30.1590 C.3    29  ILE29       0.0019
     23  CD1      -15.6600  -53.9630  -29.4890 C.3    29  ILE29       0.0001
     24  N         -7.9780  -56.9320  -27.1170 N.3    40  PHE40      -0.1241
     25  CA        -7.2570  -55.7950  -26.5320 C.3    40  PHE40       0.1605
     26  C         -6.7680  -54.7970  -27.6000 C.2    40  PHE40       0.2264
     27  O         -6.9370  -53.5880  -27.4220 O.2    40  PHE40      -0.2867
     28  CB        -6.0840  -56.2680  -25.6440 C.3    40  PHE40       0.0534
     29  CG        -5.2280  -55.1380  -25.1140 C.ar   40  PHE40      -0.0203
     30  CD1       -4.2190  -54.5750  -25.9090 C.ar   40  PHE40      -0.0042
     31  CD2       -5.4340  -54.6210  -23.8400 C.ar   40  PHE40      -0.0042
     32  CE1       -3.4380  -53.5270  -25.4480 C.ar   40  PHE40      -0.0003
     33  CE2       -4.6470  -53.5740  -23.3700 C.ar   40  PHE40      -0.0003
     34  CZ        -3.6480  -53.0300  -24.1760 C.ar   40  PHE40      -0.0000
     35  N         -9.9850  -52.9000  -29.1200 N.3    43  LEU43      -0.1231
     36  CA       -10.5640  -51.9880  -28.1050 C.3    43  LEU43       0.1693
     37  C         -9.6790  -50.7900  -27.7980 C.2    43  LEU43       0.2592
     38  O        -10.1690  -49.6640  -27.6470 O.2    43  LEU43      -0.2718
     39  CB       -10.8310  -52.7530  -26.8100 C.3    43  LEU43       0.0284
     40  CG       -11.9390  -53.8070  -26.8500 C.3    43  LEU43       0.0019
     41  CD1      -11.9210  -54.6670  -25.5930 C.3    43  LEU43       0.0001
     42  CD2      -13.2970  -53.1600  -26.9950 C.3    43  LEU43       0.0001
     43  N         -8.3820  -51.0660  -27.6950 N.am   44  THR44      -0.1953
     44  CA        -7.3450  -50.0500  -27.5680 C.3    44  THR44       0.1897
     45  C         -7.4100  -49.0310  -28.7170 C.2    44  THR44       0.2313
     46  O         -7.3480  -47.8230  -28.4630 O.2    44  THR44      -0.2863
     47  CB        -5.9520  -50.7230  -27.4860 C.3    44  THR44       0.1794
     48  OG1       -5.8480  -51.4350  -26.2450 O.3    44  THR44      -0.2208
     49  CG2       -4.8100  -49.7130  -27.5540 C.3    44  THR44       0.0378
     50  N        -10.0340  -48.4130  -30.9070 N.3    46  MET46      -0.1230
     51  CA       -11.3210  -47.6970  -30.8340 C.3    46  MET46       0.1702
     52  C        -11.2730  -46.5190  -29.8760 C.2    46  MET46       0.2592
     53  O        -11.7340  -45.4230  -30.2000 O.2    46  MET46      -0.2718
     54  CB       -12.4240  -48.5990  -30.3120 C.3    46  MET46       0.0401
     55  CG       -12.8840  -49.6890  -31.2290 C.3    46  MET46       0.0596
     56  SD       -14.1480  -50.6150  -30.3440 S.3    46  MET46      -0.1393
     57  CE       -14.7990  -51.4840  -31.7700 C.3    46  MET46       0.0692
     58  N        -10.7530  -46.7830  -28.6770 N.am   47  ALA47      -0.1980
     59  CA       -10.6220  -45.7690  -27.6340 C.3    47  ALA47       0.1597
     60  C         -9.6810  -44.6480  -28.0780 C.2    47  ALA47       0.2287
     61  O         -9.9180  -43.4680  -27.7980 O.2    47  ALA47      -0.2864
     62  CB       -10.1280  -46.4040  -26.3440 C.3    47  ALA47       0.0319
     63  N        -11.4990  -42.6280  -30.5190 N.3    50  HIS50      -0.1241
     64  CA       -12.5190  -41.8750  -29.7710 C.3    50  HIS50       0.1621
     65  C        -11.9270  -40.6490  -29.0830 C.2    50  HIS50       0.2264
     66  O        -12.5490  -39.5890  -29.0750 O.2    50  HIS50      -0.2867
     67  CB       -13.2600  -42.7480  -28.7480 C.3    50  HIS50       0.0745
     68  CG       -14.1710  -41.9640  -27.8510 C.ar   50  HIS50       0.0817
     69  ND1      -15.3930  -41.4850  -28.2730 N.ar   50  HIS50      -0.2268
     70  CD2      -14.0120  -41.5200  -26.5790 C.ar   50  HIS50       0.1154
     71  CE1      -15.9600  -40.8040  -27.2950 C.ar   50  HIS50       0.1986
     72  NE2      -15.1430  -40.8090  -26.2570 N.ar   50  HIS50      -0.2212
     73  N        -16.2260  -41.6930  -23.0440 N.3    84  MET84      -0.1230
     74  CA       -16.1710  -42.9750  -23.7110 C.3    84  MET84       0.1702
     75  C        -17.3300  -43.8960  -23.3480 C.2    84  MET84       0.2592
     76  O        -17.9010  -44.5440  -24.2360 O.2    84  MET84      -0.2718
     77  CB       -14.8590  -43.6860  -23.3920 C.3    84  MET84       0.0401
     78  CG       -14.8240  -45.1110  -23.9210 C.3    84  MET84       0.0596
     79  SD       -13.1800  -45.8100  -23.9230 S.3    84  MET84      -0.1393
     80  CE       -13.1520  -46.4690  -22.2660 C.3    84  MET84       0.0692
     81  N        -17.6450  -43.9890  -22.0570 N.am   85  PHE85      -0.1976
     82  CA       -18.6900  -44.9110  -21.6020 C.3    85  PHE85       0.1639
     83  C        -20.0690  -44.4830  -22.0480 C.2    85  PHE85       0.2290
     84  O        -20.8950  -45.3350  -22.3830 O.2    85  PHE85      -0.2864
     85  CB       -18.6570  -45.1160  -20.0910 C.3    85  PHE85       0.0560
     86  CG       -17.6500  -46.1240  -19.6630 C.ar   85  PHE85      -0.0200
     87  CD1      -17.9050  -47.4650  -19.8290 C.ar   85  PHE85      -0.0042
     88  CD2      -16.4310  -45.7320  -19.1270 C.ar   85  PHE85      -0.0042
     89  CE1      -16.9730  -48.4060  -19.4460 C.ar   85  PHE85      -0.0003
     90  CE2      -15.4840  -46.6660  -18.7520 C.ar   85  PHE85      -0.0003
     91  CZ       -15.7580  -48.0100  -18.9080 C.ar   85  PHE85      -0.0000
     92  N        -20.5880  -42.8570  -24.8180 N.3    87  ARG87      -0.1231
     93  CA       -20.5660  -43.1900  -26.2370 C.3    87  ARG87       0.1694
     94  C        -20.8330  -44.6680  -26.4680 C.2    87  ARG87       0.2592
     95  O        -21.5420  -45.0420  -27.3980 O.2    87  ARG87      -0.2718
     96  CB       -19.2320  -42.7720  -26.8690 C.3    87  ARG87       0.0321
     97  CG       -19.1250  -43.0030  -28.3760 C.3    87  ARG87       0.0489
     98  CD       -20.2620  -42.4120  -29.2090 C.3    87  ARG87       0.2205
     99  NE       -20.1020  -42.7610  -30.6310 N.pl3  87  ARG87      -0.0865
    100  CZ       -21.0180  -42.5630  -31.5860 C.cat  87  ARG87       0.5346
    101  NH1      -22.1980  -41.9940  -31.3190 N.pl3  87  ARG87       0.1354
    102  NH2      -20.7440  -42.9270  -32.8280 N.pl3  87  ARG87       0.1354
    103  N        -20.2500  -45.4990  -25.6130 N.am   88  SER88      -0.1952
    104  CA       -20.4530  -46.9590  -25.6510 C.3    88  SER88       0.1924
    105  C        -21.9100  -47.2910  -25.3900 C.2    88  SER88       0.2314
    106  O        -22.5180  -48.1250  -26.0510 O.2    88  SER88      -0.2863
    107  CB       -19.5800  -47.6310  -24.6030 C.3    88  SER88       0.2116
    108  OG       -18.2350  -47.1970  -24.7120 O.3    88  SER88      -0.2180
    109  N        -23.8170  -46.5000  -28.4600 N.3    91  ILE91      -0.1231
    110  CA       -23.5710  -47.5170  -29.4830 C.3    91  ILE91       0.1692
    111  C        -24.2340  -48.8340  -29.1520 C.2    91  ILE91       0.2592
    112  O        -24.8320  -49.4390  -30.0200 O.2    91  ILE91      -0.2718
    113  CB       -22.0630  -47.7350  -29.6990 C.3    91  ILE91       0.0266
    114  CG1      -21.4520  -46.4820  -30.3360 C.3    91  ILE91       0.0019
    115  CG2      -21.7970  -48.9060  -30.6370 C.3    91  ILE91       0.0020
    116  CD1      -19.9510  -46.3750  -30.1990 C.3    91  ILE91       0.0001
    117  N        -24.1040  -49.2790  -27.9070 N.am   92  PHE92      -0.1976
    118  CA       -24.6860  -50.5500  -27.4330 C.3    92  PHE92       0.1639
    119  C        -26.2010  -50.6370  -27.5960 C.2    92  PHE92       0.2290
    120  O        -26.7320  -51.6910  -27.9020 O.2    92  PHE92      -0.2864
    121  CB       -24.3440  -50.7720  -25.9500 C.3    92  PHE92       0.0560
    122  CG       -24.6700  -52.1490  -25.4570 C.ar   92  PHE92      -0.0200
    123  CD1      -23.9160  -53.2340  -25.8640 C.ar   92  PHE92      -0.0042
    124  CD2      -25.7410  -52.3560  -24.6050 C.ar   92  PHE92      -0.0042
    125  CE1      -24.2180  -54.5090  -25.4250 C.ar   92  PHE92      -0.0003
    126  CE2      -26.0460  -53.6220  -24.1630 C.ar   92  PHE92      -0.0003
    127  CZ       -25.2820  -54.7060  -24.5710 C.ar   92  PHE92      -0.0000
    128  N        -22.8540  -59.2140  -28.8910 N.3   104  LEU104     -0.1245
    129  CA       -21.9660  -58.0990  -28.6300 C.3   104  LEU104      0.1561
    130  C        -21.5830  -58.0740  -27.1570 C.2   104  LEU104      0.2260
    131  O        -20.4040  -57.9330  -26.8210 O.2   104  LEU104     -0.2867
    132  CB       -22.6420  -56.7980  -29.0280 C.3   104  LEU104      0.0270
    133  CG       -21.8280  -55.5170  -28.8820 C.3   104  LEU104      0.0019
    134  CD1      -20.5230  -55.5770  -29.6660 C.3   104  LEU104      0.0001
    135  CD2      -22.7080  -54.3590  -29.3320 C.3   104  LEU104      0.0001
    136  N        -17.6820  -58.8680  -25.5690 N.3   108  ILE108     -0.1245
    137  CA       -17.0070  -57.9530  -24.6490 C.3   108  ILE108      0.1561
    138  C        -16.6740  -58.6890  -23.3370 C.2   108  ILE108      0.2260
    139  O        -15.6090  -58.4500  -22.7530 O.2   108  ILE108     -0.2867
    140  CB       -17.8570  -56.6970  -24.3930 C.3   108  ILE108      0.0252
    141  CG1      -18.0940  -55.9420  -25.7060 C.3   108  ILE108      0.0019
    142  CG2      -17.1930  -55.7520  -23.3900 C.3   108  ILE108      0.0019
    143  CD1      -19.3590  -55.1090  -25.7000 C.3   108  ILE108      0.0001
    144  N        -11.1810  -58.5890  -19.3860 N.3   113  ILE113     -0.1245
    145  CA       -11.6860  -57.7330  -18.3130 C.3   113  ILE113      0.1561
    146  C        -12.6360  -58.5440  -17.3990 C.2   113  ILE113      0.2260
    147  O        -13.5210  -59.2480  -17.8960 O.2   113  ILE113     -0.2867
    148  CB       -12.3980  -56.4800  -18.8910 C.3   113  ILE113      0.0252
    149  CG1      -11.4020  -55.5840  -19.6570 C.3   113  ILE113      0.0019
    150  CG2      -13.0670  -55.6650  -17.7850 C.3   113  ILE113      0.0019
    151  CD1      -11.5680  -55.5660  -21.1600 C.3   113  ILE113      0.0001
    152  N        -17.3110  -55.6120  -15.5780 N.3   118  ILE118     -0.1245
    153  CA       -18.1540  -55.8030  -16.7590 C.3   118  ILE118      0.1561
    154  C        -19.6320  -55.7300  -16.4330 C.2   118  ILE118      0.2260
    155  O        -20.3870  -55.1050  -17.1720 O.2   118  ILE118     -0.2867
    156  CB       -17.8100  -57.1130  -17.5170 C.3   118  ILE118      0.0252
    157  CG1      -16.4410  -56.9890  -18.2130 C.3   118  ILE118      0.0019
    158  CG2      -18.8710  -57.4820  -18.5510 C.3   118  ILE118      0.0019
    159  CD1      -16.3570  -55.9660  -19.3400 C.3   118  ILE118      0.0001
    160  N        -21.1010  -52.1170  -16.3020 N.3   121  MET121     -0.1245
    161  CA       -21.2280  -51.4630  -17.6280 C.3   121  MET121      0.1570
    162  C        -22.5630  -51.7300  -18.2970 C.2   121  MET121      0.2261
    163  O        -23.3070  -50.8130  -18.6390 O.2   121  MET121     -0.2867
    164  CB       -20.1750  -51.9640  -18.5980 C.3   121  MET121      0.0387
    165  CG       -18.7730  -51.5600  -18.2790 C.3   121  MET121      0.0595
    166  SD       -17.7370  -52.0990  -19.6490 S.3   121  MET121     -0.1393
    167  CE       -16.2020  -52.2190  -18.7250 C.3   121  MET121      0.0692
    168  N        -25.4400  -49.3790  -19.3300 N.3   125  TYR125     -0.1241
    169  CA       -25.8780  -49.3160  -20.7160 C.3   125  TYR125      0.1605
    170  C        -27.3660  -49.6070  -20.7930 C.2   125  TYR125      0.2264
    171  O        -28.1030  -48.8440  -21.3860 O.2   125  TYR125     -0.2867
    172  CB       -25.0810  -50.2700  -21.6300 C.3   125  TYR125      0.0534
    173  CG       -23.5690  -50.0490  -21.7150 C.ar  125  TYR125     -0.0201
    174  CD1      -22.9850  -48.8040  -21.4960 C.ar  125  TYR125     -0.0009
    175  CD2      -22.7330  -51.0980  -22.0590 C.ar  125  TYR125     -0.0009
    176  CE1      -21.6130  -48.6340  -21.5780 C.ar  125  TYR125      0.0417
    177  CE2      -21.3620  -50.9390  -22.1540 C.ar  125  TYR125      0.0417
    178  CZ       -20.8050  -49.7100  -21.8990 C.ar  125  TYR125      0.1957
    179  OH       -19.4380  -49.5610  -21.9740 O.3   125  TYR125     -0.2866
    180  N        -11.3990  -47.0780  -13.5990 N.3   203  HIS203     -0.1241
    181  CA       -10.7980  -47.3390  -14.9160 C.3   203  HIS203      0.1621
    182  C         -9.3290  -47.7500  -14.8470 C.2   203  HIS203      0.2264
    183  O         -8.9250  -48.7640  -15.4150 O.2   203  HIS203     -0.2867
    184  CB       -10.9430  -46.1330  -15.8400 C.3   203  HIS203      0.0745
    185  CG       -10.7460  -46.4590  -17.2880 C.ar  203  HIS203      0.0817
    186  ND1      -11.5670  -47.3330  -17.9670 N.ar  203  HIS203     -0.2268
    187  CD2       -9.8210  -46.0350  -18.1820 C.ar  203  HIS203      0.1154
    188  CE1      -11.1580  -47.4240  -19.2210 C.ar  203  HIS203      0.1986
    189  NE2      -10.0970  -46.6520  -19.3750 N.ar  203  HIS203     -0.2212
    190  N         -9.0500  -51.1970  -13.5320 N.3   206  MET206     -0.1230
    191  CA        -9.6340  -52.1880  -14.4310 C.3   206  MET206      0.1702
    192  C         -8.6400  -52.6450  -15.4840 C.2   206  MET206      0.2592
    193  O         -8.4740  -53.8460  -15.7140 O.2   206  MET206     -0.2718
    194  CB       -10.8670  -51.6180  -15.1210 C.3   206  MET206      0.0401
    195  CG       -11.5140  -52.5850  -16.0910 C.3   206  MET206      0.0596
    196  SD       -12.6860  -51.7600  -17.1500 S.3   206  MET206     -0.1393
    197  CE       -11.5590  -50.9870  -18.3130 C.3   206  MET206      0.0692
    198  N         -8.0080  -51.6710  -16.1250 N.am  207  LEU207     -0.1980
    199  CA        -7.0150  -51.9150  -17.1650 C.3   207  LEU207      0.1596
    200  C         -5.7930  -52.6390  -16.6420 C.2   207  LEU207      0.2287
    201  O         -5.3350  -53.5910  -17.2570 O.2   207  LEU207     -0.2864
    202  CB        -6.5710  -50.5990  -17.7830 C.3   207  LEU207      0.0297
    203  CG        -7.6650  -49.8150  -18.5040 C.3   207  LEU207      0.0022
    204  CD1       -7.1490  -48.4250  -18.8490 C.3   207  LEU207      0.0001
    205  CD2       -8.1520  -50.5410  -19.7560 C.3   207  LEU207      0.0001
    206  N         -0.0190  -50.3530  -24.3460 N.3   212  PHE212     -0.1241
    207  CA        -0.9170  -49.2480  -24.7180 C.3   212  PHE212      0.1605
    208  C         -0.3300  -48.2980  -25.7290 C.2   212  PHE212      0.2264
    209  O          0.8830  -48.1610  -25.8300 O.2   212  PHE212     -0.2867
    210  CB        -1.3310  -48.4340  -23.4880 C.3   212  PHE212      0.0534
    211  CG        -2.4180  -49.0800  -22.6850 C.ar  212  PHE212     -0.0203
    212  CD1       -3.6870  -49.2650  -23.2320 C.ar  212  PHE212     -0.0042
    213  CD2       -2.1770  -49.5160  -21.3900 C.ar  212  PHE212     -0.0042
    214  CE1       -4.6910  -49.8760  -22.5030 C.ar  212  PHE212     -0.0003
    215  CE2       -3.1810  -50.1240  -20.6540 C.ar  212  PHE212     -0.0003
    216  CZ        -4.4390  -50.3050  -21.2130 C.ar  212  PHE212     -0.0000
    217  N         -5.2460  -41.3210  -19.9610 N.3   220  TRP220     -0.1241
    218  CA        -5.7880  -42.2380  -18.9510 C.3   220  TRP220      0.1605
    219  C         -4.8700  -42.4300  -17.7050 C.2   220  TRP220      0.2264
    220  O         -5.3160  -43.0050  -16.7090 O.2   220  TRP220     -0.2867
    221  CB        -6.1020  -43.6030  -19.5960 C.3   220  TRP220      0.0550
    222  CG        -7.2910  -43.6400  -20.5780 C.ar  220  TRP220      0.0003
    223  CD1       -8.1250  -42.6090  -20.9280 C.ar  220  TRP220      0.0946
    224  CD2       -7.7780  -44.7900  -21.2800 C.ar  220  TRP220      0.0152
    225  NE1       -9.0790  -43.0460  -21.8250 N.ar  220  TRP220     -0.2442
    226  CE2       -8.8910  -44.3830  -22.0410 C.ar  220  TRP220      0.0810
    227  CE3       -7.3820  -46.1300  -21.3310 C.ar  220  TRP220      0.0012
    228  CZ2       -9.6090  -45.2670  -22.8260 C.ar  220  TRP220      0.0191
    229  CZ3       -8.0920  -47.0030  -22.1130 C.ar  220  TRP220      0.0001
    230  CH2       -9.1920  -46.5720  -22.8540 C.ar  220  TRP220      0.0015
@<TRIPOS>BOND
     1     1     2    1
     2    15    13    1
     3    11    12    2
     4    11    10    1
     5    13    10    1
     6    13    14    1
     7     2     3    1
     8     2     5    1
     9     3     4    2
    10     3     9   am
    11     9    10    1
    12    16    17    1
    13     6     8    1
    14     6     5    1
    15     5     7    1
    16   102   100    1
    17    18    19    2
    18    18    17    1
    19    17    20    1
    20    57    56    1
    21   100   101    1
    22   100    99    2
    23    55    56    1
    24    55    54    1
    25    20    21    1
    26    20    22    1
    27    50    51    1
    28    51    54    1
    29    51    52    1
    30    21    23    1
    31   115   113    1
    32    99    98    1
    33    63    64    1
    34   114   116    1
    35   114   113    1
    36    53    52    2
    37   112   111    2
    38    52    58   am
    39    64    65    1
    40    64    67    1
    41   113   110    1
    42   134   133    1
    43   110   111    1
    44   110   109    1
    45   135   133    1
    46    98    97    1
    47   111   117   am
    48    35    36    1
    49    65    66    2
    50   132   133    1
    51   132   129    1
    52   128   129    1
    53    67    68    1
    54    45    46    2
    55    45    44    1
    56    58    59    1
    57   129   130    1
    58    97    96    1
    59    69    68   ar
    60    69    71   ar
    61    36    37    1
    62    36    39    1
    63    60    61    2
    64    60    59    1
    65   117   118    1
    66   120   119    2
    67    68    70   ar
    68    37    43   am
    69    37    38    2
    70    43    44    1
    71    59    62    1
    72    26    27    2
    73    26    25    1
    74   119   118    1
    75    44    47    1
    76    49    47    1
    77    47    48    1
    78   118   121    1
    79    95    94    2
    80    71    72   ar
    81   130   131    2
    82    24    25    1
    83    42    40    1
    84    96    93    1
    85    40    39    1
    86    40    41    1
    87    70    72   ar
    88    25    28    1
    89    94    93    1
    90    94   103   am
    91    93    92    1
    92   106   105    2
    93   121   122    1
    94    30    32   ar
    95    30    29   ar
    96   123   122   ar
    97   123   125   ar
    98   209   208    2
    99   208   207    1
   100   141   143    1
   101   141   140    1
   102   104   103    1
   103   104   105    1
   104   104   107    1
   105    28    29    1
   106   136   137    1
   107   122   124   ar
   108    32    34   ar
   109   125   127   ar
   110    29    31   ar
   111   207   206    1
   112   207   210    1
   113   108   107    1
   114   137   140    1
   115   137   138    1
   116   124   126   ar
   117   127   126   ar
   118   140   142    1
   119    76    75    2
   120    34    33   ar
   121    79    78    1
   122    79    80    1
   123    78    77    1
   124    31    33   ar
   125    74    77    1
   126    74    75    1
   127    74    73    1
   128   210   211    1
   129    75    81   am
   130   138   139    2
   131   212   211   ar
   132   212   214   ar
   133   230   228   ar
   134   230   229   ar
   135   228   226   ar
   136   211   213   ar
   137   214   216   ar
   138    84    83    2
   139   177   175   ar
   140   177   178   ar
   141   229   227   ar
   142   175   173   ar
   143    81    82    1
   144    83    82    1
   145   226   225   ar
   146   226   224   ar
   147   179   178    1
   148   178   176   ar
   149   225   223   ar
   150   173   172    1
   151   173   174   ar
   152   172   169    1
   153    82    85    1
   154   176   174   ar
   155   213   215   ar
   156   171   170    2
   157   227   224   ar
   158   224   222   ar
   159   216   215   ar
   160   151   149    1
   161   223   222   ar
   162   170   169    1
   163   169   168    1
   164   222   221    1
   165    85    86    1
   166   217   218    1
   167    87    86   ar
   168    87    89   ar
   169   205   203    1
   170    86    88   ar
   171   149   148    1
   172   166   167    1
   173   166   165    1
   174   221   218    1
   175    89    91   ar
   176   144   145    1
   177   189   188   ar
   178   189   187   ar
   179   159   157    1
   180   188   186   ar
   181    88    90   ar
   182   218   219    1
   183    91    90   ar
   184   148   145    1
   185   148   150    1
   186   204   203    1
   187   163   162    2
   188   164   165    1
   189   164   161    1
   190   158   156    1
   191   203   202    1
   192   145   146    1
   193   197   196    1
   194   162   161    1
   195   157   156    1
   196   187   185   ar
   197   186   185   ar
   198   147   146    2
   199   202   199    1
   200   219   220    2
   201   161   160    1
   202   156   153    1
   203   185   184    1
   204   201   200    2
   205   155   154    2
   206   199   200    1
   207   199   198    1
   208   196   195    1
   209   153   154    1
   210   153   152    1
   211   198   192   am
   212   195   194    1
   213   184   181    1
   214   193   192    2
   215   192   191    1
   216   183   182    2
   217   194   191    1
   218   181   182    1
   219   181   180    1
   220   191   190    1
