@<TRIPOS>MOLECULE
tmp/5z14A00.pdb
 99 96 0 0 0
SMALL
GASTEIGER

@<TRIPOS>ATOM
      1  N        -62.6000    9.7260  -28.1750 N.3   219  PHE219     -0.1227
      2  CA       -62.6350    8.4230  -27.5340 C.3   219  PHE219      0.1736
      3  C        -61.5760    7.5080  -28.1460 C.2   219  PHE219      0.2595
      4  O        -61.4880    7.3790  -29.3730 O.2   219  PHE219     -0.2718
      5  CB       -64.0110    7.8220  -27.7020 C.3   219  PHE219      0.0547
      6  CG       -64.2420    6.6170  -26.8640 C.ar  219  PHE219     -0.0202
      7  CD1      -64.3770    6.7470  -25.4890 C.ar  219  PHE219     -0.0042
      8  CD2      -64.3350    5.3490  -27.4450 C.ar  219  PHE219     -0.0042
      9  CE1      -64.6050    5.6420  -24.6990 C.ar  219  PHE219     -0.0003
     10  CE2      -64.5560    4.2340  -26.6570 C.ar  219  PHE219     -0.0003
     11  CZ       -64.6940    4.3870  -25.2830 C.ar  219  PHE219     -0.0000
     12  N        -60.7520    6.9090  -27.2900 N.am  220  ASN220     -0.1974
     13  CA       -59.6770    6.0330  -27.7460 C.3   220  ASN220      0.1688
     14  C        -58.9670    6.6560  -28.9510 C.2   220  ASN220      0.2292
     15  O        -58.8720    6.0410  -30.0160 O.2   220  ASN220     -0.2864
     16  CB       -60.2500    4.6430  -28.0960 C.3   220  ASN220      0.1181
     17  CG       -59.3560    3.4860  -27.6440 C.2   220  ASN220      0.2629
     18  OD1      -58.1900    3.6690  -27.2660 O.2   220  ASN220     -0.2716
     19  ND2      -59.9170    2.2760  -27.6710 N.am  220  ASN220     -0.0877
     20  N        -66.0090    3.3000  -37.8390 N.3   304  PHE304     -0.1241
     21  CA       -65.7200    3.6770  -36.4750 C.3   304  PHE304      0.1605
     22  C        -66.7120    4.7160  -35.9440 C.2   304  PHE304      0.2264
     23  O        -66.3310    5.7690  -35.4830 O.2   304  PHE304     -0.2867
     24  CB       -64.2440    4.1080  -36.3290 C.3   304  PHE304      0.0534
     25  CG       -63.2600    3.0310  -36.7340 C.ar  304  PHE304     -0.0203
     26  CD1      -63.1810    1.8460  -36.0290 C.ar  304  PHE304     -0.0042
     27  CD2      -62.4500    3.1860  -37.8450 C.ar  304  PHE304     -0.0042
     28  CE1      -62.3060    0.8540  -36.4040 C.ar  304  PHE304     -0.0003
     29  CE2      -61.5630    2.2000  -38.2280 C.ar  304  PHE304     -0.0003
     30  CZ       -61.4880    1.0320  -37.5060 C.ar  304  PHE304     -0.0000
     31  N        -69.0410    3.2280  -33.8760 N.3   306  TYR306     -0.1227
     32  CA       -69.6050    2.3160  -32.9100 C.3   306  TYR306      0.1736
     33  C        -69.9990    3.1150  -31.6760 C.2   306  TYR306      0.2595
     34  O        -69.4330    4.1820  -31.4210 O.2   306  TYR306     -0.2718
     35  CB       -68.6040    1.2210  -32.5710 C.3   306  TYR306      0.0548
     36  CG       -67.3840    1.6710  -31.7810 C.ar  306  TYR306     -0.0200
     37  CD1      -66.2680    2.2410  -32.4180 C.ar  306  TYR306     -0.0009
     38  CD2      -67.3300    1.4850  -30.4100 C.ar  306  TYR306     -0.0009
     39  CE1      -65.1640    2.6420  -31.6950 C.ar  306  TYR306      0.0417
     40  CE2      -66.2200    1.8690  -29.6810 C.ar  306  TYR306      0.0417
     41  CZ       -65.1480    2.4480  -30.3210 C.ar  306  TYR306      0.1957
     42  OH       -64.0620    2.8130  -29.5730 O.3   306  TYR306     -0.2866
     43  N        -71.0110    2.6270  -30.9600 N.am  307  ILE307     -0.1966
     44  CA       -71.4460    3.2450  -29.7020 C.3   307  ILE307      0.1727
     45  C        -70.7380    2.5600  -28.5280 C.2   307  ILE307      0.2616
     46  O        -70.8390    1.3390  -28.3490 O.2   307  ILE307     -0.2715
     47  CB       -72.9740    3.1440  -29.4940 C.3   307  ILE307      0.0290
     48  CG1      -73.7270    3.8610  -30.6070 C.3   307  ILE307      0.0022
     49  CG2      -73.3680    3.7930  -28.1730 C.3   307  ILE307      0.0023
     50  CD1      -75.1580    3.4030  -30.7540 C.3   307  ILE307      0.0001
     51  N        -70.0340    3.3460  -27.7280 N.am  308  LYS308     -0.1963
     52  CA       -69.3000    2.7860  -26.6310 C.3   308  LYS308      0.1728
     53  C        -70.2650    1.9840  -25.7600 C.2   308  LYS308      0.2617
     54  O        -71.4610    2.2970  -25.6850 O.2   308  LYS308     -0.2715
     55  CB       -68.5860    3.8700  -25.8150 C.3   308  LYS308      0.0311
     56  CG       -69.4620    4.6440  -24.8470 C.3   308  LYS308      0.0038
     57  CD       -68.6750    5.6700  -24.0260 C.3   308  LYS308      0.0206
     58  CE       -67.6470    5.0520  -23.0630 C.3   308  LYS308      0.1093
     59  NZ       -68.1570    4.1120  -22.0090 N.3   308  LYS308     -0.1314
     60  N        -69.7390    0.9270  -25.1460 N.am  309  GLY309     -0.1940
     61  CA       -70.4690    0.1260  -24.1910 C.3   309  GLY309      0.2014
     62  C        -71.4490   -0.8600  -24.7860 C.2   309  GLY309      0.2639
     63  O        -72.0890   -1.6060  -24.0460 O.2   309  GLY309     -0.2714
     64  N        -71.5420   -0.9110  -26.1120 N.am  310  SER310     -0.1949
     65  CA       -72.6480   -1.5880  -26.7830 C.3   310  SER310      0.1924
     66  C        -72.1850   -2.6070  -27.8400 C.2   310  SER310      0.2314
     67  O        -71.1450   -2.4590  -28.4660 O.2   310  SER310     -0.2863
     68  CB       -73.5580   -0.5110  -27.4040 C.3   310  SER310      0.2116
     69  OG       -74.1700   -0.9330  -28.6050 O.3   310  SER310     -0.2180
     70  N        -65.8050   -1.3070  -38.0360 N.3   334  GLY334     -0.1225
     71  CA       -65.9660   -0.9580  -36.6220 C.3   334  GLY334      0.1811
     72  C        -67.2640   -0.2710  -36.2560 C.2   334  GLY334      0.2280
     73  O        -67.2580    0.7800  -35.6190 O.2   334  GLY334     -0.2866
     74  N        -69.8000   -2.5470  -35.1740 N.3   336  VAL336     -0.1245
     75  CA       -69.7630   -3.5170  -34.0580 C.3   336  VAL336      0.1561
     76  C        -71.1340   -4.1290  -33.8790 C.2   336  VAL336      0.2260
     77  O        -72.0550   -3.5050  -33.3370 O.2   336  VAL336     -0.2867
     78  CB       -69.2530   -2.9220  -32.7140 C.3   336  VAL336      0.0252
     79  CG1      -69.2070   -4.0020  -31.6360 C.3   336  VAL336      0.0019
     80  CG2      -67.8790   -2.2900  -32.8850 C.3   336  VAL336      0.0019
     81  N        -63.5300   -5.6100  -38.8130 N.3   361  ILE361     -0.1245
     82  CA       -63.5100   -5.3410  -37.3810 C.3   361  ILE361      0.1561
     83  C        -64.8530   -4.8790  -36.7880 C.2   361  ILE361      0.2260
     84  O        -64.9740   -3.8410  -36.1530 O.2   361  ILE361     -0.2867
     85  CB       -62.2680   -4.4920  -37.0040 C.3   361  ILE361      0.0252
     86  CG1      -62.2640   -4.1020  -35.5360 C.3   361  ILE361      0.0019
     87  CG2      -62.1270   -3.2670  -37.8630 C.3   361  ILE361      0.0019
     88  CD1      -60.9440   -3.5060  -35.0930 C.3   361  ILE361      0.0001
     89  N        -66.4970   -7.6470  -35.2030 N.3   363  PHE363     -0.1241
     90  CA       -66.6600   -8.7410  -34.2530 C.3   363  PHE363      0.1605
     91  C        -67.9730   -9.5090  -34.4560 C.2   363  PHE363      0.2264
     92  O        -68.5240  -10.0370  -33.5040 O.2   363  PHE363     -0.2867
     93  CB       -66.4860   -8.2340  -32.8080 C.3   363  PHE363      0.0534
     94  CG       -65.1960   -7.4710  -32.5890 C.ar  363  PHE363     -0.0203
     95  CD1      -63.9780   -8.1420  -32.4570 C.ar  363  PHE363     -0.0042
     96  CD2      -65.1940   -6.0830  -32.5170 C.ar  363  PHE363     -0.0042
     97  CE1      -62.7850   -7.4450  -32.2710 C.ar  363  PHE363     -0.0003
     98  CE2      -64.0010   -5.3770  -32.3230 C.ar  363  PHE363     -0.0003
     99  CZ       -62.7920   -6.0550  -32.2150 C.ar  363  PHE363     -0.0000
@<TRIPOS>BOND
     1    81    82    1
     2    29    27   ar
     3    29    30   ar
     4    70    71    1
     5    87    85    1
     6    27    25   ar
     7    20    21    1
     8    30    28   ar
     9    82    85    1
    10    82    83    1
    11    85    86    1
    12    83    84    2
    13    25    24    1
    14    25    26   ar
    15    71    72    1
    16    21    24    1
    17    21    22    1
    18    28    26   ar
    19    72    73    2
    20    22    23    2
    21    86    88    1
    22    89    90    1
    23    74    75    1
    24    91    90    1
    25    91    92    2
    26    90    93    1
    27    75    76    1
    28    75    78    1
    29    76    77    2
    30    31    32    1
    31    32    35    1
    32    32    33    1
    33    80    78    1
    34    93    94    1
    35    78    79    1
    36    94    96   ar
    37    94    95   ar
    38    35    36    1
    39    96    98   ar
    40    95    97   ar
    41    37    36   ar
    42    37    39   ar
    43    98    99   ar
    44    97    99   ar
    45    36    38   ar
    46    39    41   ar
    47    33    34    2
    48    33    43   am
    49    43    44    1
    50    50    48    1
    51    48    47    1
    52    38    40   ar
    53    41    40   ar
    54    41    42    1
    55    15    14    2
    56    44    47    1
    57    44    45    1
    58    47    49    1
    59     4     3    2
    60    14    13    1
    61    69    68    1
    62    45    46    2
    63    45    51   am
    64    67    66    2
    65     1     2    1
    66     3     2    1
    67     3    12   am
    68    16    13    1
    69    16    17    1
    70    66    65    1
    71    13    12    1
    72    51    52    1
    73     5     2    1
    74     5     6    1
    75    19    17   am
    76    17    18    2
    77     8     6   ar
    78     8    10   ar
    79    68    65    1
    80     6     7   ar
    81    65    64    1
    82    10    11   ar
    83    52    55    1
    84    52    53    1
    85    64    62   am
    86    55    56    1
    87    53    54    2
    88    53    60   am
    89     7     9   ar
    90    11     9   ar
    91    60    61    1
    92    56    57    1
    93    62    61    1
    94    62    63    2
    95    57    58    1
    96    58    59    1
