@<TRIPOS>MOLECULE
tmp/5z19B00.pdb
 172 169 0 0 0
SMALL
GASTEIGER

@<TRIPOS>ATOM
      1  N       -426.1510 -128.4790  904.0970 N.3   165  PHE165     -0.1227
      2  CA      -426.9040 -127.7920  905.1410 C.3   165  PHE165      0.1736
      3  C       -428.4070 -128.0070  904.9840 C.2   165  PHE165      0.2595
      4  O       -428.8840 -128.3620  903.9060 O.2   165  PHE165     -0.2718
      5  CB      -426.5860 -126.2990  905.1300 C.3   165  PHE165      0.0547
      6  CG      -426.6790 -125.6720  903.7700 C.ar  165  PHE165     -0.0202
      7  CD1     -427.8870 -125.1980  903.2890 C.ar  165  PHE165     -0.0042
      8  CD2     -425.5540 -125.5550  902.9720 C.ar  165  PHE165     -0.0042
      9  CE1     -427.9720 -124.6190  902.0380 C.ar  165  PHE165     -0.0003
     10  CE2     -425.6320 -124.9800  901.7220 C.ar  165  PHE165     -0.0003
     11  CZ      -426.8430 -124.5090  901.2540 C.ar  165  PHE165     -0.0000
     12  N       -429.1480 -127.7870  906.0650 N.am  166  ASP166     -0.1960
     13  CA      -430.5730 -128.1030  906.0910 C.3   166  ASP166      0.1840
     14  C       -431.4940 -126.9040  905.8140 C.2   166  ASP166      0.2622
     15  O       -432.3520 -126.5700  906.6320 O.2   166  ASP166     -0.2715
     16  CB      -430.9330 -128.7340  907.4410 C.3   166  ASP166      0.1450
     17  CG      -432.3500 -129.2820  907.4750 C.2   166  ASP166      0.3671
     18  OD1     -432.8080 -129.8140  906.4420 O.co2 166  ASP166     -0.2456
     19  OD2     -433.0020 -129.1740  908.5350 O.co2 166  ASP166     -0.2456
     20  N       -431.3030 -126.2380  904.6790 N.am  167  PHE167     -0.1974
     21  CA      -432.3030 -125.2830  904.2010 C.3   167  PHE167      0.1639
     22  C       -432.2450 -125.1600  902.6840 C.2   167  PHE167      0.2290
     23  O       -431.2010 -125.3930  902.0760 O.2   167  PHE167     -0.2864
     24  CB      -432.1510 -123.9020  904.8570 C.3   167  PHE167      0.0560
     25  CG      -430.7780 -123.2940  904.7430 C.ar  167  PHE167     -0.0200
     26  CD1     -430.4570 -122.4650  903.6780 C.ar  167  PHE167     -0.0042
     27  CD2     -429.8240 -123.5110  905.7230 C.ar  167  PHE167     -0.0042
     28  CE1     -429.2050 -121.8830  903.5800 C.ar  167  PHE167     -0.0003
     29  CE2     -428.5690 -122.9320  905.6330 C.ar  167  PHE167     -0.0003
     30  CZ      -428.2590 -122.1170  904.5580 C.ar  167  PHE167     -0.0000
     31  N       -434.9950 -117.8540  910.2870 N.3   300  HIS300     -0.1241
     32  CA      -434.6040 -117.9690  908.8920 C.3   300  HIS300      0.1621
     33  C       -435.2580 -116.8420  908.1160 C.2   300  HIS300      0.2264
     34  O       -436.3720 -116.4300  908.4390 O.2   300  HIS300     -0.2867
     35  CB      -435.0190 -119.3200  908.3060 C.3   300  HIS300      0.0745
     36  CG      -433.9050 -120.3210  908.2310 C.ar  300  HIS300      0.0817
     37  ND1     -432.7640 -120.1070  907.4930 N.ar  300  HIS300     -0.2268
     38  CD2     -433.7770 -121.5500  908.7790 C.ar  300  HIS300      0.1154
     39  CE1     -431.9690 -121.1570  907.5990 C.ar  300  HIS300      0.1986
     40  NE2     -432.5610 -122.0500  908.3770 N.ar  300  HIS300     -0.2212
     41  N       -428.7920 -119.0220  908.8450 N.3   334  HIS334     -0.1241
     42  CA      -427.3870 -119.3140  909.1170 C.3   334  HIS334      0.1621
     43  C       -426.5370 -118.3920  908.2560 C.2   334  HIS334      0.2264
     44  O       -425.6270 -118.8380  907.5620 O.2   334  HIS334     -0.2867
     45  CB      -427.0450 -120.7770  908.8160 C.3   334  HIS334      0.0745
     46  CG      -427.6900 -121.7590  909.7430 C.ar  334  HIS334      0.0817
     47  ND1     -427.4110 -121.7980  911.0920 N.ar  334  HIS334     -0.2268
     48  CD2     -428.5850 -122.7490  909.5140 C.ar  334  HIS334      0.1154
     49  CE1     -428.1120 -122.7640  911.6570 C.ar  334  HIS334      0.1986
     50  NE2     -428.8340 -123.3580  910.7200 N.ar  334  HIS334     -0.2212
     51  N       -426.9630 -133.8870  906.2180 N.3   367  ASN367     -0.1225
     52  CA      -426.2210 -133.4530  907.4040 C.3   367  ASN367      0.1785
     53  C       -426.9420 -133.4720  908.7620 C.2   367  ASN367      0.2597
     54  O       -426.3030 -133.6950  909.7910 O.2   367  ASN367     -0.2718
     55  CB      -425.6970 -132.0380  907.1540 C.3   367  ASN367      0.1169
     56  CG      -426.8130 -131.0190  907.0190 C.2   367  ASN367      0.2627
     57  OD1     -427.5920 -131.0560  906.0680 O.2   367  ASN367     -0.2716
     58  ND2     -426.8920 -130.1000  907.9740 N.am  367  ASN367     -0.0877
     59  N       -428.2540 -133.2390  908.7800 N.am  368  PHE368     -0.1976
     60  CA      -428.9770 -133.1560  910.0540 C.3   368  PHE368      0.1639
     61  C       -429.0230 -134.5000  910.7870 C.2   368  PHE368      0.2290
     62  O       -429.1220 -134.5390  912.0140 O.2   368  PHE368     -0.2864
     63  CB      -430.3960 -132.5980  909.8670 C.3   368  PHE368      0.0560
     64  CG      -431.1850 -133.2550  908.7750 C.ar  368  PHE368     -0.0200
     65  CD1     -432.0330 -134.3130  909.0580 C.ar  368  PHE368     -0.0042
     66  CD2     -431.0970 -132.8020  907.4700 C.ar  368  PHE368     -0.0042
     67  CE1     -432.7680 -134.9140  908.0570 C.ar  368  PHE368     -0.0003
     68  CE2     -431.8290 -133.3970  906.4660 C.ar  368  PHE368     -0.0003
     69  CZ      -432.6650 -134.4550  906.7580 C.ar  368  PHE368     -0.0000
     70  N       -421.4340 -122.7960  912.2120 N.3   416  ASN416     -0.1225
     71  CA      -422.5140 -123.6460  912.6910 C.3   416  ASN416      0.1785
     72  C       -422.2760 -125.1060  912.3350 C.2   416  ASN416      0.2597
     73  O       -422.3330 -125.4870  911.1650 O.2   416  ASN416     -0.2718
     74  CB      -423.8580 -123.1930  912.1250 C.3   416  ASN416      0.1169
     75  CG      -425.0170 -124.0240  912.6480 C.2   416  ASN416      0.2627
     76  OD1     -425.5470 -123.7640  913.7280 O.2   416  ASN416     -0.2716
     77  ND2     -425.4110 -125.0390  911.8840 N.am  416  ASN416     -0.0877
     78  N       -422.0030 -125.9090  913.3570 N.am  417  GLU417     -0.1979
     79  CA      -421.8240 -127.3540  913.2170 C.3   417  GLU417      0.1602
     80  C       -420.7500 -127.8010  912.2150 C.2   417  GLU417      0.2287
     81  O       -421.0460 -128.5640  911.2960 O.2   417  GLU417     -0.2864
     82  CB      -423.1630 -127.9810  912.8260 C.3   417  GLU417      0.0415
     83  CG      -424.2850 -127.6680  913.7990 C.3   417  GLU417      0.1163
     84  CD      -425.6010 -128.2920  913.3860 C.2   417  GLU417      0.3649
     85  OE1     -425.7180 -128.7110  912.2140 O.co2 417  GLU417     -0.2457
     86  OE2     -426.5220 -128.3510  914.2290 O.co2 417  GLU417     -0.2457
     87  N       -430.0630 -132.2600  920.4050 N.3   473  TYR473     -0.1241
     88  CA      -431.3760 -132.7920  920.0910 C.3   473  TYR473      0.1605
     89  C       -431.6340 -134.0770  920.8580 C.2   473  TYR473      0.2264
     90  O       -432.0580 -135.0820  920.2870 O.2   473  TYR473     -0.2867
     91  CB      -431.5070 -133.0150  918.5850 C.3   473  TYR473      0.0534
     92  CG      -431.5930 -131.7140  917.8240 C.ar  473  TYR473     -0.0201
     93  CD1     -432.8080 -131.0590  917.6660 C.ar  473  TYR473     -0.0009
     94  CD2     -430.4550 -131.1200  917.2990 C.ar  473  TYR473     -0.0009
     95  CE1     -432.8900 -129.8580  916.9850 C.ar  473  TYR473      0.0417
     96  CE2     -430.5260 -129.9210  916.6180 C.ar  473  TYR473      0.0417
     97  CZ      -431.7440 -129.2950  916.4640 C.ar  473  TYR473      0.1957
     98  OH      -431.8110 -128.1000  915.7860 O.3   473  TYR473     -0.2866
     99  N       -433.4440 -136.6760  917.6810 N.3   477  TYR477     -0.1241
    100  CA      -432.4810 -137.4610  916.9200 C.3   477  TYR477      0.1605
    101  C       -431.8360 -138.5220  917.8000 C.2   477  TYR477      0.2264
    102  O       -431.4730 -139.6000  917.3330 O.2   477  TYR477     -0.2867
    103  CB      -431.4020 -136.5620  916.3160 C.3   477  TYR477      0.0534
    104  CG      -431.9010 -135.6570  915.2140 C.ar  477  TYR477     -0.0201
    105  CD1     -432.6970 -136.1530  914.1910 C.ar  477  TYR477     -0.0009
    106  CD2     -431.5670 -134.3080  915.1900 C.ar  477  TYR477     -0.0009
    107  CE1     -433.1550 -135.3310  913.1820 C.ar  477  TYR477      0.0417
    108  CE2     -432.0210 -133.4760  914.1830 C.ar  477  TYR477      0.0417
    109  CZ      -432.8130 -133.9940  913.1810 C.ar  477  TYR477      0.1957
    110  OH      -433.2700 -133.1790  912.1710 O.3   477  TYR477     -0.2866
    111  N       -429.6080 -124.3390  919.6520 N.3   511  GLU511     -0.1245
    112  CA      -430.5830 -125.1740  918.9570 C.3   511  GLU511      0.1567
    113  C       -431.0920 -126.3230  919.8140 C.2   511  GLU511      0.2260
    114  O       -430.3170 -127.0460  920.4430 O.2   511  GLU511     -0.2867
    115  CB      -429.9960 -125.7540  917.6670 C.3   511  GLU511      0.0388
    116  CG      -429.9640 -124.8060  916.4820 C.3   511  GLU511      0.1160
    117  CD      -429.4500 -125.4710  915.2210 C.2   511  GLU511      0.3649
    118  OE1     -429.6520 -126.6950  915.0710 O.co2 511  GLU511     -0.2457
    119  OE2     -428.8500 -124.7680  914.3790 O.co2 511  GLU511     -0.2457
    120  N       -434.9170 -123.9580  918.3490 N.3   556  TRP556     -0.1241
    121  CA      -434.9380 -124.1780  916.9110 C.3   556  TRP556      0.1605
    122  C       -436.2420 -124.8570  916.5090 C.2   556  TRP556      0.2264
    123  O       -436.5050 -125.9740  916.9580 O.2   556  TRP556     -0.2867
    124  CB      -433.7440 -125.0380  916.5000 C.3   556  TRP556      0.0550
    125  CG      -433.5790 -125.1730  915.0300 C.ar  556  TRP556      0.0003
    126  CD1     -433.9500 -126.2340  914.2530 C.ar  556  TRP556      0.0946
    127  CD2     -432.9920 -124.2160  914.1490 C.ar  556  TRP556      0.0152
    128  NE1     -433.6320 -125.9910  912.9440 N.ar  556  TRP556     -0.2442
    129  CE2     -433.0410 -124.7550  912.8510 C.ar  556  TRP556      0.0810
    130  CE3     -432.4270 -122.9480  914.3310 C.ar  556  TRP556      0.0012
    131  CZ2     -432.5490 -124.0780  911.7390 C.ar  556  TRP556      0.0191
    132  CZ3     -431.9400 -122.2750  913.2290 C.ar  556  TRP556      0.0001
    133  CH2     -432.0020 -122.8410  911.9470 C.ar  556  TRP556      0.0015
    134  N       -439.7400 -123.8310  908.0910 N.3   561  PHE561     -0.1241
    135  CA      -439.0670 -123.2370  906.9440 C.3   561  PHE561      0.1605
    136  C       -438.7800 -124.2620  905.8590 C.2   561  PHE561      0.2264
    137  O       -438.8340 -125.4680  906.0950 O.2   561  PHE561     -0.2867
    138  CB      -437.7660 -122.5500  907.3770 C.3   561  PHE561      0.0534
    139  CG      -436.7730 -123.4670  908.0440 C.ar  561  PHE561     -0.0203
    140  CD1     -435.8460 -124.1740  907.2910 C.ar  561  PHE561     -0.0042
    141  CD2     -436.7540 -123.6090  909.4230 C.ar  561  PHE561     -0.0042
    142  CE1     -434.9260 -125.0080  907.9010 C.ar  561  PHE561     -0.0003
    143  CE2     -435.8360 -124.4430  910.0380 C.ar  561  PHE561     -0.0003
    144  CZ      -434.9190 -125.1410  909.2750 C.ar  561  PHE561     -0.0000
    145  N       -438.0460 -134.7750  905.6080 N.3   569  ARG569     -0.1245
    146  CA      -438.5050 -133.3940  905.6160 C.3   569  ARG569      0.1563
    147  C       -439.8700 -133.3020  904.9480 C.2   569  ARG569      0.2260
    148  O       -439.9800 -133.2930  903.7230 O.2   569  ARG569     -0.2867
    149  CB      -437.4930 -132.4870  904.9130 C.3   569  ARG569      0.0307
    150  CG      -436.2090 -132.2550  905.7020 C.3   569  ARG569      0.0489
    151  CD      -436.4750 -131.4200  906.9450 C.3   569  ARG569      0.2205
    152  NE      -435.2780 -131.2330  907.7640 N.pl3 569  ARG569     -0.0865
    153  CZ      -434.9920 -131.9530  908.8460 C.cat 569  ARG569      0.5346
    154  NH1     -435.8200 -132.9070  909.2480 N.pl3 569  ARG569      0.1354
    155  NH2     -433.8830 -131.7130  909.5330 N.pl3 569  ARG569      0.1354
    156  N       -438.6740 -128.0810  907.0750 N.3   573  ASN573     -0.1240
    157  CA      -438.3980 -128.3510  908.4800 C.3   573  ASN573      0.1653
    158  C       -439.5450 -127.8550  909.3520 C.2   573  ASN573      0.2266
    159  O       -439.9700 -126.7060  909.2300 O.2   573  ASN573     -0.2867
    160  CB      -437.0790 -127.6900  908.8850 C.3   573  ASN573      0.1155
    161  CG      -436.6180 -128.0860  910.2760 C.2   573  ASN573      0.2627
    162  OD1     -437.3440 -127.9270  911.2560 O.2   573  ASN573     -0.2716
    163  ND2     -435.3960 -128.5990  910.3670 N.am  573  ASN573     -0.0877
    164  N       -439.6510 -127.8770  912.8590 N.3   575  LYS575     -0.1245
    165  CA      -439.2620 -127.6680  914.2490 C.3   575  LYS575      0.1561
    166  C       -439.6810 -126.2820  914.7190 C.2   575  LYS575      0.2260
    167  O       -439.3350 -125.8530  915.8190 O.2   575  LYS575     -0.2867
    168  CB      -437.7560 -127.8670  914.4220 C.3   575  LYS575      0.0271
    169  CG      -437.3060 -129.3030  914.1990 C.3   575  LYS575      0.0035
    170  CD      -435.8980 -129.5450  914.7170 C.3   575  LYS575      0.0206
    171  CE      -435.4620 -130.9790  914.4520 C.3   575  LYS575      0.1093
    172  NZ      -435.4110 -131.2860  912.9940 N.3   575  LYS575     -0.1314
@<TRIPOS>BOND
     1    11    10   ar
     2    11     9   ar
     3    10     8   ar
     4     9     7   ar
     5    23    22    2
     6    22    21    1
     7     8     6   ar
     8     7     6   ar
     9    28    26   ar
    10    28    30   ar
    11    26    25   ar
    12   148   147    2
    13     6     5    1
    14     4     3    2
    15     1     2    1
    16    21    20    1
    17    21    24    1
    18    30    29   ar
    19    20    14   am
    20    25    24    1
    21    25    27   ar
    22   149   146    1
    23   149   150    1
    24   147   146    1
    25     3     2    1
    26     3    12   am
    27     5     2    1
    28   145   146    1
    29    29    27   ar
    30   150   151    1
    31    14    13    1
    32    14    15    2
    33   136   137    2
    34   136   135    1
    35    12    13    1
    36    57    56    2
    37    13    16    1
    38    51    52    1
    39    18    17   ar
    40    68    69   ar
    41    68    66   ar
    42    69    67   ar
    43   135   138    1
    44   135   134    1
    45   151   152    1
    46    56    55    1
    47    56    58   am
    48   156   157    1
    49    55    52    1
    50   140   142   ar
    51   140   139   ar
    52   138   139    1
    53    52    53    1
    54    16    17    1
    55    66    64   ar
    56    17    19   ar
    57    37    39   ar
    58    37    36   ar
    59    44    43    2
    60    39    40   ar
    61   152   153    2
    62   142   144   ar
    63   139   141   ar
    64    67    65   ar
    65    33    34    2
    66    33    32    1
    67    36    35    1
    68    36    38   ar
    69    43    42    1
    70    35    32    1
    71    40    38   ar
    72   157   160    1
    73   157   158    1
    74    53    59   am
    75    53    54    2
    76    64    65   ar
    77    64    63    1
    78    59    60    1
    79    45    42    1
    80    45    46    1
    81    41    42    1
    82   153   154    1
    83   153   155    1
    84   160   161    1
    85    32    31    1
    86   159   158    2
    87   144   143   ar
    88   141   143   ar
    89    48    46   ar
    90    48    50   ar
    91    46    47   ar
    92    63    60    1
    93    60    61    1
    94   161   163   am
    95   161   162    2
    96    50    49   ar
    97    61    62    2
    98    47    49   ar
    99    73    72    2
   100    81    80    2
   101   131   133   ar
   102   131   129   ar
   103    77    75   am
   104   133   132   ar
   105    74    75    1
   106    74    71    1
   107   110   109    1
   108    70    71    1
   109    85    84   ar
   110    80    79    1
   111    72    71    1
   112    72    78   am
   113    75    76    2
   114    82    79    1
   115    82    83    1
   116   129   128   ar
   117   129   127   ar
   118   164   165    1
   119   128   126   ar
   120   172   171    1
   121   109   107   ar
   122   109   108   ar
   123   107   105   ar
   124    79    78    1
   125   132   130   ar
   126    84    83    1
   127    84    86   ar
   128   127   130   ar
   129   127   125   ar
   130   108   106   ar
   131   105   104   ar
   132   169   168    1
   133   169   170    1
   134   165   168    1
   135   165   166    1
   136   126   125   ar
   137   119   117   ar
   138   171   170    1
   139   166   167    2
   140   125   124    1
   141   118   117   ar
   142   106   104   ar
   143   104   103    1
   144   117   116    1
   145    98    97    1
   146   103   100    1
   147    97    96   ar
   148    97    95   ar
   149   116   115    1
   150   124   121    1
   151   122   121    1
   152   122   123    2
   153    96    94   ar
   154   121   120    1
   155   100    99    1
   156   100   101    1
   157    95    93   ar
   158    94    92   ar
   159   102   101    2
   160    93    92   ar
   161   115   112    1
   162    92    91    1
   163    91    88    1
   164   112   111    1
   165   112   113    1
   166   113   114    2
   167    88    87    1
   168    88    89    1
   169    90    89    2
