@<TRIPOS>MOLECULE
tmp/5z1aA00.pdb
 128 122 0 0 0
SMALL
GASTEIGER

@<TRIPOS>ATOM
      1  N         12.1330  117.8530   12.9180 N.3   131  ASP131     -0.1239
      2  CA        12.1620  116.4350   13.2770 C.3   131  ASP131      0.1674
      3  C         10.8990  116.0720   14.0550 C.2   131  ASP131      0.2266
      4  O         10.9820  115.5580   15.1780 O.2   131  ASP131     -0.2867
      5  CB        13.4170  116.1350   14.1160 C.3   131  ASP131      0.1410
      6  CG        13.5710  114.6560   14.4380 C.2   131  ASP131      0.3668
      7  OD1       13.2560  113.8040   13.5630 O.co2 131  ASP131     -0.2456
      8  OD2       14.0330  114.3470   15.5620 O.co2 131  ASP131     -0.2456
      9  N          8.3370  122.6850   19.6370 N.3   324  HIS324     -0.1241
     10  CA         9.1030  123.7100   18.9330 C.3   324  HIS324      0.1621
     11  C          8.1310  124.7770   18.4270 C.2   324  HIS324      0.2264
     12  O          8.2280  125.1810   17.2720 O.2   324  HIS324     -0.2867
     13  CB         9.8210  123.1330   17.6980 C.3   324  HIS324      0.0745
     14  CG        11.0550  122.3400   17.9960 C.ar  324  HIS324      0.0817
     15  ND1       12.1090  122.8410   18.7270 N.ar  324  HIS324     -0.2268
     16  CD2       11.4300  121.0970   17.6000 C.ar  324  HIS324      0.1154
     17  CE1       13.0690  121.9310   18.8020 C.ar  324  HIS324      0.1986
     18  NE2       12.6860  120.8660   18.1160 N.ar  324  HIS324     -0.2212
     19  N         12.1070  126.7410   12.7720 N.3   349  VAL349     -0.1245
     20  CA        12.8830  125.5070   12.9700 C.3   349  VAL349      0.1561
     21  C         13.7240  125.2100   11.7290 C.2   349  VAL349      0.2260
     22  O         13.1900  125.1890   10.6070 O.2   349  VAL349     -0.2867
     23  CB        11.9460  124.2980   13.2560 C.3   349  VAL349      0.0252
     24  CG1       12.7350  122.9770   13.3860 C.3   349  VAL349      0.0019
     25  CG2       11.1050  124.5500   14.4910 C.3   349  VAL349      0.0019
     26  N         15.2750  127.5730   16.2780 N.3   393  ASN393     -0.1225
     27  CA        15.9000  126.3070   16.6340 C.3   393  ASN393      0.1785
     28  C         16.6790  125.7630   15.4260 C.2   393  ASN393      0.2597
     29  O         16.0800  125.3820   14.4090 O.2   393  ASN393     -0.2718
     30  CB        14.8480  125.2990   17.1090 C.3   393  ASN393      0.1169
     31  CG        15.4430  123.9230   17.3970 C.2   393  ASN393      0.2627
     32  OD1       15.9890  123.6740   18.4760 O.2   393  ASN393     -0.2716
     33  ND2       15.3460  123.0200   16.4190 N.am  393  ASN393     -0.0877
     34  N         18.0080  125.7690   15.5290 N.am  394  GLU394     -0.1979
     35  CA        18.9000  125.1580   14.5190 C.3   394  GLU394      0.1602
     36  C         18.7740  125.7380   13.0910 C.2   394  GLU394      0.2287
     37  O         18.8200  125.0090   12.1070 O.2   394  GLU394     -0.2864
     38  CB        18.7010  123.6220   14.4880 C.3   394  GLU394      0.0415
     39  CG        18.9930  122.9590   15.8600 C.3   394  GLU394      0.1163
     40  CD        18.9540  121.4410   15.8320 C.2   394  GLU394      0.3649
     41  OE1       18.4380  120.9020   14.8410 O.co2 394  GLU394     -0.2457
     42  OE2       19.4460  120.7970   16.8120 O.co2 394  GLU394     -0.2457
     43  N         24.7310  116.6830   21.6560 N.3   444  TYR444     -0.1241
     44  CA        24.5360  115.2270   21.6920 C.3   444  TYR444      0.1605
     45  C         25.8580  114.4630   21.7820 C.2   444  TYR444      0.2264
     46  O         25.9890  113.3490   21.2620 O.2   444  TYR444     -0.2867
     47  CB        23.7330  114.7780   20.4540 C.3   444  TYR444      0.0534
     48  CG        22.3120  115.3360   20.5320 C.ar  444  TYR444     -0.0201
     49  CD1       21.3330  114.6390   21.2450 C.ar  444  TYR444     -0.0009
     50  CD2       21.9700  116.5590   19.9380 C.ar  444  TYR444     -0.0009
     51  CE1       20.0490  115.1220   21.3720 C.ar  444  TYR444      0.0417
     52  CE2       20.6550  117.0610   20.0490 C.ar  444  TYR444      0.0417
     53  CZ        19.7120  116.3300   20.7830 C.ar  444  TYR444      0.1957
     54  OH        18.4190  116.7810   20.9320 O.3   444  TYR444     -0.2866
     55  N         25.3580  111.3510   19.1670 N.3   448  TYR448     -0.1241
     56  CA        25.5690  111.4950   17.7330 C.3   448  TYR448      0.1605
     57  C         27.0780  111.5160   17.4270 C.2   448  TYR448      0.2264
     58  O         27.5270  112.1810   16.5070 O.2   448  TYR448     -0.2867
     59  CB        24.8980  112.7590   17.1820 C.3   448  TYR448      0.0534
     60  CG        23.3860  112.6610   16.9530 C.ar  448  TYR448     -0.0201
     61  CD1       22.5350  113.6890   17.3660 C.ar  448  TYR448     -0.0009
     62  CD2       22.8220  111.5710   16.2920 C.ar  448  TYR448     -0.0009
     63  CE1       21.1540  113.6270   17.1460 C.ar  448  TYR448      0.0417
     64  CE2       21.4390  111.4980   16.0710 C.ar  448  TYR448      0.0417
     65  CZ        20.6170  112.5370   16.5120 C.ar  448  TYR448      0.1957
     66  OH        19.2520  112.4960   16.3150 O.3   448  TYR448     -0.2866
     67  N         19.0260  121.4310   24.3830 N.3   475  GLU475     -0.1245
     68  CA        18.7330  119.9970   24.2070 C.3   475  GLU475      0.1567
     69  C         19.9480  119.1580   24.5600 C.2   475  GLU475      0.2260
     70  O         21.0500  119.4980   24.1430 O.2   475  GLU475     -0.2867
     71  CB        18.3720  119.6640   22.7480 C.3   475  GLU475      0.0388
     72  CG        17.0600  120.2600   22.2400 C.3   475  GLU475      0.1160
     73  CD        16.8790  120.0770   20.7440 C.2   475  GLU475      0.3649
     74  OE1       17.6170  119.2580   20.1330 O.co2 475  GLU475     -0.2457
     75  OE2       15.9920  120.7580   20.1710 O.co2 475  GLU475     -0.2457
     76  N         16.3590  116.5700   26.0400 N.3   527  TRP527     -0.1241
     77  CA        15.5980  116.1580   24.8640 C.3   527  TRP527      0.1605
     78  C         15.4630  114.6430   24.9570 C.2   527  TRP527      0.2264
     79  O         16.4590  113.9480   24.7740 O.2   527  TRP527     -0.2867
     80  CB        16.3370  116.5620   23.5850 C.3   527  TRP527      0.0550
     81  CG        15.4660  116.4640   22.3740 C.ar  527  TRP527      0.0003
     82  CD1       15.5110  115.4980   21.4000 C.ar  527  TRP527      0.0946
     83  CD2       14.4100  117.3690   22.0040 C.ar  527  TRP527      0.0152
     84  NE1       14.5390  115.7510   20.4430 N.ar  527  TRP527     -0.2442
     85  CE2       13.8610  116.8960   20.7860 C.ar  527  TRP527      0.0810
     86  CE3       13.8870  118.5350   22.5770 C.ar  527  TRP527      0.0012
     87  CZ2       12.8070  117.5580   20.1270 C.ar  527  TRP527      0.0191
     88  CZ3       12.8250  119.2010   21.9250 C.ar  527  TRP527      0.0001
     89  CH2       12.3040  118.7080   20.7120 C.ar  527  TRP527      0.0015
     90  N          8.4740  110.8140   20.9600 N.3   532  PHE532     -0.1241
     91  CA         7.4900  111.5710   20.1730 C.3   532  PHE532      0.1605
     92  C          7.5120  111.1950   18.7030 C.2   532  PHE532      0.2264
     93  O          8.4220  110.5070   18.2440 O.2   532  PHE532     -0.2867
     94  CB         7.7160  113.0810   20.3400 C.3   532  PHE532      0.0534
     95  CG         9.0470  113.5600   19.8580 C.ar  532  PHE532     -0.0203
     96  CD1        9.2270  113.9370   18.5350 C.ar  532  PHE532     -0.0042
     97  CD2       10.1310  113.6610   20.7460 C.ar  532  PHE532     -0.0042
     98  CE1       10.4730  114.3700   18.0830 C.ar  532  PHE532     -0.0003
     99  CE2       11.3610  114.1070   20.3060 C.ar  532  PHE532     -0.0003
    100  CZ        11.5270  114.4730   18.9640 C.ar  532  PHE532     -0.0000
    101  N         11.7830  109.0590   10.8300 N.3   537  ARG537     -0.1245
    102  CA        12.7540  108.2960   11.6110 C.3   537  ARG537      0.1563
    103  C         12.6520  106.7930   11.3130 C.2   537  ARG537      0.2260
    104  O         11.5490  106.2470   11.1510 O.2   537  ARG537     -0.2867
    105  CB        12.5440  108.5390   13.1160 C.3   537  ARG537      0.0307
    106  CG        12.9650  109.9340   13.6290 C.3   537  ARG537      0.0489
    107  CD        14.5130  110.0570   13.7830 C.3   537  ARG537      0.2205
    108  NE        14.8750  111.4050   14.2420 N.pl3 537  ARG537     -0.0865
    109  CZ        16.0900  111.7780   14.6300 C.cat 537  ARG537      0.5346
    110  NH1       17.0960  110.8950   14.6490 N.pl3 537  ARG537      0.1354
    111  NH2       16.2880  113.0380   15.0280 N.pl3 537  ARG537      0.1354
    112  N         10.8690  109.2930   17.4270 N.3   546  ASN546     -0.1240
    113  CA        12.0980  109.7510   18.0520 C.3   546  ASN546      0.1653
    114  C         12.0850  109.2160   19.4900 C.2   546  ASN546      0.2266
    115  O         11.2070  109.5820   20.2830 O.2   546  ASN546     -0.2867
    116  CB        12.2040  111.2740   18.0120 C.3   546  ASN546      0.1155
    117  CG        13.4990  111.7910   18.6280 C.2   546  ASN546      0.2627
    118  OD1       13.8570  111.4240   19.7450 O.2   546  ASN546     -0.2716
    119  ND2       14.1820  112.6650   17.9130 N.am  546  ASN546     -0.0877
    120  N         14.0980  109.4730   22.1500 N.3   548  LYS548     -0.1245
    121  CA        14.9800  110.0560   23.1640 C.3   548  LYS548      0.1561
    122  C         14.2220  110.4240   24.4370 C.2   548  LYS548      0.2260
    123  O         14.7940  111.0390   25.3480 O.2   548  LYS548     -0.2867
    124  CB        15.7070  111.2660   22.5950 C.3   548  LYS548      0.0271
    125  CG        16.6090  110.8660   21.4230 C.3   548  LYS548      0.0035
    126  CD        17.4810  112.0340   20.9870 C.3   548  LYS548      0.0206
    127  CE        18.3100  111.7100   19.7420 C.3   548  LYS548      0.1093
    128  NZ        17.4180  111.4340   18.5720 N.3   548  LYS548     -0.1314
@<TRIPOS>BOND
     1    22    21    2
     2   101   102    1
     3   104   103    2
     4   103   102    1
     5   102   105    1
     6    21    20    1
     7    37    36    2
     8    19    20    1
     9     1     2    1
    10    20    23    1
    11    36    35    1
    12   105   106    1
    13    23    24    1
    14    23    25    1
    15     2     3    1
    16     2     5    1
    17     7     6   ar
    18   106   107    1
    19   107   108    1
    20     3     4    2
    21     5     6    1
    22   108   109    2
    23    29    28    2
    24     6     8   ar
    25    38    35    1
    26    38    39    1
    27    35    34    1
    28   109   110    1
    29   109   111    1
    30    41    40   ar
    31    28    34   am
    32    28    27    1
    33    40    39    1
    34    40    42   ar
    35    64    62   ar
    36    64    65   ar
    37    26    27    1
    38    62    60   ar
    39    66    65    1
    40    33    31   am
    41    58    57    2
    42    65    63   ar
    43    27    30    1
    44    60    59    1
    45    60    61   ar
    46    30    31    1
    47    63    61   ar
    48    59    56    1
    49    12    11    2
    50    31    32    2
    51   112   113    1
    52    57    56    1
    53    16    14   ar
    54    16    18   ar
    55    13    14    1
    56    13    10    1
    57    56    55    1
    58   119   117   am
    59    14    15   ar
    60   116   113    1
    61   116   117    1
    62   113   114    1
    63    98    96   ar
    64    98   100   ar
    65    18    17   ar
    66    93    92    2
    67    11    10    1
    68    96    95   ar
    69   128   127    1
    70   117   118    2
    71    92    91    1
    72    15    17   ar
    73    10     9    1
    74   100    99   ar
    75   114   115    2
    76   127   126    1
    77    95    94    1
    78    95    97   ar
    79    50    52   ar
    80    50    48   ar
    81    52    53   ar
    82    87    89   ar
    83    87    85   ar
    84    74    73   ar
    85    75    73   ar
    86    91    94    1
    87    91    90    1
    88    99    97   ar
    89    84    85   ar
    90    84    82   ar
    91    47    48    1
    92    47    44    1
    93    48    49   ar
    94    89    88   ar
    95    73    72    1
    96    53    54    1
    97    53    51   ar
    98    85    83   ar
    99   126   125    1
   100    49    51   ar
   101    46    45    2
   102    82    81   ar
   103   125   124    1
   104    43    44    1
   105    44    45    1
   106    88    86   ar
   107    83    81   ar
   108    83    86   ar
   109   120   121    1
   110    72    71    1
   111    81    80    1
   112   124   121    1
   113    71    68    1
   114   121   122    1
   115    80    77    1
   116    70    69    2
   117    68    67    1
   118    68    69    1
   119   122   123    2
   120    79    78    2
   121    77    78    1
   122    77    76    1
