@<TRIPOS>MOLECULE
tmp/5z1bA01.pdb
 96 92 0 0 0
SMALL
GASTEIGER

@<TRIPOS>ATOM
      1  N         -4.2460    1.7230  -53.5280 N.3   154  PHE154     -0.1227
      2  CA        -3.3240    2.6000  -52.8510 C.3   154  PHE154      0.1736
      3  C         -4.0120    3.1530  -51.6000 C.2   154  PHE154      0.2595
      4  O         -5.2220    3.4480  -51.6190 O.2   154  PHE154     -0.2718
      5  CB        -2.8860    3.6860  -53.8200 C.3   154  PHE154      0.0547
      6  CG        -1.9710    4.6940  -53.2390 C.ar  154  PHE154     -0.0202
      7  CD1       -0.8550    4.3190  -52.5070 C.ar  154  PHE154     -0.0042
      8  CD2       -2.2370    6.0400  -53.4380 C.ar  154  PHE154     -0.0042
      9  CE1       -0.0040    5.2940  -51.9690 C.ar  154  PHE154     -0.0003
     10  CE2       -1.4050    7.0280  -52.9180 C.ar  154  PHE154     -0.0003
     11  CZ        -0.2780    6.6550  -52.1850 C.ar  154  PHE154     -0.0000
     12  N         -3.2530    3.2160  -50.5050 N.am  155  MET155     -0.1979
     13  CA        -3.7720    3.6110  -49.1810 C.3   155  MET155      0.1605
     14  C         -4.8680    2.7100  -48.6190 C.2   155  MET155      0.2287
     15  O         -5.6140    3.1240  -47.7230 O.2   155  MET155     -0.2864
     16  CB        -4.3780    5.0080  -49.2710 C.3   155  MET155      0.0413
     17  CG        -3.4750    6.1530  -49.7010 C.3   155  MET155      0.0598
     18  SD        -2.0290    6.3670  -48.6700 S.3   155  MET155     -0.1393
     19  CE        -1.7930    8.0850  -49.0320 C.3   155  MET155      0.0692
     20  N          4.0610   11.7350  -61.3870 N.3   438  ASN438     -0.1225
     21  CA         3.7700   12.0850  -59.9950 C.3   438  ASN438      0.1785
     22  C          4.0110   10.9040  -59.0650 C.2   438  ASN438      0.2597
     23  O          3.4500    9.8210  -59.2640 O.2   438  ASN438     -0.2718
     24  CB         2.3170   12.5260  -59.8350 C.3   438  ASN438      0.1169
     25  CG         1.9940   12.8680  -58.3870 C.2   438  ASN438      0.2627
     26  OD1        2.3360   13.9510  -57.9200 O.2   438  ASN438     -0.2716
     27  ND2        1.3490   11.9140  -57.6580 N.am  438  ASN438     -0.0877
     28  N          4.8340   11.1270  -58.0470 N.am  439  ALA439     -0.1979
     29  CA         5.0540   10.1550  -56.9730 C.3   439  ALA439      0.1597
     30  C          5.5000    8.7400  -57.3920 C.2   439  ALA439      0.2287
     31  O          5.0800    7.7440  -56.7950 O.2   439  ALA439     -0.2864
     32  CB         3.7730   10.0600  -56.1400 C.3   439  ALA439      0.0319
     33  N          7.1160   12.1010  -54.5020 N.3   478  CYS478     -0.1221
     34  CA         6.4490   11.7660  -53.2670 C.3   478  CYS478      0.1808
     35  C          7.3660   11.8600  -52.0510 C.2   478  CYS478      0.2601
     36  O          8.5180   11.8120  -52.1820 O.2   478  CYS478     -0.2717
     37  CB         5.8730   10.3760  -53.4730 C.3   478  CYS478      0.0970
     38  SG         5.1960    9.3520  -52.1870 S.3   478  CYS478     -0.0800
     39  N          6.7990   12.0160  -50.8810 N.am  479  GLN479     -0.1979
     40  CA         7.5540   11.9310  -49.6530 C.3   479  GLN479      0.1601
     41  C          8.3830   10.6640  -49.6570 C.2   479  GLN479      0.2287
     42  O          7.8290    9.5600  -49.7960 O.2   479  GLN479     -0.2864
     43  CB         6.5950   11.9160  -48.4700 C.3   479  GLN479      0.0394
     44  CG         7.3220   11.8650  -47.1300 C.3   479  GLN479      0.0908
     45  CD         7.0890   13.1290  -46.2980 C.2   479  GLN479      0.2608
     46  OE1        5.9440   13.4970  -46.0010 O.2   479  GLN479     -0.2717
     47  NE2        8.1870   13.8100  -45.9240 N.am  479  GLN479     -0.0878
     48  N          6.2920   16.7250  -52.9480 N.3   497  ASN497     -0.1240
     49  CA         5.0630   16.4930  -52.1920 C.3   497  ASN497      0.1653
     50  C          5.4530   16.0710  -50.7780 C.2   497  ASN497      0.2266
     51  O          6.1600   15.0400  -50.6230 O.2   497  ASN497     -0.2867
     52  CB         4.2580   15.3580  -52.7790 C.3   497  ASN497      0.1155
     53  CG         3.8490   15.6010  -54.2300 C.2   497  ASN497      0.2627
     54  OD1        3.9020   16.7400  -54.7390 O.2   497  ASN497     -0.2716
     55  ND2        3.4210   14.5300  -54.9010 N.am  497  ASN497     -0.0877
     56  N          4.1900   15.6960  -46.5190 N.3   499  TYR499     -0.1241
     57  CA         3.0770   15.6480  -45.5910 C.3   499  TYR499      0.1605
     58  C          3.5660   15.5170  -44.1560 C.2   499  TYR499      0.2264
     59  O          2.9620   14.8040  -43.3450 O.2   499  TYR499     -0.2867
     60  CB         2.1450   14.5000  -45.9880 C.3   499  TYR499      0.0534
     61  CG         1.4390   14.7710  -47.2930 C.ar  499  TYR499     -0.0201
     62  CD1        1.9460   14.2770  -48.4990 C.ar  499  TYR499     -0.0009
     63  CD2        0.2520   15.5090  -47.3240 C.ar  499  TYR499     -0.0009
     64  CE1        1.2780   14.5360  -49.7220 C.ar  499  TYR499      0.0417
     65  CE2       -0.4100   15.7640  -48.5130 C.ar  499  TYR499      0.0417
     66  CZ         0.0870   15.2650  -49.7060 C.ar  499  TYR499      0.1957
     67  OH        -0.5840   15.4880  -50.8720 O.3   499  TYR499     -0.2866
     68  N          0.9340   12.6470  -42.4710 N.3   503  TYR503     -0.1227
     69  CA         1.1610   11.1910  -42.5680 C.3   503  TYR503      0.1736
     70  C          2.2970   10.7250  -41.6590 C.2   503  TYR503      0.2595
     71  O          2.5260    9.5190  -41.4990 O.2   503  TYR503     -0.2718
     72  CB         1.4910   10.7510  -44.0110 C.3   503  TYR503      0.0548
     73  CG         0.3050   10.8040  -44.9460 C.ar  503  TYR503     -0.0200
     74  CD1       -0.8630   10.1030  -44.6610 C.ar  503  TYR503     -0.0009
     75  CD2        0.3550   11.5420  -46.1320 C.ar  503  TYR503     -0.0009
     76  CE1       -1.9470   10.1220  -45.5430 C.ar  503  TYR503      0.0417
     77  CE2       -0.7120   11.6000  -47.0010 C.ar  503  TYR503      0.0417
     78  CZ        -1.8610   10.8950  -46.7180 C.ar  503  TYR503      0.1957
     79  OH        -2.8980   10.9550  -47.6090 O.3   503  TYR503     -0.2866
     80  N          3.0390   11.6620  -41.1140 N.am  504  ASN504     -0.1974
     81  CA         4.0820   11.3330  -40.1330 C.3   504  ASN504      0.1688
     82  C          4.0550   12.4570  -39.0960 C.2   504  ASN504      0.2292
     83  O          3.4420   13.5170  -39.3360 O.2   504  ASN504     -0.2864
     84  CB         5.4560   11.1950  -40.8180 C.3   504  ASN504      0.1181
     85  CG         5.8220   12.4560  -41.5780 C.2   504  ASN504      0.2629
     86  OD1        6.0230   13.5040  -40.9740 O.2   504  ASN504     -0.2716
     87  ND2        5.8830   12.3640  -42.8870 N.am  504  ASN504     -0.0877
     88  N          2.6690   19.4800  -53.3710 N.3   534  GLU534     -0.1245
     89  CA         1.5850   18.9800  -52.4950 C.3   534  GLU534      0.1567
     90  C          2.0070   19.1550  -51.0500 C.2   534  GLU534      0.2260
     91  O          3.1710   18.8780  -50.7280 O.2   534  GLU534     -0.2867
     92  CB         1.2930   17.4840  -52.6860 C.3   534  GLU534      0.0388
     93  CG         0.7550   17.1530  -54.0810 C.3   534  GLU534      0.1160
     94  CD         0.4680   15.6840  -54.2710 C.2   534  GLU534      0.3649
     95  OE1        0.3610   14.9330  -53.2690 O.co2 534  GLU534     -0.2457
     96  OE2        0.3540   15.2760  -55.4460 O.co2 534  GLU534     -0.2457
@<TRIPOS>BOND
     1    20    21    1
     2    21    24    1
     3    21    22    1
     4    24    25    1
     5    23    22    2
     6    22    28   am
     7    25    26    2
     8    25    27   am
     9    28    29    1
    10    30    29    1
    11    30    31    2
    12    29    32    1
    13    96    94   ar
    14    55    53   am
    15    54    53    2
    16    33    34    1
    17    94    93    1
    18    94    95   ar
    19    53    52    1
    20    93    92    1
    21     5     6    1
    22     5     2    1
    23     1     2    1
    24    37    34    1
    25    37    38    1
    26     8     6   ar
    27     8    10   ar
    28    88    89    1
    29    34    35    1
    30     6     7   ar
    31    48    49    1
    32    10    11   ar
    33     2     3    1
    34    52    49    1
    35    92    89    1
    36     7     9   ar
    37    89    90    1
    38    49    50    1
    39    11     9   ar
    40    36    35    2
    41    35    39   am
    42     4     3    2
    43     3    12   am
    44    90    91    2
    45    39    40    1
    46    67    66    1
    47    50    51    2
    48    12    13    1
    49    42    41    2
    50    64    66   ar
    51    64    62   ar
    52    66    65   ar
    53    17    16    1
    54    17    18    1
    55    41    40    1
    56    40    43    1
    57    16    13    1
    58    13    14    1
    59    19    18    1
    60    14    15    2
    61    65    63   ar
    62    62    61   ar
    63    43    44    1
    64    79    78    1
    65    63    61   ar
    66    61    60    1
    67    44    45    1
    68    77    78   ar
    69    77    75   ar
    70    78    76   ar
    71    56    57    1
    72    45    46    2
    73    45    47   am
    74    75    73   ar
    75    60    57    1
    76    57    58    1
    77    76    74   ar
    78    73    74   ar
    79    73    72    1
    80    58    59    2
    81    72    69    1
    82    87    85   am
    83    69    68    1
    84    69    70    1
    85    70    71    2
    86    70    80   am
    87    85    86    2
    88    85    84    1
    89    80    81    1
    90    84    81    1
    91    81    82    1
    92    83    82    2
