@<TRIPOS>MOLECULE
tmp/5z1bA00.pdb
 157 149 0 0 0
SMALL
GASTEIGER

@<TRIPOS>ATOM
      1  N         -4.2460    1.7230  -53.5280 N.3   154  PHE154     -0.1227
      2  CA        -3.3240    2.6000  -52.8510 C.3   154  PHE154      0.1736
      3  C         -4.0120    3.1530  -51.6000 C.2   154  PHE154      0.2595
      4  O         -5.2220    3.4480  -51.6190 O.2   154  PHE154     -0.2718
      5  CB        -2.8860    3.6860  -53.8200 C.3   154  PHE154      0.0547
      6  CG        -1.9710    4.6940  -53.2390 C.ar  154  PHE154     -0.0202
      7  CD1       -0.8550    4.3190  -52.5070 C.ar  154  PHE154     -0.0042
      8  CD2       -2.2370    6.0400  -53.4380 C.ar  154  PHE154     -0.0042
      9  CE1       -0.0040    5.2940  -51.9690 C.ar  154  PHE154     -0.0003
     10  CE2       -1.4050    7.0280  -52.9180 C.ar  154  PHE154     -0.0003
     11  CZ        -0.2780    6.6550  -52.1850 C.ar  154  PHE154     -0.0000
     12  N         -3.2530    3.2160  -50.5050 N.am  155  MET155     -0.1979
     13  CA        -3.7720    3.6110  -49.1810 C.3   155  MET155      0.1605
     14  C         -4.8680    2.7100  -48.6190 C.2   155  MET155      0.2287
     15  O         -5.6140    3.1240  -47.7230 O.2   155  MET155     -0.2864
     16  CB        -4.3780    5.0080  -49.2710 C.3   155  MET155      0.0413
     17  CG        -3.4750    6.1530  -49.7010 C.3   155  MET155      0.0598
     18  SD        -2.0290    6.3670  -48.6700 S.3   155  MET155     -0.1393
     19  CE        -1.7930    8.0850  -49.0320 C.3   155  MET155      0.0692
     20  N         -4.4550    7.8990  -55.8900 N.3   181  ASP181     -0.1239
     21  CA        -5.4380    8.3640  -54.9210 C.3   181  ASP181      0.1674
     22  C         -6.4930    9.2600  -55.5880 C.2   181  ASP181      0.2266
     23  O         -6.7020   10.3880  -55.1620 O.2   181  ASP181     -0.2867
     24  CB        -4.7170    9.1660  -53.8300 C.3   181  ASP181      0.1410
     25  CG        -5.6160    9.5560  -52.6640 C.2   181  ASP181      0.3668
     26  OD1       -6.5290    8.7770  -52.2900 O.co2 181  ASP181     -0.2456
     27  OD2       -5.3680   10.6410  -52.1080 O.co2 181  ASP181     -0.2456
     28  N         -3.6220   14.5510  -62.0740 N.3   373  HIS373     -0.1241
     29  CA        -2.3910   13.8520  -62.4400 C.3   373  HIS373      0.1621
     30  C         -2.5720   13.3230  -63.8660 C.2   373  HIS373      0.2264
     31  O         -2.4220   12.1260  -64.1300 O.2   373  HIS373     -0.2867
     32  CB        -2.0750   12.6850  -61.4810 C.3   373  HIS373      0.0745
     33  CG        -1.8510   13.1230  -60.0710 C.ar  373  HIS373      0.0817
     34  ND1       -0.8430   13.9920  -59.7090 N.ar  373  HIS373     -0.2268
     35  CD2       -2.4860   12.7730  -58.9190 C.ar  373  HIS373      0.1154
     36  CE1       -0.8770   14.1800  -58.3970 C.ar  373  HIS373      0.1986
     37  NE2       -1.8530   13.4320  -57.8850 N.ar  373  HIS373     -0.2212
     38  N          1.2670    8.1710  -62.9570 N.3   398  VAL398     -0.1245
     39  CA         1.0800    8.1940  -61.4940 C.3   398  VAL398      0.1561
     40  C          0.8770    6.7420  -61.0660 C.2   398  VAL398      0.2260
     41  O          0.2630    5.9310  -61.7880 O.2   398  VAL398     -0.2867
     42  CB        -0.1220    9.1220  -61.0740 C.3   398  VAL398      0.0252
     43  CG1       -1.4310    8.7300  -61.7470 C.3   398  VAL398      0.0019
     44  CG2       -0.2590    9.1840  -59.5530 C.3   398  VAL398      0.0019
     45  N          4.0610   11.7350  -61.3870 N.3   438  ASN438     -0.1225
     46  CA         3.7700   12.0850  -59.9950 C.3   438  ASN438      0.1785
     47  C          4.0110   10.9040  -59.0650 C.2   438  ASN438      0.2597
     48  O          3.4500    9.8210  -59.2640 O.2   438  ASN438     -0.2718
     49  CB         2.3170   12.5260  -59.8350 C.3   438  ASN438      0.1169
     50  CG         1.9940   12.8680  -58.3870 C.2   438  ASN438      0.2627
     51  OD1        2.3360   13.9510  -57.9200 O.2   438  ASN438     -0.2716
     52  ND2        1.3490   11.9140  -57.6580 N.am  438  ASN438     -0.0877
     53  N          4.8340   11.1270  -58.0470 N.am  439  ALA439     -0.1979
     54  CA         5.0540   10.1550  -56.9730 C.3   439  ALA439      0.1597
     55  C          5.5000    8.7400  -57.3920 C.2   439  ALA439      0.2287
     56  O          5.0800    7.7440  -56.7950 O.2   439  ALA439     -0.2864
     57  CB         3.7730   10.0600  -56.1400 C.3   439  ALA439      0.0319
     58  N          7.1160   12.1010  -54.5020 N.3   478  CYS478     -0.1235
     59  CA         6.4490   11.7660  -53.2670 C.3   478  CYS478      0.1677
     60  C          7.3660   11.8600  -52.0510 C.2   478  CYS478      0.2270
     61  O          8.5180   11.8120  -52.1820 O.2   478  CYS478     -0.2867
     62  CB         5.8730   10.3760  -53.4730 C.3   478  CYS478      0.0956
     63  SG         5.1960    9.3520  -52.1870 S.3   478  CYS478     -0.0801
     64  N          6.2920   16.7250  -52.9480 N.3   497  ASN497     -0.1240
     65  CA         5.0630   16.4930  -52.1920 C.3   497  ASN497      0.1653
     66  C          5.4530   16.0710  -50.7780 C.2   497  ASN497      0.2266
     67  O          6.1600   15.0400  -50.6230 O.2   497  ASN497     -0.2867
     68  CB         4.2580   15.3580  -52.7790 C.3   497  ASN497      0.1155
     69  CG         3.8490   15.6010  -54.2300 C.2   497  ASN497      0.2627
     70  OD1        3.9020   16.7400  -54.7390 O.2   497  ASN497     -0.2716
     71  ND2        3.4210   14.5300  -54.9010 N.am  497  ASN497     -0.0877
     72  N          4.1900   15.6960  -46.5190 N.3   499  TYR499     -0.1241
     73  CA         3.0770   15.6480  -45.5910 C.3   499  TYR499      0.1605
     74  C          3.5660   15.5170  -44.1560 C.2   499  TYR499      0.2264
     75  O          2.9620   14.8040  -43.3450 O.2   499  TYR499     -0.2867
     76  CB         2.1450   14.5000  -45.9880 C.3   499  TYR499      0.0534
     77  CG         1.4390   14.7710  -47.2930 C.ar  499  TYR499     -0.0201
     78  CD1        1.9460   14.2770  -48.4990 C.ar  499  TYR499     -0.0009
     79  CD2        0.2520   15.5090  -47.3240 C.ar  499  TYR499     -0.0009
     80  CE1        1.2780   14.5360  -49.7220 C.ar  499  TYR499      0.0417
     81  CE2       -0.4100   15.7640  -48.5130 C.ar  499  TYR499      0.0417
     82  CZ         0.0870   15.2650  -49.7060 C.ar  499  TYR499      0.1957
     83  OH        -0.5840   15.4880  -50.8720 O.3   499  TYR499     -0.2866
     84  N          0.9340   12.6470  -42.4710 N.3   503  TYR503     -0.1241
     85  CA         1.1610   11.1910  -42.5680 C.3   503  TYR503      0.1605
     86  C          2.2970   10.7250  -41.6590 C.2   503  TYR503      0.2264
     87  O          2.5260    9.5190  -41.4990 O.2   503  TYR503     -0.2867
     88  CB         1.4910   10.7510  -44.0110 C.3   503  TYR503      0.0534
     89  CG         0.3050   10.8040  -44.9460 C.ar  503  TYR503     -0.0201
     90  CD1       -0.8630   10.1030  -44.6610 C.ar  503  TYR503     -0.0009
     91  CD2        0.3550   11.5420  -46.1320 C.ar  503  TYR503     -0.0009
     92  CE1       -1.9470   10.1220  -45.5430 C.ar  503  TYR503      0.0417
     93  CE2       -0.7120   11.6000  -47.0010 C.ar  503  TYR503      0.0417
     94  CZ        -1.8610   10.8950  -46.7180 C.ar  503  TYR503      0.1957
     95  OH        -2.8980   10.9550  -47.6090 O.3   503  TYR503     -0.2866
     96  N          2.6690   19.4800  -53.3710 N.3   534  GLU534     -0.1245
     97  CA         1.5850   18.9800  -52.4950 C.3   534  GLU534      0.1567
     98  C          2.0070   19.1550  -51.0500 C.2   534  GLU534      0.2260
     99  O          3.1710   18.8780  -50.7280 O.2   534  GLU534     -0.2867
    100  CB         1.2930   17.4840  -52.6860 C.3   534  GLU534      0.0388
    101  CG         0.7550   17.1530  -54.0810 C.3   534  GLU534      0.1160
    102  CD         0.4680   15.6840  -54.2710 C.2   534  GLU534      0.3649
    103  OE1        0.3610   14.9330  -53.2690 O.co2 534  GLU534     -0.2457
    104  OE2        0.3540   15.2760  -55.4460 O.co2 534  GLU534     -0.2457
    105  N         -1.8950   20.7590  -51.6140 N.3   579  TRP579     -0.1241
    106  CA        -2.8490   19.7150  -52.0040 C.3   579  TRP579      0.1605
    107  C         -4.0540   19.8700  -51.0830 C.2   579  TRP579      0.2264
    108  O         -3.8570   19.8090  -49.8790 O.2   579  TRP579     -0.2867
    109  CB        -2.2320   18.3330  -51.8280 C.3   579  TRP579      0.0550
    110  CG        -2.9690   17.2160  -52.5060 C.ar  579  TRP579      0.0003
    111  CD1       -3.6160   16.1640  -51.9090 C.ar  579  TRP579      0.0946
    112  CD2       -3.0960   17.0270  -53.9160 C.ar  579  TRP579      0.0152
    113  NE1       -4.1370   15.3200  -52.8820 N.ar  579  TRP579     -0.2442
    114  CE2       -3.8330   15.8350  -54.1170 C.ar  579  TRP579      0.0810
    115  CE3       -2.6320   17.7380  -55.0270 C.ar  579  TRP579      0.0012
    116  CZ2       -4.1220   15.3330  -55.3770 C.ar  579  TRP579      0.0191
    117  CZ3       -2.8990   17.2330  -56.2900 C.ar  579  TRP579      0.0001
    118  CH2       -3.6620   16.0450  -56.4560 C.ar  579  TRP579      0.0015
    119  N        -12.1190   15.8360  -53.5150 N.3   584  PHE584     -0.1241
    120  CA       -12.3860   15.0680  -54.7420 C.3   584  PHE584      0.1605
    121  C        -12.5820   13.5850  -54.4540 C.2   584  PHE584      0.2264
    122  O        -12.2210   13.0730  -53.3760 O.2   584  PHE584     -0.2867
    123  CB       -11.2480   15.2790  -55.7690 C.3   584  PHE584      0.0534
    124  CG        -9.8840   14.8210  -55.2800 C.ar  584  PHE584     -0.0203
    125  CD1       -9.0630   15.7240  -54.5970 C.ar  584  PHE584     -0.0042
    126  CD2       -9.4570   13.4980  -55.4550 C.ar  584  PHE584     -0.0042
    127  CE1       -7.7910   15.3420  -54.1230 C.ar  584  PHE584     -0.0003
    128  CE2       -8.2020   13.1010  -54.9900 C.ar  584  PHE584     -0.0003
    129  CZ        -7.3530   14.0350  -54.3350 C.ar  584  PHE584     -0.0000
    130  N        -10.2410    7.6060  -46.3520 N.3   592  ARG592     -0.1245
    131  CA       -10.8580    8.5340  -47.3000 C.3   592  ARG592      0.1563
    132  C        -12.3110    8.7680  -46.8790 C.2   592  ARG592      0.2260
    133  O        -13.1770    7.9330  -47.0910 O.2   592  ARG592     -0.2867
    134  CB       -10.7520    8.0050  -48.7350 C.3   592  ARG592      0.0307
    135  CG        -9.2680    8.0850  -49.2330 C.3   592  ARG592      0.0489
    136  CD        -8.8730    9.5540  -49.4380 C.3   592  ARG592      0.2205
    137  NE        -7.4520    9.7510  -49.7500 N.pl3 592  ARG592     -0.0865
    138  CZ        -6.5110   10.0440  -48.8600 C.cat 592  ARG592      0.5346
    139  NH1       -6.8460   10.2080  -47.5610 N.pl3 592  ARG592      0.1354
    140  NH2       -5.2520   10.2040  -49.2670 N.pl3 592  ARG592      0.1354
    141  N        -11.0310   12.3030  -50.9130 N.3   596  ASN596     -0.1240
    142  CA        -9.8910   13.0430  -50.3630 C.3   596  ASN596      0.1653
    143  C        -10.3990   14.3870  -49.8730 C.2   596  ASN596      0.2266
    144  O        -11.0590   15.1020  -50.6430 O.2   596  ASN596     -0.2867
    145  CB        -8.8100   13.2020  -51.4370 C.3   596  ASN596      0.1155
    146  CG        -7.5420   13.8030  -50.9060 C.2   596  ASN596      0.2627
    147  OD1       -7.5690   14.9100  -50.3470 O.2   596  ASN596     -0.2716
    148  ND2       -6.4200   13.1030  -51.0660 N.am  596  ASN596     -0.0877
    149  N         -8.4870   16.8860  -48.4390 N.3   598  LYS598     -0.1245
    150  CA        -7.4480   17.8930  -48.2830 C.3   598  LYS598      0.1561
    151  C         -7.7420   19.1860  -49.0590 C.2   598  LYS598      0.2260
    152  O         -6.9420   20.1160  -49.0710 O.2   598  LYS598     -0.2867
    153  CB        -6.0770   17.3310  -48.7200 C.3   598  LYS598      0.0271
    154  CG        -5.6340   16.1650  -47.8280 C.3   598  LYS598      0.0035
    155  CD        -4.1260   15.8720  -48.0020 C.3   598  LYS598      0.0206
    156  CE        -3.6980   14.6850  -47.1000 C.3   598  LYS598      0.1093
    157  NZ        -4.3960   13.4120  -47.4600 N.3   598  LYS598     -0.1314
@<TRIPOS>BOND
     1    31    30    2
     2    30    29    1
     3    38    39    1
     4    29    28    1
     5    29    32    1
     6    41    40    2
     7    43    42    1
     8    39    42    1
     9    39    40    1
    10    32    33    1
    11    45    46    1
    12    42    44    1
    13    33    34   ar
    14    33    35   ar
    15    46    49    1
    16    46    47    1
    17    49    50    1
    18    34    36   ar
    19    48    47    2
    20    47    53   am
    21    35    37   ar
    22    36    37   ar
    23    50    51    2
    24    50    52   am
    25    53    54    1
    26    55    54    1
    27    55    56    2
    28    54    57    1
    29   118   117   ar
    30   118   116   ar
    31   117   115   ar
    32    20    21    1
    33   123   124    1
    34   123   120    1
    35    22    23    2
    36    22    21    1
    37   126   124   ar
    38   126   128   ar
    39   104   102   ar
    40   116   114   ar
    41   124   125   ar
    42   115   112   ar
    43   128   129   ar
    44    21    24    1
    45    71    69   am
    46   120   121    1
    47   120   119    1
    48    70    69    2
    49   125   127   ar
    50    58    59    1
    51   121   122    2
    52   129   127   ar
    53   102   101    1
    54   102   103   ar
    55    69    68    1
    56   114   112   ar
    57   114   113   ar
    58   101   100    1
    59   112   110   ar
    60    24    25    1
    61     5     6    1
    62     5     2    1
    63     1     2    1
    64    62    59    1
    65    62    63    1
    66     8     6   ar
    67     8    10   ar
    68    96    97    1
    69    59    60    1
    70     6     7   ar
    71    64    65    1
    72    10    11   ar
    73   113   111   ar
    74     2     3    1
    75    68    65    1
    76   100    97    1
    77    25    26   ar
    78    25    27   ar
    79     7     9   ar
    80   110   111   ar
    81   110   109    1
    82    97    98    1
    83    65    66    1
    84    11     9   ar
    85    61    60    2
    86   106   109    1
    87   106   105    1
    88   106   107    1
    89     4     3    2
    90     3    12   am
    91   145   146    1
    92   145   142    1
    93   107   108    2
    94   148   146   am
    95    98    99    2
    96   141   142    1
    97   146   147    2
    98    83    82    1
    99    66    67    2
   100   144   143    2
   101    12    13    1
   102   142   143    1
   103   137   136    1
   104   137   138    2
   105    80    82   ar
   106    80    78   ar
   107    82    81   ar
   108    17    16    1
   109    17    18    1
   110   136   135    1
   111    16    13    1
   112   140   138    1
   113   135   134    1
   114    13    14    1
   115   152   151    2
   116   151   150    1
   117    19    18    1
   118   138   139    1
   119   134   131    1
   120   153   150    1
   121   153   154    1
   122    14    15    2
   123    81    79   ar
   124    78    77   ar
   125   149   150    1
   126   155   154    1
   127   155   156    1
   128    95    94    1
   129   157   156    1
   130    79    77   ar
   131   131   132    1
   132   131   130    1
   133    77    76    1
   134   133   132    2
   135    93    94   ar
   136    93    91   ar
   137    94    92   ar
   138    72    73    1
   139    91    89   ar
   140    76    73    1
   141    73    74    1
   142    92    90   ar
   143    89    90   ar
   144    89    88    1
   145    74    75    2
   146    88    85    1
   147    85    84    1
   148    85    86    1
   149    86    87    2
