@<TRIPOS>MOLECULE
tmp/5z1cA00.pdb
 139 139 0 0 0
SMALL
GASTEIGER

@<TRIPOS>ATOM
      1  N         20.6570   19.3210    9.7640 N.3    46  HIS46      -0.1241
      2  CA        20.3500   18.8220    8.4250 C.3    46  HIS46       0.1621
      3  C         20.1270   17.3150    8.4070 C.2    46  HIS46       0.2264
      4  O         19.4770   16.8090    7.5080 O.2    46  HIS46      -0.2867
      5  CB        21.3820   19.2590    7.3890 C.3    46  HIS46       0.0745
      6  CG        22.5750   18.3770    7.2690 C.ar   46  HIS46       0.0817
      7  ND1       23.8240   18.7730    7.6980 N.ar   46  HIS46      -0.2268
      8  CD2       22.7370   17.1690    6.6750 C.ar   46  HIS46       0.1154
      9  CE1       24.6990   17.8170    7.4230 C.ar   46  HIS46       0.1986
     10  NE2       24.0680   16.8350    6.7920 N.ar   46  HIS46      -0.2212
     11  N         24.8520   24.9020    4.7140 N.3    94  HIS94      -0.1241
     12  CA        23.8580   24.8860    5.7780 C.3    94  HIS94       0.1621
     13  C         24.2350   25.9630    6.7840 C.2    94  HIS94       0.2264
     14  O         25.3950   26.0730    7.1640 O.2    94  HIS94      -0.2867
     15  CB        23.8330   23.5280    6.4820 C.3    94  HIS94       0.0745
     16  CG        23.6900   22.3590    5.5550 C.ar   94  HIS94       0.0817
     17  ND1       22.8120   22.3500    4.4920 N.ar   94  HIS94      -0.2268
     18  CD2       24.2950   21.1490    5.5510 C.ar   94  HIS94       0.1154
     19  CE1       22.8940   21.1900    3.8650 C.ar   94  HIS94       0.1986
     20  NE2       23.7880   20.4430    4.4880 N.ar   94  HIS94      -0.2212
     21  N         39.3830   13.7720    4.5180 N.3   192  ASP192     -0.1225
     22  CA        38.2480   14.6620    4.7660 C.3   192  ASP192      0.1805
     23  C         37.0920   13.8890    5.3770 C.2   192  ASP192      0.2598
     24  O         37.0640   12.6640    5.3510 O.2   192  ASP192     -0.2718
     25  CB        37.7930   15.2580    3.4280 C.3   192  ASP192      0.1424
     26  CG        36.9830   16.5600    3.5460 C.2   192  ASP192      0.3668
     27  OD1       36.7170   17.0910    4.6610 O.co2 192  ASP192     -0.2456
     28  OD2       36.5590   17.0220    2.4510 O.co2 192  ASP192     -0.2456
     29  N         36.1100   14.6280    5.8650 N.am  193  SER193     -0.1938
     30  CA        34.7910   14.0720    6.1350 C.3   193  SER193      0.2055
     31  C         34.0410   13.8630    4.8130 C.2   193  SER193      0.2643
     32  O         34.3800   14.4370    3.7680 O.2   193  SER193     -0.2714
     33  CB        34.0050   14.9960    7.0670 C.3   193  SER193      0.2130
     34  OG        34.0170   16.3190    6.6120 O.3   193  SER193     -0.2179
     35  N         33.0210   13.0130    4.8500 N.am  194  CYS194     -0.1953
     36  CA        32.1940   12.8000    3.6640 C.3   194  CYS194      0.1843
     37  C         30.7750   12.4200    4.0840 C.2   194  CYS194      0.2625
     38  O         30.4340   12.4470    5.2700 O.2   194  CYS194     -0.2714
     39  CB        32.8060   11.7150    2.7660 C.3   194  CYS194      0.0997
     40  SG        32.3240   11.7780    1.0140 S.3   194  CYS194     -0.0797
     41  N         29.9370   12.1250    3.0930 N.am  195  GLN195     -0.1963
     42  CA        28.5550   11.7230    3.3530 C.3   195  GLN195      0.1733
     43  C         28.4800   10.6450    4.4230 C.2   195  GLN195      0.2616
     44  O         29.1670    9.6250    4.3320 O.2   195  GLN195     -0.2715
     45  CB        27.8790   11.2180    2.1000 C.3   195  GLN195      0.0408
     46  CG        26.3580   10.9910    2.2460 C.3   195  GLN195      0.0908
     47  CD        25.7470   10.2590    1.0680 C.2   195  GLN195      0.2608
     48  OE1       26.2390   10.3420   -0.0390 O.2   195  GLN195     -0.2717
     49  NE2       24.6650    9.5350    1.3100 N.am  195  GLN195     -0.0878
     50  N         27.6350   10.9040    5.4210 N.am  196  GLY196     -0.1955
     51  CA        27.4930   10.0440    6.5910 C.3   196  GLY196      0.1869
     52  C         28.2960   10.4390    7.8000 C.2   196  GLY196      0.2309
     53  O         28.0400    9.9340    8.8840 O.2   196  GLY196     -0.2863
     54  N         28.2770   13.6590    8.7290 N.3   198  SER198     -0.1217
     55  CA        27.5820   14.8250    9.2780 C.3   198  SER198      0.1889
     56  C         27.1470   14.6110   10.7010 C.2   198  SER198      0.2288
     57  O         26.8140   13.4980   11.1150 O.2   198  SER198     -0.2866
     58  CB        26.3790   15.1660    8.4450 C.3   198  SER198      0.2089
     59  OG        26.7740   15.6000    7.1770 O.3   198  SER198     -0.2183
     60  N         30.5320   18.3630   12.0400 N.3   216  VAL216     -0.1231
     61  CA        30.5860   18.1440   10.5890 C.3   216  VAL216      0.1692
     62  C         29.2700   18.6200    9.9540 C.2   216  VAL216      0.2593
     63  O         28.2000   18.1420   10.3200 O.2   216  VAL216     -0.2718
     64  CB        30.7710   16.6470   10.2430 C.3   216  VAL216      0.0266
     65  CG1       30.7770   16.4110    8.7330 C.3   216  VAL216      0.0020
     66  CG2       32.0410   16.0970   10.8500 C.3   216  VAL216      0.0020
     67  N         29.3510   19.5120    8.9770 N.am  217  SER217     -0.1938
     68  CA        28.1320   20.1290    8.4110 C.3   217  SER217      0.2055
     69  C         27.9870   19.9990    6.8920 C.2   217  SER217      0.2643
     70  O         26.9980   19.4670    6.4180 O.2   217  SER217     -0.2714
     71  CB        28.0530   21.6040    8.8450 C.3   217  SER217      0.2130
     72  OG        26.9110   22.2510    8.2980 O.3   217  SER217     -0.2179
     73  N         28.9440   20.5030    6.1180 N.am  218  TRP218     -0.1959
     74  CA        28.8010   20.5080    4.6680 C.3   218  TRP218      0.1771
     75  C         30.1230   20.6340    3.9470 C.2   218  TRP218      0.2620
     76  O         31.1320   20.9130    4.5550 O.2   218  TRP218     -0.2715
     77  CB        27.8180   21.5890    4.1860 C.3   218  TRP218      0.0590
     78  CG        28.2160   23.0250    4.4560 C.ar  218  TRP218      0.0006
     79  CD1       28.0160   23.7280    5.6010 C.ar  218  TRP218      0.0946
     80  CD2       28.9110   23.9000    3.5610 C.ar  218  TRP218      0.0152
     81  NE1       28.5150   25.0010    5.4650 N.ar  218  TRP218     -0.2442
     82  CE2       29.0560   25.1330    4.2150 C.ar  218  TRP218      0.0810
     83  CE3       29.3870   23.7690    2.2520 C.ar  218  TRP218      0.0012
     84  CZ2       29.6940   26.2220    3.6220 C.ar  218  TRP218      0.0191
     85  CZ3       29.9820   24.8440    1.6570 C.ar  218  TRP218      0.0001
     86  CH2       30.1470   26.0600    2.3430 C.ar  218  TRP218      0.0015
     87  N         30.0820   20.3820    2.6490 N.am  219  GLY219     -0.1954
     88  CA        31.1930   20.6250    1.7680 C.3   219  GLY219      0.1869
     89  C         30.7910   20.3770    0.3280 C.2   219  GLY219      0.2309
     90  O         29.7790   19.7210    0.0690 O.2   219  GLY219     -0.2863
     91  N         31.4710   17.9900   -2.5190 N.3   221  GLY221     -0.1210
     92  CA        32.2860   16.7730   -2.5900 C.3   221  GLY221      0.1956
     93  C         33.0390   16.4890   -1.2940 C.2   221  GLY221      0.2612
     94  O         32.6500   16.9490   -0.2140 O.2   221  GLY221     -0.2717
     95  N         34.1170   15.7130   -1.4150 N.am  222  CYS222     -0.1970
     96  CA        34.8960   15.2420   -0.2860 C.3   222  CYS222      0.1712
     97  C         36.3340   15.1200   -0.7750 C.2   222  CYS222      0.2296
     98  O         36.5620   14.6250   -1.8690 O.2   222  CYS222     -0.2864
     99  CB        34.3950   13.8530    0.1760 C.3   222  CYS222      0.0983
    100  SG        32.6140   13.7970    0.4920 S.3   222  CYS222     -0.0798
    101  N         38.2720   22.7850   -1.7160 N.3   227  LYS227     -0.1231
    102  CA        36.9280   22.6420   -1.1440 C.3   227  LYS227      0.1678
    103  C         37.0010   21.9970    0.2400 C.2   227  LYS227      0.2434
    104  O         36.8280   20.7840    0.3820 O.2   227  LYS227     -0.2733
    105  CB        36.0180   21.8630   -2.1060 C.3   227  LYS227      0.0284
    106  CG        35.8890   22.4640   -3.5090 C.3   227  LYS227      0.0035
    107  CD        35.2600   23.8670   -3.5260 C.3   227  LYS227      0.0206
    108  CE        35.5490   24.5640   -4.8480 C.3   227  LYS227      0.1093
    109  NZ        34.7960   25.8260   -4.9960 N.3   227  LYS227     -0.1314
    110  N         37.3240   22.7980    1.2740 N.am  228  PRO228     -0.2718
    111  CA        37.4370   22.2470    2.6190 C.3   228  PRO228      0.1535
    112  C         36.1530   21.6250    3.1350 C.2   228  PRO228      0.2599
    113  O         35.0630   21.8900    2.6230 O.2   228  PRO228     -0.2715
    114  CB        37.8000   23.4730    3.4790 C.3   228  PRO228      0.0310
    115  CG        38.4190   24.4280    2.5340 C.3   228  PRO228      0.0237
    116  CD        37.7430   24.2150    1.2230 C.3   228  PRO228      0.0939
    117  N         36.2960   20.8060    4.1620 N.am  229  GLY229     -0.1941
    118  CA        35.1620   20.4670    4.9890 C.3   229  GLY229      0.2014
    119  C         34.7190   21.7010    5.7560 C.2   229  GLY229      0.2639
    120  O         35.5620   22.4740    6.2360 O.2   229  GLY229     -0.2714
    121  N         33.4020   21.8480    5.9180 N.am  230  VAL230     -0.1963
    122  CA        32.8550   22.9410    6.7060 C.3   230  VAL230      0.1727
    123  C         32.0980   22.4220    7.9260 C.2   230  VAL230      0.2616
    124  O         31.3540   21.4630    7.8340 O.2   230  VAL230     -0.2715
    125  CB        31.9700   23.8630    5.8550 C.3   230  VAL230      0.0290
    126  CG1       31.6100   25.1360    6.6270 C.3   230  VAL230      0.0023
    127  CG2       32.6860   24.2220    4.5570 C.3   230  VAL230      0.0023
    128  N         32.3260   23.0860    9.0550 N.am  231  TYR231     -0.1974
    129  CA        31.9050   22.6420   10.3760 C.3   231  TYR231      0.1639
    130  C         31.1610   23.7630   11.0710 C.2   231  TYR231      0.2290
    131  O         31.5230   24.9320   10.9530 O.2   231  TYR231     -0.2864
    132  CB        33.1370   22.2140   11.2120 C.3   231  TYR231      0.0560
    133  CG        33.9220   21.0990   10.5490 C.ar  231  TYR231     -0.0198
    134  CD1       34.8230   21.3500    9.4970 C.ar  231  TYR231     -0.0009
    135  CD2       33.7220   19.7840   10.9380 C.ar  231  TYR231     -0.0009
    136  CE1       35.4570   20.3180    8.8430 C.ar  231  TYR231      0.0417
    137  CE2       34.3770   18.7500   10.3080 C.ar  231  TYR231      0.0417
    138  CZ        35.2330   19.0080    9.2610 C.ar  231  TYR231      0.1957
    139  OH        35.8430   17.9460    8.6320 O.3   231  TYR231     -0.2866
@<TRIPOS>BOND
     1   109   108    1
     2   108   107    1
     3   107   106    1
     4   106   105    1
     5    92    91    1
     6    92    93    1
     7   105   102    1
     8    98    97    2
     9   101   102    1
    10    95    93   am
    11    95    96    1
    12    93    94    2
    13   102   103    1
    14    97    96    1
    15    96    99    1
    16    48    47    2
    17    90    89    2
    18    99   100    1
    19   103   104    2
    20   103   110   am
    21    89    88    1
    22   100    40    1
    23    40    39    1
    24    47    49   am
    25    47    46    1
    26   116   110    1
    27   116   115    1
    28   110   111    1
    29    85    83   ar
    30    85    86   ar
    31    88    87    1
    32    45    46    1
    33    45    42    1
    34    83    80   ar
    35    86    84   ar
    36    28    26   ar
    37   115   114    1
    38   111   112    1
    39   111   114    1
    40   113   112    2
    41    87    75   am
    42    39    36    1
    43    41    42    1
    44    41    37   am
    45   112   117   am
    46    42    43    1
    47    25    26    1
    48    25    22    1
    49    26    27   ar
    50    80    82   ar
    51    80    78   ar
    52    84    82   ar
    53    36    37    1
    54    36    35    1
    55    32    31    2
    56    19    20   ar
    57    19    17   ar
    58    75    76    2
    59    75    74    1
    60    37    38    2
    61   117   118    1
    62    77    78    1
    63    77    74    1
    64    82    81   ar
    65    44    43    2
    66    43    50   am
    67    78    79   ar
    68    20    18   ar
    69    17    16   ar
    70    21    22    1
    71   127   125    1
    72    74    73    1
    73    11    12    1
    74    22    23    1
    75    31    35   am
    76    31    30    1
    77   118   119    1
    78    24    23    2
    79    23    29   am
    80    50    51    1
    81    81    79   ar
    82    18    16   ar
    83    16    15    1
    84   119   121   am
    85   119   120    2
    86    12    15    1
    87    12    13    1
    88   125   126    1
    89   125   122    1
    90    29    30    1
    91   121   122    1
    92    73    69   am
    93    30    33    1
    94    70    69    2
    95    51    52    1
    96    34    33    1
    97     8    10   ar
    98     8     6   ar
    99   122   123    1
   100    13    14    2
   101    10     9   ar
   102    69    68    1
   103    59    58    1
   104     6     5    1
   105     6     7   ar
   106     5     2    1
   107     9     7   ar
   108     4     3    2
   109    52    53    2
   110   124   123    2
   111   123   128   am
   112    72    71    1
   113     3     2    1
   114    68    71    1
   115    68    67    1
   116     2     1    1
   117    58    55    1
   118   139   138    1
   119    54    55    1
   120    65    64    1
   121   136   138   ar
   122   136   134   ar
   123    67    62   am
   124   128   129    1
   125   138   137   ar
   126    55    56    1
   127   134   133   ar
   128    62    63    2
   129    62    61    1
   130    64    61    1
   131    64    66    1
   132   137   135   ar
   133   129   130    1
   134   129   132    1
   135   133   135   ar
   136   133   132    1
   137    61    60    1
   138    56    57    2
   139   131   130    2
