@<TRIPOS>MOLECULE
tmp/5z1eA00.pdb
 143 134 0 0 0
SMALL
GASTEIGER

@<TRIPOS>ATOM
      1  N          5.0290    6.1360   21.4590 N.3    24  MET24      -0.1196
      2  CA         5.7600    5.4970   20.3720 C.3    24  MET24       0.1786
      3  C          7.1150    5.0450   20.9180 C.2    24  MET24       0.2306
      4  O          7.7950    4.2590   20.2780 O.2    24  MET24      -0.2863
      5  CB         5.9380    6.4560   19.1660 C.2    24  MET24       0.0070
      6  CG         6.3310    7.9200   19.4790 C.2    24  MET24       0.0282
      7  SD         6.5150    9.0590   18.0490 S.3    24  MET24      -0.1125
      8  CE         7.9740    8.3440   17.2910 C.3    24  MET24       0.0742
      9  N          9.0210    8.2200   24.2200 N.3    27  VAL27      -0.1245
     10  CA         8.6860    9.1640   23.1600 C.3    27  VAL27       0.1561
     11  C          7.1970    9.1340   22.9010 C.2    27  VAL27       0.2260
     12  O          6.6160    8.0620   22.7630 O.2    27  VAL27      -0.2867
     13  CB         9.4300    8.8220   21.8760 C.3    27  VAL27       0.0252
     14  CG1        9.1890    9.8850   20.8110 C.3    27  VAL27       0.0019
     15  CG2       10.9130    8.7060   22.1740 C.3    27  VAL27       0.0019
     16  N          6.9920   14.3970   17.3990 N.3    40  ALA40      -0.1245
     17  CA         7.4510   13.4090   18.3570 C.3    40  ALA40       0.1562
     18  C          7.9600   14.1690   19.5470 C.2    40  ALA40       0.2260
     19  O          8.7080   15.0990   19.3650 O.2    40  ALA40      -0.2867
     20  CB         8.5650   12.5760   17.7520 C.3    40  ALA40       0.0290
     21  N          9.9510   13.7780   23.0710 N.3    42  LYS42      -0.1245
     22  CA        10.7920   12.8660   23.8370 C.3    42  LYS42       0.1561
     23  C         10.7940   13.3850   25.2880 C.2    42  LYS42       0.2260
     24  O         10.8820   14.5910   25.5130 O.2    42  LYS42      -0.2867
     25  CB        12.1620   12.8480   23.1740 C.3    42  LYS42       0.0271
     26  CG        13.1800   11.9350   23.7870 C.3    42  LYS42       0.0035
     27  CD        14.5860   12.3580   23.3900 C.3    42  LYS42       0.0206
     28  CE        14.8760   12.0830   21.9420 C.3    42  LYS42       0.1093
     29  NZ        15.3890   10.6960   21.8340 N.3    42  LYS42      -0.1314
     30  N         17.0810   14.8140   11.5550 N.3    73  VAL73      -0.1245
     31  CA        15.7840   15.1580   12.1400 C.3    73  VAL73       0.1561
     32  C         15.9560   16.4120   12.9730 C.2    73  VAL73       0.2260
     33  O         16.9370   16.5550   13.6860 O.2    73  VAL73      -0.2867
     34  CB        15.1990   14.1080   13.0870 C.3    73  VAL73       0.0252
     35  CG1       14.5360   13.0020   12.3130 C.3    73  VAL73       0.0019
     36  CG2       16.2500   13.5440   14.0100 C.3    73  VAL73       0.0019
     37  N         10.4610   16.9620   18.5690 N.3    89  MET89      -0.1230
     38  CA        11.2160   16.6060   17.3930 C.3    89  MET89       0.1702
     39  C         10.2940   16.3520   16.2380 C.2    89  MET89       0.2592
     40  O          9.1630   15.9840   16.4130 O.2    89  MET89      -0.2718
     41  CB        11.9800   15.3180   17.6490 C.3    89  MET89       0.0401
     42  CG        12.9590   15.3440   18.8190 C.3    89  MET89       0.0596
     43  SD        14.4290   16.3350   18.4970 S.3    89  MET89      -0.1393
     44  CE        15.1810   15.6640   17.0180 C.3    89  MET89       0.0692
     45  N         10.8270   16.5290   15.0430 N.am   90  GLU90      -0.1966
     46  CA        10.2620   16.0410   13.7900 C.3    90  GLU90       0.1733
     47  C          9.8040   14.5600   13.9020 C.2    90  GLU90       0.2616
     48  O         10.5630   13.6910   14.3090 O.2    90  GLU90      -0.2715
     49  CB        11.3360   16.1930   12.6930 C.3    90  GLU90       0.0429
     50  CG        10.7910   16.2650   11.2610 C.3    90  GLU90       0.1163
     51  CD        11.7830   16.7960   10.2200 C.2    90  GLU90       0.3649
     52  OE1       12.9780   16.9930   10.5250 O.co2  90  GLU90      -0.2457
     53  OE2       11.3400   16.9970    9.0740 O.co2  90  GLU90      -0.2457
     54  N          8.5570   14.2830   13.5450 N.am   91  LEU91      -0.1963
     55  CA         8.0660   12.9100   13.5750 C.3    91  LEU91       0.1728
     56  C          8.2980   12.2450   12.2110 C.2    91  LEU91       0.2616
     57  O          7.8000   12.7040   11.1960 O.2    91  LEU91      -0.2715
     58  CB         6.5540   12.9110   13.9130 C.3    91  LEU91       0.0311
     59  CG         5.8520   11.5400   13.8720 C.3    91  LEU91       0.0022
     60  CD1        6.3320   10.6020   14.9820 C.3    91  LEU91       0.0001
     61  CD2        4.3470   11.7110   13.9340 C.3    91  LEU91       0.0001
     62  N          9.0070   11.1450   12.1640 N.am   92  MET92      -0.1963
     63  CA         9.1670   10.4440   10.8960 C.3    92  MET92       0.1736
     64  C          8.0790    9.3380   10.7030 C.2    92  MET92       0.2617
     65  O          7.0720    9.3400   11.4120 O.2    92  MET92      -0.2715
     66  CB        10.6010    9.9290   10.7910 C.3    92  MET92       0.0427
     67  CG        11.6330   11.0410   10.8790 C.3    92  MET92       0.0599
     68  SD        11.6260   12.2570    9.5410 S.3    92  MET92      -0.1393
     69  CE        12.3990   11.3070    8.2270 C.3    92  MET92       0.0692
     70  N          8.2510    8.4450    9.7140 N.am   93  GLY93      -0.1940
     71  CA         7.3230    7.3240    9.4590 C.3    93  GLY93       0.2014
     72  C          7.7980    5.9850   10.0440 C.2    93  GLY93       0.2640
     73  O          6.9930    5.1970   10.5820 O.2    93  GLY93      -0.2714
     74  N          9.1080    5.7380    9.9540 N.am   94  THR94      -0.1936
     75  CA         9.7000    4.4780   10.3550 C.3    94  THR94       0.2028
     76  C         11.2460    4.5420   10.2700 C.2    94  THR94       0.2642
     77  O         11.7750    5.5050    9.7100 O.2    94  THR94      -0.2714
     78  CB         9.0800    3.3150    9.5250 C.3    94  THR94       0.1808
     79  OG1        9.4070    2.0660   10.1360 O.3    94  THR94      -0.2208
     80  CG2        9.5500    3.3010    8.0890 C.3    94  THR94       0.0379
     81  N         11.9540    3.5700   10.8740 N.am   95  SER95      -0.1949
     82  CA        13.4170    3.3460   10.6410 C.3    95  SER95       0.1924
     83  C         13.5420    2.3510    9.4910 C.2    95  SER95       0.2314
     84  O         12.6370    1.5820    9.2640 O.2    95  SER95      -0.2863
     85  CB        14.1750    2.7910   11.8950 C.3    95  SER95       0.2116
     86  OG        13.6230    1.5800   12.4500 O.3    95  SER95      -0.2180
     87  N         15.3260   -0.2100    9.3940 N.3    97  GLU97      -0.1231
     88  CA        15.2690   -1.5320   10.0420 C.3    97  GLU97       0.1699
     89  C         13.8610   -2.0450   10.0770 C.2    97  GLU97       0.2592
     90  O         13.6160   -3.1270    9.6020 O.2    97  GLU97      -0.2718
     91  CB        15.8010   -1.5110   11.4720 C.3    97  GLU97       0.0402
     92  CG        15.7290   -2.8440   12.2280 C.3    97  GLU97       0.1161
     93  CD        16.1230   -2.7040   13.7120 C.2    97  GLU97       0.3649
     94  OE1       15.4800   -1.8990   14.4600 O.co2  97  GLU97      -0.2457
     95  OE2       17.0900   -3.3890   14.1400 O.co2  97  GLU97      -0.2457
     96  N         12.9420   -1.2570   10.6240 N.am   98  LYS98      -0.1980
     97  CA        11.5250   -1.6440   10.6670 C.3    98  LYS98       0.1596
     98  C         11.0300   -1.9820    9.2790 C.2    98  LYS98       0.2287
     99  O         10.3620   -2.9830    9.0620 O.2    98  LYS98      -0.2864
    100  CB        10.6450   -0.5420   11.2570 C.3    98  LYS98       0.0298
    101  CG        10.1270   -0.7720   12.6760 C.3    98  LYS98       0.0038
    102  CD         9.0050   -1.8250   12.7510 C.3    98  LYS98       0.0206
    103  CE         9.4760   -3.1590   13.3480 C.3    98  LYS98       0.1093
    104  NZ         8.9120   -4.3230   12.6080 N.3    98  LYS98      -0.1314
    105  N         18.6060    1.1200   11.7620 N.3   140  SER140     -0.1217
    106  CA        17.7210    1.6410   12.7940 C.3   140  SER140      0.1889
    107  C         17.9060    3.1340   12.9510 C.2   140  SER140      0.2288
    108  O         16.9780    3.7980   13.3260 O.2   140  SER140     -0.2866
    109  CB        17.9230    0.9350   14.1390 C.3   140  SER140      0.2089
    110  OG        19.2440    1.0280   14.6060 O.3   140  SER140     -0.2183
    111  N         15.9300    7.1440    8.8670 N.3   143  LEU143     -0.1245
    112  CA        14.5030    7.3650    9.0690 C.3   143  LEU143      0.1561
    113  C         13.8830    7.8300    7.7960 C.2   143  LEU143      0.2260
    114  O         14.5290    8.5370    7.0030 O.2   143  LEU143     -0.2867
    115  CB        14.2730    8.3880   10.1850 C.3   143  LEU143      0.0270
    116  CG        14.9120    8.0370   11.5360 C.3   143  LEU143      0.0019
    117  CD1       14.4310    8.9800   12.6170 C.3   143  LEU143      0.0001
    118  CD2       14.5840    6.6370   11.9710 C.3   143  LEU143      0.0001
    119  N         18.9710    9.9300   12.1500 N.3   153  CYS153     -0.1221
    120  CA        18.2270    9.9920   13.3570 C.3   153  CYS153      0.1808
    121  C         19.0330   10.7160   14.4110 C.2   153  CYS153      0.2601
    122  O         20.2560   10.6540   14.4210 O.2   153  CYS153     -0.2717
    123  CB        17.9930    8.5650   13.7890 C.3   153  CYS153      0.0970
    124  SG        17.0820    8.3910   15.3150 S.3   153  CYS153     -0.0800
    125  N         18.3370   11.3680   15.3360 N.am  154  ASP154     -0.1959
    126  CA        19.0040   12.0340   16.4500 C.3   154  ASP154      0.1840
    127  C         19.6550   11.0870   17.4440 C.2   154  ASP154      0.2622
    128  O         20.5560   11.4970   18.1820 O.2   154  ASP154     -0.2715
    129  CB        18.0360   12.9460   17.1750 C.3   154  ASP154      0.1450
    130  CG        16.9180   12.1940   17.8770 C.2   154  ASP154      0.3671
    131  OD1       16.4330   11.1690   17.3360 O.co2 154  ASP154     -0.2456
    132  OD2       16.4870   12.6720   18.9480 O.co2 154  ASP154     -0.2456
    133  N         19.2350    9.8230   17.4570 N.am  155  PHE155     -0.1974
    134  CA        19.7160    8.8710   18.4400 C.3   155  PHE155      0.1639
    135  C         21.1590    8.4850   18.1710 C.2   155  PHE155      0.2290
    136  O         21.4710    7.8440   17.1510 O.2   155  PHE155     -0.2864
    137  CB        18.8480    7.6040   18.4280 C.3   155  PHE155      0.0560
    138  CG        19.2630    6.5840   19.4390 C.ar  155  PHE155     -0.0200
    139  CD1       18.7780    6.6410   20.7530 C.ar  155  PHE155     -0.0042
    140  CD2       20.1670    5.5860   19.1090 C.ar  155  PHE155     -0.0042
    141  CE1       19.1680    5.7000   21.7050 C.ar  155  PHE155     -0.0003
    142  CE2       20.5680    4.6440   20.0610 C.ar  155  PHE155     -0.0003
    143  CZ        20.0710    4.7010   21.3610 C.ar  155  PHE155     -0.0000
@<TRIPOS>BOND
     1   114   113    2
     2   113   112    1
     3    80    78    1
     4    69    68    1
     5   111   112    1
     6    99    98    2
     7   112   115    1
     8    53    51   ar
     9    84    83    2
    10    98    97    1
    11    87    88    1
    12    71    70    1
    13    71    72    1
    14    83    82    1
    15    78    79    1
    16    78    75    1
    17    68    67    1
    18    90    89    2
    19    77    76    2
    20    70    64   am
    21    74    72   am
    22    74    75    1
    23    88    89    1
    24    88    91    1
    25    72    73    2
    26    89    96   am
    27   115   116    1
    28    51    52   ar
    29    51    50    1
    30    76    75    1
    31    76    81   am
    32    96    97    1
    33    82    81    1
    34    82    85    1
    35    97   100    1
    36    64    63    1
    37    64    65    2
    38    66    67    1
    39    66    63    1
    40    63    62    1
    41    57    56    2
    42   100   101    1
    43    50    49    1
    44    91    92    1
    45   116   118    1
    46   116   117    1
    47    30    31    1
    48   105   106    1
    49    85    86    1
    50    31    32    1
    51    31    34    1
    52   119   120    1
    53    62    56   am
    54    56    55    1
    55    92    93    1
    56    35    34    1
    57   104   103    1
    58   101   102    1
    59    49    46    1
    60   102   103    1
    61   106   107    1
    62   106   109    1
    63   107   108    2
    64    32    33    2
    65    34    36    1
    66   120   123    1
    67   120   121    1
    68    54    55    1
    69    54    47   am
    70    55    58    1
    71    93    95   ar
    72    93    94   ar
    73   123   124    1
    74    46    47    1
    75    46    45    1
    76    59    58    1
    77    59    61    1
    78    59    60    1
    79    47    48    2
    80   109   110    1
    81   121   122    2
    82   121   125   am
    83    45    39   am
    84   125   126    1
    85    39    40    2
    86    39    38    1
    87   126   129    1
    88   126   127    1
    89    44    43    1
    90   136   135    2
    91   129   130    1
    92     8     7    1
    93   131   130   ar
    94    38    41    1
    95    38    37    1
    96    16    17    1
    97   127   133   am
    98   127   128    2
    99   133   134    1
   100    41    42    1
   101    20    17    1
   102   130   132   ar
   103     7     6    1
   104   135   134    1
   105    17    18    1
   106   137   134    1
   107   137   138    1
   108    43    42    1
   109   140   138   ar
   110   140   142   ar
   111     5     6    2
   112     5     2    1
   113    19    18    2
   114   138   139   ar
   115   142   143   ar
   116     4     3    2
   117     2     3    1
   118     2     1    1
   119   139   141   ar
   120    14    13    1
   121   143   141   ar
   122    29    28    1
   123    13    15    1
   124    13    10    1
   125    28    27    1
   126    12    11    2
   127    11    10    1
   128    21    22    1
   129    10     9    1
   130    25    26    1
   131    25    22    1
   132    27    26    1
   133    22    23    1
   134    23    24    2
