@<TRIPOS>MOLECULE
tmp/5z1sA00.pdb
 117 114 0 0 0
SMALL
GASTEIGER

@<TRIPOS>ATOM
      1  N          4.2060    1.4060   -0.6220 N.3    49  TRP49      -0.1228
      2  CA         4.0400    2.7120   -1.2110 C.3    49  TRP49       0.1722
      3  C          5.3090    3.5130   -1.5640 C.2    49  TRP49       0.2437
      4  O          5.2890    4.2170   -2.5610 O.2    49  TRP49      -0.2733
      5  CB         3.0270    3.5630   -0.3690 C.3    49  TRP49       0.0563
      6  CG         3.3920    3.7380    1.0630 C.ar   49  TRP49       0.0003
      7  CD1        3.0340    2.9470    2.1260 C.ar   49  TRP49       0.0946
      8  CD2        4.2160    4.7790    1.6300 C.ar   49  TRP49       0.0152
      9  NE1        3.6000    3.4140    3.3130 N.ar   49  TRP49      -0.2442
     10  CE2        4.3050    4.5410    3.0170 C.ar   49  TRP49       0.0810
     11  CE3        4.8860    5.9150    1.1130 C.ar   49  TRP49       0.0012
     12  CZ2        5.0420    5.3810    3.8790 C.ar   49  TRP49       0.0191
     13  CZ3        5.5750    6.7140    2.0070 C.ar   49  TRP49       0.0001
     14  CH2        5.6430    6.4360    3.3430 C.ar   49  TRP49       0.0015
     15  N          6.4170    3.4400   -0.7710 N.am   50  PRO50      -0.2718
     16  CA         7.6120    4.1840   -1.1690 C.3    50  PRO50       0.1535
     17  C          8.2100    3.6160   -2.4560 C.2    50  PRO50       0.2598
     18  O          9.0470    4.2880   -3.0690 O.2    50  PRO50      -0.2715
     19  CB         8.5870    3.9670   -0.0100 C.3    50  PRO50       0.0310
     20  CG         7.7220    3.6140    1.1850 C.3    50  PRO50       0.0237
     21  CD         6.6330    2.7790    0.5150 C.3    50  PRO50       0.0939
     22  N          7.8310    2.3930   -2.7780 N.am   51  PHE51      -0.1974
     23  CA         8.4530    1.6230   -3.8690 C.3    51  PHE51       0.1639
     24  C          7.5400    1.5040   -5.0710 C.2    51  PHE51       0.2290
     25  O          7.9290    0.7910   -6.0550 O.2    51  PHE51      -0.2864
     26  CB         8.8720    0.2430   -3.3120 C.3    51  PHE51       0.0560
     27  CG         9.7080    0.3250   -2.1100 C.ar   51  PHE51      -0.0200
     28  CD1       11.0510    0.6980   -2.1570 C.ar   51  PHE51      -0.0042
     29  CD2        9.1520    0.1260   -0.8770 C.ar   51  PHE51      -0.0042
     30  CE1       11.8000    0.7830   -1.0320 C.ar   51  PHE51      -0.0003
     31  CE2        9.8830    0.2300    0.2850 C.ar   51  PHE51      -0.0003
     32  CZ        11.2350    0.5560    0.2300 C.ar   51  PHE51      -0.0000
     33  N         11.4490    7.1690   -7.7020 N.3    55  VAL55      -0.1245
     34  CA        11.6250    8.0480   -6.5580 C.3    55  VAL55       0.1561
     35  C         11.4860    9.4990   -7.0030 C.2    55  VAL55       0.2260
     36  O         12.1650    9.9880   -7.9220 O.2    55  VAL55      -0.2867
     37  CB        12.9840    7.8020   -5.8960 C.3    55  VAL55       0.0252
     38  CG1       13.2880    8.9030   -4.8480 C.3    55  VAL55       0.0019
     39  CG2       12.9830    6.4260   -5.2640 C.3    55  VAL55       0.0019
     40  N          9.9330   14.5970   -2.3090 N.3    60  LEU60      -0.1245
     41  CA        10.3490   14.0600   -1.0380 C.3    60  LEU60       0.1561
     42  C         11.4740   14.8260   -0.3590 C.2    60  LEU60       0.2260
     43  O         11.9640   14.4340    0.6900 O.2    60  LEU60      -0.2867
     44  CB        10.7320   12.5750   -1.1560 C.3    60  LEU60       0.0270
     45  CG         9.6050   11.7450   -1.7340 C.3    60  LEU60       0.0019
     46  CD1       10.0720   10.3270   -2.0520 C.3    60  LEU60       0.0001
     47  CD2        8.3670   11.7020   -0.8680 C.3    60  LEU60       0.0001
     48  N         14.6050   14.8910   -1.2010 N.3    62  LEU62      -0.1245
     49  CA        15.7900   14.0360   -1.1030 C.3    62  LEU62       0.1561
     50  C         16.7750   14.4400   -2.2280 C.2    62  LEU62       0.2260
     51  O         16.9810   13.7050   -3.2280 O.2    62  LEU62      -0.2867
     52  CB        15.4230   12.5710   -1.3110 C.3    62  LEU62       0.0270
     53  CG        14.3380   12.0460   -0.3210 C.3    62  LEU62       0.0019
     54  CD1       14.0800   10.6140   -0.6890 C.3    62  LEU62       0.0001
     55  CD2       14.8380   12.1180    1.1100 C.3    62  LEU62       0.0001
     56  N         19.3860   12.0400   -3.6650 N.3    65  TYR65      -0.1241
     57  CA        19.0500   10.6410   -3.9670 C.3    65  TYR65       0.1605
     58  C         19.6960   10.1430   -5.2920 C.2    65  TYR65       0.2264
     59  O         20.3270    9.1290   -5.3050 O.2    65  TYR65      -0.2867
     60  CB        17.5100   10.4560   -4.0670 C.3    65  TYR65       0.0534
     61  CG        17.1660    8.9960   -4.2460 C.ar   65  TYR65      -0.0201
     62  CD1       17.2170    8.1320   -3.1970 C.ar   65  TYR65      -0.0009
     63  CD2       16.8880    8.4770   -5.5050 C.ar   65  TYR65      -0.0009
     64  CE1       16.9360    6.7550   -3.3470 C.ar   65  TYR65       0.0417
     65  CE2       16.6340    7.1060   -5.6940 C.ar   65  TYR65       0.0417
     66  CZ        16.6680    6.2540   -4.6160 C.ar   65  TYR65       0.1957
     67  OH        16.4630    4.9070   -4.7790 O.3    65  TYR65      -0.2866
     68  N         17.8120    0.7450   -1.7720 N.3   104  CYS104     -0.1235
     69  CA        17.2450    1.1670   -0.4940 C.3   104  CYS104      0.1677
     70  C         18.3070    0.9720    0.6340 C.2   104  CYS104      0.2270
     71  O         18.5110    1.8260    1.4880 O.2   104  CYS104     -0.2867
     72  CB        15.9920    0.3440   -0.2130 C.3   104  CYS104      0.0956
     73  SG        15.2280    0.8640    1.2920 S.3   104  CYS104     -0.0801
     74  N         21.0890    3.7170    0.2530 N.3   107  TYR107     -0.1227
     75  CA        20.7470    5.0630    0.4690 C.3   107  TYR107      0.1736
     76  C         20.4380    5.3720    1.9250 C.2   107  TYR107      0.2595
     77  O         20.7290    6.5250    2.4040 O.2   107  TYR107     -0.2718
     78  CB        19.5980    5.5090   -0.4590 C.3   107  TYR107      0.0548
     79  CG        19.1900    6.9200   -0.2740 C.ar  107  TYR107     -0.0200
     80  CD1       20.0230    7.9700   -0.7080 C.ar  107  TYR107     -0.0009
     81  CD2       18.0360    7.2740    0.4170 C.ar  107  TYR107     -0.0009
     82  CE1       19.6860    9.2650   -0.4590 C.ar  107  TYR107      0.0417
     83  CE2       17.6800    8.5760    0.6510 C.ar  107  TYR107      0.0417
     84  CZ        18.5210    9.5900    0.1840 C.ar  107  TYR107      0.1957
     85  OH        18.1960   10.8980    0.4980 O.3   107  TYR107     -0.2866
     86  N         19.8900    4.4110    2.6510 N.am  108  ASN108     -0.1974
     87  CA        19.3320    4.7090    3.9700 C.3   108  ASN108      0.1688
     88  C         20.1860    4.0370    5.0260 C.2   108  ASN108      0.2292
     89  O         21.1510    3.3640    4.6870 O.2   108  ASN108     -0.2864
     90  CB        17.8790    4.1770    4.0450 C.3   108  ASN108      0.1181
     91  CG        16.9590    4.7660    2.9420 C.2   108  ASN108      0.2629
     92  OD1       16.3830    5.8650    3.0570 O.2   108  ASN108     -0.2716
     93  ND2       16.8620    4.0200    1.8440 N.am  108  ASN108     -0.0877
     94  N         12.9480    3.5240    9.1140 N.3   113  ASP113     -0.1225
     95  CA        11.6290    3.0120    8.7420 C.3   113  ASP113      0.1805
     96  C         11.6330    2.4430    7.3200 C.2   113  ASP113      0.2597
     97  O         11.0580    1.3600    7.0440 O.2   113  ASP113     -0.2718
     98  CB        10.5470    4.0870    8.8210 C.3   113  ASP113      0.1424
     99  CG         9.9530    4.2510   10.2260 C.2   113  ASP113      0.3668
    100  OD1       10.1230    3.3450   11.0790 O.co2 113  ASP113     -0.2456
    101  OD2        9.2800    5.3010   10.4300 O.co2 113  ASP113     -0.2456
    102  N         12.1990    3.1860    6.3750 N.am  114  ILE114     -0.1980
    103  CA        12.2470    2.7000    5.0110 C.3   114  ILE114      0.1595
    104  C         12.9620    1.3680    4.8970 C.2   114  ILE114      0.2287
    105  O         12.5910    0.5550    4.0640 O.2   114  ILE114     -0.2864
    106  CB        12.8840    3.7860    4.1080 C.3   114  ILE114      0.0276
    107  CG1       11.8950    4.9030    3.8990 C.3   114  ILE114      0.0022
    108  CG2       13.3000    3.2490    2.7300 C.3   114  ILE114      0.0022
    109  CD1       10.8230    4.5190    2.8370 C.3   114  ILE114      0.0001
    110  N         10.8020   -1.4300    6.0840 N.3   117  MET117     -0.1245
    111  CA         9.8590   -1.7370    5.0050 C.3   117  MET117      0.1570
    112  C         10.4820   -2.6070    3.9050 C.2   117  MET117      0.2261
    113  O          9.9280   -3.6270    3.5340 O.2   117  MET117     -0.2867
    114  CB         9.3350   -0.4390    4.4090 C.3   117  MET117      0.0387
    115  CG         8.4990    0.3370    5.4260 C.3   117  MET117      0.0595
    116  SD         8.2290    2.0620    4.9050 S.3   117  MET117     -0.1393
    117  CE         6.6250    1.8660    4.2010 C.3   117  MET117      0.0692
@<TRIPOS>BOND
     1    36    35    2
     2    33    34    1
     3    35    34    1
     4    34    37    1
     5    25    24    2
     6    37    39    1
     7    37    38    1
     8    65    63   ar
     9    65    66   ar
    10    63    61   ar
    11    59    58    2
    12    58    57    1
    13    24    23    1
    14    67    66    1
    15    66    64   ar
    16    61    60    1
    17    61    62   ar
    18    60    57    1
    19    57    56    1
    20    23    26    1
    21    23    22    1
    22    64    62   ar
    23    26    27    1
    24    51    50    2
    25    18    17    2
    26    22    17   am
    27     4     3    2
    28    17    16    1
    29    40    41    1
    30    50    49    1
    31    28    27   ar
    32    28    30   ar
    33    27    29   ar
    34    46    45    1
    35    68    69    1
    36    45    44    1
    37    45    47    1
    38     3     2    1
    39     3    15   am
    40    52    49    1
    41    52    53    1
    42     2     1    1
    43     2     5    1
    44    48    49    1
    45    16    15    1
    46    16    19    1
    47    44    41    1
    48    41    42    1
    49    30    32   ar
    50    29    31   ar
    51    15    21    1
    52    80    82   ar
    53    80    79   ar
    54    54    53    1
    55    69    72    1
    56    69    70    1
    57    82    84   ar
    58    78    79    1
    59    78    75    1
    60     5     6    1
    61    42    43    2
    62    53    55    1
    63    79    81   ar
    64    72    73    1
    65    19    20    1
    66    84    85    1
    67    84    83   ar
    68    32    31   ar
    69    74    75    1
    70    81    83   ar
    71    75    76    1
    72    21    20    1
    73    70    71    2
    74     6     8   ar
    75     6     7   ar
    76    11     8   ar
    77    11    13   ar
    78     8    10   ar
    79    93    91   am
    80    76    77    2
    81    76    86   am
    82    13    14   ar
    83     7     9   ar
    84    86    87    1
    85   108   106    1
    86   109   107    1
    87    91    92    2
    88    91    90    1
    89    10     9   ar
    90    10    12   ar
    91    14    12   ar
    92   113   112    2
    93   107   106    1
    94   112   111    1
    95    87    90    1
    96    87    88    1
    97   105   104    2
    98   106   103    1
    99   117   116    1
   100   114   111    1
   101   114   115    1
   102    89    88    2
   103   104   103    1
   104   116   115    1
   105   111   110    1
   106   103   102    1
   107   102    96   am
   108    97    96    2
   109    96    95    1
   110    95    98    1
   111    95    94    1
   112    98    99    1
   113    99   101   ar
   114    99   100   ar
