@<TRIPOS>MOLECULE
tmp/5z1tA00.pdb
 117 114 0 0 0
SMALL
GASTEIGER

@<TRIPOS>ATOM
      1  N         -4.1710    1.3880    0.6390 N.3    49  TRP49      -0.1228
      2  CA        -4.0200    2.6850    1.2160 C.3    49  TRP49       0.1722
      3  C         -5.2940    3.4790    1.5730 C.2    49  TRP49       0.2437
      4  O         -5.2530    4.1860    2.5680 O.2    49  TRP49      -0.2733
      5  CB        -3.0360    3.5580    0.3770 C.3    49  TRP49       0.0563
      6  CG        -3.3970    3.7340   -1.0360 C.ar   49  TRP49       0.0003
      7  CD1       -3.0540    2.9220   -2.0880 C.ar   49  TRP49       0.0946
      8  CD2       -4.2200    4.7750   -1.5970 C.ar   49  TRP49       0.0152
      9  NE1       -3.6190    3.3800   -3.2740 N.ar   49  TRP49      -0.2442
     10  CE2       -4.3100    4.5210   -2.9980 C.ar   49  TRP49       0.0810
     11  CE3       -4.8930    5.9070   -1.0870 C.ar   49  TRP49       0.0012
     12  CZ2       -5.0200    5.3460   -3.8590 C.ar   49  TRP49       0.0191
     13  CZ3       -5.5800    6.7030   -2.0180 C.ar   49  TRP49       0.0001
     14  CH2       -5.6350    6.3910   -3.3530 C.ar   49  TRP49       0.0015
     15  N         -6.3920    3.4000    0.7670 N.am   50  PRO50      -0.2718
     16  CA        -7.5610    4.1720    1.1690 C.3    50  PRO50       0.1535
     17  C         -8.1700    3.6310    2.4610 C.2    50  PRO50       0.2598
     18  O         -9.0470    4.2920    3.0310 O.2    50  PRO50      -0.2715
     19  CB        -8.5480    3.9910    0.0210 C.3    50  PRO50       0.0310
     20  CG        -7.6740    3.6140   -1.1730 C.3    50  PRO50       0.0237
     21  CD        -6.6300    2.7450   -0.5320 C.3    50  PRO50       0.0939
     22  N         -7.8040    2.3880    2.8040 N.am   51  PHE51      -0.1974
     23  CA        -8.4260    1.6120    3.8810 C.3    51  PHE51       0.1639
     24  C         -7.5140    1.4950    5.0770 C.2    51  PHE51       0.2290
     25  O         -7.9060    0.8300    6.0710 O.2    51  PHE51      -0.2864
     26  CB        -8.8140    0.2200    3.3170 C.3    51  PHE51       0.0560
     27  CG        -9.6870    0.2910    2.1280 C.ar   51  PHE51      -0.0200
     28  CD1      -11.0310    0.6630    2.1740 C.ar   51  PHE51      -0.0042
     29  CD2       -9.1410    0.1030    0.8810 C.ar   51  PHE51      -0.0042
     30  CE1      -11.8040    0.7700    1.0310 C.ar   51  PHE51      -0.0003
     31  CE2       -9.9030    0.2090   -0.2760 C.ar   51  PHE51      -0.0003
     32  CZ       -11.2520    0.5520   -0.2360 C.ar   51  PHE51      -0.0000
     33  N        -11.4590    7.1690    7.6780 N.3    55  VAL55      -0.1245
     34  CA       -11.6550    8.0320    6.5400 C.3    55  VAL55       0.1561
     35  C        -11.5090    9.4770    6.9940 C.2    55  VAL55       0.2260
     36  O        -12.2250    9.9740    7.8810 O.2    55  VAL55      -0.2867
     37  CB       -12.9910    7.7900    5.8750 C.3    55  VAL55       0.0252
     38  CG1      -13.3170    8.8850    4.8130 C.3    55  VAL55       0.0019
     39  CG2      -12.9940    6.4060    5.2350 C.3    55  VAL55       0.0019
     40  N         -9.9720   14.5750    2.2800 N.3    60  LEU60      -0.1245
     41  CA       -10.3650   14.0070    1.0180 C.3    60  LEU60       0.1561
     42  C        -11.5050   14.7590    0.3320 C.2    60  LEU60       0.2260
     43  O        -11.9550   14.3740   -0.7460 O.2    60  LEU60      -0.2867
     44  CB       -10.7260   12.5240    1.1850 C.3    60  LEU60       0.0270
     45  CG        -9.6040   11.6950    1.7850 C.3    60  LEU60       0.0019
     46  CD1      -10.1270   10.3040    2.1010 C.3    60  LEU60       0.0001
     47  CD2       -8.4150   11.6320    0.8570 C.3    60  LEU60       0.0001
     48  N        -14.6490   14.9150    1.2160 N.3    62  LEU62      -0.1245
     49  CA       -15.8530   14.0580    1.1430 C.3    62  LEU62       0.1561
     50  C        -16.8320   14.4660    2.2500 C.2    62  LEU62       0.2260
     51  O        -17.0650   13.7120    3.2310 O.2    62  LEU62      -0.2867
     52  CB       -15.5060   12.5760    1.3500 C.3    62  LEU62       0.0270
     53  CG       -14.4210   12.0810    0.4470 C.3    62  LEU62       0.0019
     54  CD1      -14.1110   10.6390    0.7560 C.3    62  LEU62       0.0001
     55  CD2      -14.8650   12.0950   -1.0280 C.3    62  LEU62       0.0001
     56  N        -19.4230   12.0510    3.6660 N.3    65  TYR65      -0.1241
     57  CA       -19.0940   10.6530    3.9810 C.3    65  TYR65       0.1605
     58  C        -19.7300   10.1760    5.3160 C.2    65  TYR65       0.2264
     59  O        -20.3380    9.1550    5.3400 O.2    65  TYR65      -0.2867
     60  CB       -17.5510   10.4750    4.0460 C.3    65  TYR65       0.0534
     61  CG       -17.1950    9.0090    4.2440 C.ar   65  TYR65      -0.0201
     62  CD1      -17.1970    8.1450    3.1850 C.ar   65  TYR65      -0.0009
     63  CD2      -16.9210    8.4960    5.5070 C.ar   65  TYR65      -0.0009
     64  CE1      -16.9480    6.7780    3.3520 C.ar   65  TYR65       0.0417
     65  CE2      -16.6520    7.1360    5.7080 C.ar   65  TYR65       0.0417
     66  CZ       -16.6730    6.2820    4.6270 C.ar   65  TYR65       0.1957
     67  OH       -16.4900    4.9310    4.7840 O.3    65  TYR65      -0.2866
     68  N        -17.8330    0.7890    1.7370 N.3   104  CYS104     -0.1235
     69  CA       -17.2800    1.2170    0.4630 C.3   104  CYS104      0.1677
     70  C        -18.3290    1.0180   -0.6600 C.2   104  CYS104      0.2270
     71  O        -18.5530    1.8600   -1.4900 O.2   104  CYS104     -0.2867
     72  CB       -15.9850    0.4240    0.2290 C.3   104  CYS104      0.0956
     73  SG       -15.2030    0.9470   -1.2870 S.3   104  CYS104     -0.0801
     74  N        -21.1640    3.7400   -0.2030 N.3   107  TYR107     -0.1227
     75  CA       -20.8010    5.1000   -0.4320 C.3   107  TYR107      0.1736
     76  C        -20.5120    5.4150   -1.9020 C.2   107  TYR107      0.2595
     77  O        -20.7720    6.5710   -2.3810 O.2   107  TYR107     -0.2718
     78  CB       -19.6330    5.5500    0.4800 C.3   107  TYR107      0.0548
     79  CG       -19.2450    6.9790    0.2770 C.ar  107  TYR107     -0.0200
     80  CD1      -20.0630    8.0200    0.7320 C.ar  107  TYR107     -0.0009
     81  CD2      -18.1010    7.3280   -0.4220 C.ar  107  TYR107     -0.0009
     82  CE1      -19.7490    9.3300    0.4790 C.ar  107  TYR107      0.0417
     83  CE2      -17.7420    8.6430   -0.6450 C.ar  107  TYR107      0.0417
     84  CZ       -18.6200    9.6590   -0.1930 C.ar  107  TYR107      0.1957
     85  OH       -18.2800   10.9780   -0.4920 O.3   107  TYR107     -0.2866
     86  N        -19.9410    4.4680   -2.6480 N.am  108  ASN108     -0.1974
     87  CA       -19.3750    4.7760   -3.9660 C.3   108  ASN108      0.1688
     88  C        -20.2530    4.0740   -4.9910 C.2   108  ASN108      0.2292
     89  O        -21.2390    3.4310   -4.6450 O.2   108  ASN108     -0.2864
     90  CB       -17.8990    4.2680   -4.0250 C.3   108  ASN108      0.1181
     91  CG       -17.0470    4.8500   -2.9080 C.2   108  ASN108      0.2629
     92  OD1      -16.4920    5.9640   -3.0070 O.2   108  ASN108     -0.2716
     93  ND2      -16.8750    4.0470   -1.8520 N.am  108  ASN108     -0.0877
     94  N        -12.9230    3.5660   -9.1020 N.3   113  ASP113     -0.1225
     95  CA       -11.6310    3.0080   -8.7360 C.3   113  ASP113      0.1805
     96  C        -11.6370    2.4430   -7.2980 C.2   113  ASP113      0.2597
     97  O        -11.0740    1.3610   -7.0350 O.2   113  ASP113     -0.2718
     98  CB       -10.5320    4.0690   -8.8230 C.3   113  ASP113      0.1424
     99  CG        -9.9610    4.2250  -10.1950 C.2   113  ASP113      0.3668
    100  OD1      -10.1460    3.3450  -11.0370 O.co2 113  ASP113     -0.2456
    101  OD2       -9.2640    5.2640  -10.4050 O.co2 113  ASP113     -0.2456
    102  N        -12.2400    3.1590   -6.3610 N.am  114  ILE114     -0.1980
    103  CA       -12.2130    2.6880   -4.9860 C.3   114  ILE114      0.1595
    104  C        -13.0100    1.3850   -4.8170 C.2   114  ILE114      0.2287
    105  O        -12.6620    0.5540   -3.9890 O.2   114  ILE114     -0.2864
    106  CB       -12.7110    3.8010   -4.0670 C.3   114  ILE114      0.0276
    107  CG1      -12.3260    3.5390   -2.6210 C.3   114  ILE114      0.0022
    108  CG2      -14.2050    4.0040   -4.2360 C.3   114  ILE114      0.0022
    109  CD1      -10.8660    3.7560   -2.3030 C.3   114  ILE114      0.0001
    110  N        -10.8600   -1.4240   -6.0470 N.3   117  MET117     -0.1245
    111  CA        -9.9290   -1.7460   -4.9920 C.3   117  MET117      0.1570
    112  C        -10.5400   -2.6170   -3.9160 C.2   117  MET117      0.2261
    113  O         -9.9600   -3.6120   -3.4910 O.2   117  MET117     -0.2867
    114  CB        -9.3630   -0.4650   -4.4000 C.3   117  MET117      0.0387
    115  CG        -8.5410    0.3060   -5.4030 C.3   117  MET117      0.0595
    116  SD        -8.2150    2.0310   -4.9120 S.3   117  MET117     -0.1393
    117  CE        -6.6330    1.8210   -4.1490 C.3   117  MET117      0.0692
@<TRIPOS>BOND
     1   100    99   ar
     2   101    99   ar
     3    99    98    1
     4    94    95    1
     5    98    95    1
     6    95    96    1
     7    96    97    2
     8    96   102   am
     9   102   103    1
    10   110   111    1
    11   115   116    1
    12   115   114    1
    13   111   114    1
    14   111   112    1
    15    88    89    2
    16    88    87    1
    17   103   104    1
    18   103   106    1
    19   116   117    1
    20   104   105    2
    21   108   106    1
    22   106   107    1
    23    90    87    1
    24    90    91    1
    25    87    86    1
    26   112   113    2
    27    12    14   ar
    28    12    10   ar
    29    14    13   ar
    30     9    10   ar
    31     9     7   ar
    32    92    91    2
    33    10     8   ar
    34    91    93   am
    35    86    76   am
    36   107   109    1
    37    77    76    2
    38     7     6   ar
    39    13    11   ar
    40    76    75    1
    41     8    11   ar
    42     8     6   ar
    43    71    70    2
    44    73    72    1
    45    20    21    1
    46    20    19    1
    47     6     5    1
    48    55    53    1
    49    43    42    2
    50    70    69    1
    51    83    81   ar
    52    83    84   ar
    53    21    15    1
    54    85    84    1
    55    75    74    1
    56    75    78    1
    57    81    79   ar
    58    31    32   ar
    59    31    29   ar
    60    32    30   ar
    61    84    82   ar
    62    19    16    1
    63    72    69    1
    64    79    78    1
    65    79    80   ar
    66    42    41    1
    67     5     2    1
    68    53    54    1
    69    53    52    1
    70    69    68    1
    71    82    80   ar
    72     1     2    1
    73    15    16    1
    74    15     3   am
    75    47    45    1
    76    29    27   ar
    77    41    44    1
    78    41    40    1
    79    30    28   ar
    80    49    48    1
    81    49    52    1
    82    49    50    1
    83    16    17    1
    84    44    45    1
    85     2     3    1
    86     3     4    2
    87    45    46    1
    88    27    28   ar
    89    27    26    1
    90    50    51    2
    91    17    22   am
    92    17    18    2
    93    22    23    1
    94    62    64   ar
    95    62    61   ar
    96    26    23    1
    97    64    66   ar
    98    56    57    1
    99    23    24    1
   100    57    60    1
   101    57    58    1
   102    60    61    1
   103    61    63   ar
   104    66    67    1
   105    66    65   ar
   106    38    37    1
   107    24    25    2
   108    39    37    1
   109    58    59    2
   110    63    65   ar
   111    37    34    1
   112    34    35    1
   113    34    33    1
   114    35    36    2
