@<TRIPOS>MOLECULE
tmp/5z1xB00.pdb
 86 78 0 0 0
SMALL
GASTEIGER

@<TRIPOS>ATOM
      1  N        -27.0870  -57.8850   51.5800 N.3   319  PRO319     -0.2102
      2  CA       -26.3400  -57.7880   50.3180 C.3   319  PRO319      0.1504
      3  C        -25.1730  -58.7690   50.2300 C.2   319  PRO319      0.2576
      4  O        -24.4160  -58.9170   51.1850 O.2   319  PRO319     -0.2718
      5  CB       -25.8390  -56.3430   50.3220 C.3   319  PRO319      0.0282
      6  CG       -26.8780  -55.6070   51.0930 C.3   319  PRO319      0.0208
      7  CD       -27.2870  -56.5550   52.1880 C.3   319  PRO319      0.0893
      8  N        -25.0530  -59.4420   49.0910 N.am  320  GLY320     -0.1957
      9  CA       -24.0300  -60.4640   48.8940 C.3   320  GLY320      0.1869
     10  C        -24.3130  -61.7840   49.5880 C.2   320  GLY320      0.2309
     11  O        -23.4670  -62.6790   49.5850 O.2   320  GLY320     -0.2863
     12  N        -21.7060  -63.7400   43.7620 N.3   325  VAL325     -0.1245
     13  CA       -22.0340  -62.3390   43.5160 C.3   325  VAL325      0.1561
     14  C        -21.2830  -61.8420   42.2870 C.2   325  VAL325      0.2260
     15  O        -20.0800  -62.0650   42.1600 O.2   325  VAL325     -0.2867
     16  CB       -21.6380  -61.4480   44.7110 C.3   325  VAL325      0.0252
     17  CG1      -21.9390  -59.9820   44.4210 C.3   325  VAL325      0.0019
     18  CG2      -22.3600  -61.8940   45.9720 C.3   325  VAL325      0.0019
     19  N        -21.0980  -58.0740   40.7700 N.3   327  ASN327     -0.1240
     20  CA       -21.4270  -56.6640   40.6990 C.3   327  ASN327      0.1653
     21  C        -20.9730  -56.1630   39.3390 C.2   327  ASN327      0.2266
     22  O        -19.8060  -55.8190   39.1460 O.2   327  ASN327     -0.2867
     23  CB       -20.7630  -55.8860   41.8430 C.3   327  ASN327      0.1155
     24  CG       -21.2060  -56.3690   43.2150 C.2   327  ASN327      0.2627
     25  OD1      -20.3790  -56.6420   44.0890 O.2   327  ASN327     -0.2716
     26  ND2      -22.5110  -56.4830   43.4100 N.am  327  ASN327     -0.0877
     27  N        -26.4260  -63.4600   42.9070 N.3   381  GLU381     -0.1245
     28  CA       -26.8440  -62.0660   42.9940 C.3   381  GLU381      0.1567
     29  C        -26.0850  -61.2400   41.9730 C.2   381  GLU381      0.2260
     30  O        -24.8570  -61.2820   41.9250 O.2   381  GLU381     -0.2867
     31  CB       -26.6050  -61.4920   44.3890 C.3   381  GLU381      0.0388
     32  CG       -27.0750  -60.0540   44.5410 C.3   381  GLU381      0.1160
     33  CD       -27.0070  -59.5780   45.9730 C.2   381  GLU381      0.3649
     34  OE1      -28.0490  -59.6140   46.6550 O.co2 381  GLU381     -0.2457
     35  OE2      -25.9120  -59.1830   46.4190 O.co2 381  GLU381     -0.2457
     36  N        -25.7340  -57.2030   40.6070 N.3   383  THR383     -0.1218
     37  CA       -26.0890  -55.7930   40.6620 C.3   383  THR383      0.1862
     38  C        -25.7690  -55.1520   39.3200 C.2   383  THR383      0.2287
     39  O        -24.8440  -55.5690   38.6130 O.2   383  THR383     -0.2866
     40  CB       -25.4110  -55.0230   41.8120 C.3   383  THR383      0.1770
     41  OG1      -23.9900  -55.0090   41.6360 O.3   383  THR383     -0.2211
     42  CG2      -25.7620  -55.6400   43.1550 C.3   383  THR383      0.0375
     43  N        -25.5860  -51.4910   38.6180 N.3   385  ALA385     -0.1231
     44  CA       -25.5640  -50.0820   38.9930 C.3   385  ALA385      0.1694
     45  C        -25.5690  -49.1970   37.7530 C.2   385  ALA385      0.2591
     46  O        -24.7680  -49.3840   36.8370 O.2   385  ALA385     -0.2718
     47  CB       -24.3600  -49.7770   39.8700 C.3   385  ALA385      0.0304
     48  N        -26.4900  -48.2410   37.7310 N.am  386  ALA386     -0.1980
     49  CA       -26.7160  -47.4100   36.5590 C.3   386  ALA386      0.1597
     50  C        -25.8930  -46.1220   36.6140 C.2   386  ALA386      0.2287
     51  O        -25.1270  -45.8980   37.5560 O.2   386  ALA386     -0.2864
     52  CB       -28.2000  -47.1080   36.4290 C.3   386  ALA386      0.0319
     53  N        -33.8830  -55.1660   44.6320 N.3   406  ARG406     -0.1245
     54  CA       -33.7710  -53.7090   44.6600 C.3   406  ARG406      0.1563
     55  C        -34.1000  -53.1310   43.2840 C.2   406  ARG406      0.2260
     56  O        -33.3900  -53.3900   42.3130 O.2   406  ARG406     -0.2867
     57  CB       -32.3750  -53.2770   45.1110 C.3   406  ARG406      0.0307
     58  CG       -32.2480  -51.7800   45.3310 C.3   406  ARG406      0.0489
     59  CD       -30.9410  -51.4090   46.0150 C.3   406  ARG406      0.2205
     60  NE       -30.7250  -49.9650   45.9990 N.pl3 406  ARG406     -0.0865
     61  CZ       -29.6230  -49.3540   46.4270 C.cat 406  ARG406      0.5346
     62  NH1      -28.6060  -50.0540   46.9210 N.pl3 406  ARG406      0.1354
     63  NH2      -29.5390  -48.0320   46.3580 N.pl3 406  ARG406      0.1354
     64  N        -28.9130  -45.3550   41.1820 N.3   431  ASP431     -0.1225
     65  CA       -29.6250  -46.6240   41.2770 C.3   431  ASP431      0.1805
     66  C        -28.6450  -47.7820   41.3090 C.2   431  ASP431      0.2597
     67  O        -27.5570  -47.7080   40.7370 O.2   431  ASP431     -0.2718
     68  CB       -30.6110  -46.7860   40.1190 C.3   431  ASP431      0.1424
     69  CG       -31.7810  -45.8350   40.2240 C.2   431  ASP431      0.3668
     70  OD1      -32.2650  -45.6130   41.3550 O.co2 431  ASP431     -0.2456
     71  OD2      -32.2260  -45.3160   39.1820 O.co2 431  ASP431     -0.2456
     72  N        -29.0350  -48.8490   41.9950 N.am  432  ASN432     -0.1974
     73  CA       -28.2090  -50.0410   42.0860 C.3   432  ASN432      0.1688
     74  C        -29.1090  -51.2640   42.0820 C.2   432  ASN432      0.2292
     75  O        -29.2270  -51.9940   43.0750 O.2   432  ASN432     -0.2864
     76  CB       -27.3200  -49.9830   43.3310 C.3   432  ASN432      0.1181
     77  CG       -26.1690  -50.9720   43.2830 C.2   432  ASN432      0.2629
     78  OD1      -25.9940  -51.7150   42.3130 O.2   432  ASN432     -0.2716
     79  ND2      -25.3640  -50.9740   44.3510 N.am  432  ASN432     -0.0877
     80  N        -30.6940  -54.6910   41.8710 N.3   434  THR434     -0.1218
     81  CA       -30.1480  -55.9460   42.3520 C.3   434  THR434      0.1862
     82  C        -31.1550  -57.0560   42.0930 C.2   434  THR434      0.2287
     83  O        -32.3300  -56.9370   42.4570 O.2   434  THR434     -0.2866
     84  CB       -29.8370  -55.8620   43.8570 C.3   434  THR434      0.1770
     85  OG1      -28.9910  -54.7300   44.1070 O.3   434  THR434     -0.2211
     86  CG2      -29.1490  -57.1350   44.3490 C.3   434  THR434      0.0375
@<TRIPOS>BOND
     1    52    49    1
     2    49    50    1
     3    49    48    1
     4    50    51    2
     5    46    45    2
     6    48    45   am
     7    45    44    1
     8    39    38    2
     9    43    44    1
    10    44    47    1
    11    22    21    2
    12    71    69   ar
    13    38    37    1
    14    21    20    1
    15    68    69    1
    16    68    65    1
    17    69    70   ar
    18    36    37    1
    19    37    40    1
    20    20    19    1
    21    20    23    1
    22    67    66    2
    23    64    65    1
    24    65    66    1
    25    66    72   am
    26    41    40    1
    27    40    42    1
    28    23    24    1
    29    80    81    1
    30    30    29    2
    31    29    28    1
    32    72    73    1
    33    74    73    1
    34    74    75    2
    35    73    76    1
    36    82    81    1
    37    82    83    2
    38    15    14    2
    39    14    13    1
    40    56    55    2
    41    78    77    2
    42    81    84    1
    43    27    28    1
    44    28    31    1
    45    24    26   am
    46    24    25    2
    47    77    76    1
    48    77    79   am
    49    55    54    1
    50    13    12    1
    51    13    16    1
    52    84    85    1
    53    84    86    1
    54    31    32    1
    55    17    16    1
    56    32    33    1
    57    53    54    1
    58    54    57    1
    59    16    18    1
    60    57    58    1
    61    58    59    1
    62    33    35   ar
    63    33    34   ar
    64    60    59    1
    65    60    61    2
    66    63    61    1
    67    61    62    1
    68     9     8    1
    69     9    10    1
    70     8     3   am
    71    11    10    2
    72     3     2    1
    73     3     4    2
    74     2     5    1
    75     2     1    1
    76     5     6    1
    77     6     7    1
    78     1     7    1
