@<TRIPOS>MOLECULE
tmp/5z25A00.pdb
 151 146 0 0 0
SMALL
GASTEIGER

@<TRIPOS>ATOM
      1  N        -17.6240  -50.3040  -43.6210 N.3    50  ILE50      -0.1231
      2  CA       -16.7030  -51.0680  -44.4740 C.3    50  ILE50       0.1692
      3  C        -17.3500  -52.3820  -44.8930 C.2    50  ILE50       0.2592
      4  O        -17.3750  -52.7290  -46.0800 O.2    50  ILE50      -0.2718
      5  CB       -15.3530  -51.3330  -43.7690 C.3    50  ILE50       0.0266
      6  CG1      -14.5640  -50.0230  -43.6650 C.3    50  ILE50       0.0019
      7  CG2      -14.5240  -52.3730  -44.5240 C.3    50  ILE50       0.0020
      8  CD1      -13.4050  -50.0640  -42.6880 C.3    50  ILE50       0.0001
      9  N        -17.8750  -53.1000  -43.9120 N.am   51  PHE51      -0.1976
     10  CA       -18.4470  -54.4110  -44.1570 C.3    51  PHE51       0.1639
     11  C        -19.5620  -54.3680  -45.2030 C.2    51  PHE51       0.2290
     12  O        -19.6050  -55.2120  -46.0840 O.2    51  PHE51      -0.2864
     13  CB       -18.9720  -55.0060  -42.8570 C.3    51  PHE51       0.0560
     14  CG       -19.3380  -56.4390  -42.9700 C.ar   51  PHE51      -0.0200
     15  CD1      -18.3650  -57.4210  -42.8800 C.ar   51  PHE51      -0.0042
     16  CD2      -20.6680  -56.8160  -43.1620 C.ar   51  PHE51      -0.0042
     17  CE1      -18.7040  -58.7580  -42.9760 C.ar   51  PHE51      -0.0003
     18  CE2      -21.0030  -58.1470  -43.2600 C.ar   51  PHE51      -0.0003
     19  CZ       -20.0250  -59.1160  -43.1700 C.ar   51  PHE51      -0.0000
     20  N        -18.0610  -52.6230  -48.9090 N.3    54  LYS54      -0.1231
     21  CA       -17.1430  -53.4420  -49.6900 C.3    54  LYS54       0.1693
     22  C        -17.8030  -54.7180  -50.2350 C.2    54  LYS54       0.2593
     23  O        -17.1740  -55.4470  -50.9910 O.2    54  LYS54      -0.2718
     24  CB       -15.8800  -53.7900  -48.8950 C.3    54  LYS54       0.0285
     25  CG       -15.1000  -52.6100  -48.3430 C.3    54  LYS54       0.0035
     26  CD       -14.6670  -51.5780  -49.3670 C.3    54  LYS54       0.0206
     27  CE       -14.0930  -50.3610  -48.6650 C.3    54  LYS54       0.1093
     28  NZ       -13.5120  -49.3850  -49.6090 N.3    54  LYS54      -0.1314
     29  N        -19.0610  -54.9740  -49.8700 N.am   55  GLY55      -0.1942
     30  CA       -19.8120  -56.1010  -50.4060 C.3    55  GLY55       0.2014
     31  C        -19.8480  -57.3330  -49.5250 C.2    55  GLY55       0.2639
     32  O        -20.5070  -58.3030  -49.8810 O.2    55  GLY55      -0.2714
     33  N        -19.1770  -57.2950  -48.3690 N.am   56  CYS56      -0.1967
     34  CA       -19.0970  -58.4640  -47.4680 C.3    56  CYS56       0.1712
     35  C        -20.4480  -59.0130  -47.0350 C.2    56  CYS56       0.2296
     36  O        -20.6330  -60.2270  -46.9580 O.2    56  CYS56      -0.2864
     37  CB       -18.3010  -58.1330  -46.2090 C.3    56  CYS56       0.0983
     38  SG       -16.7920  -57.1740  -46.5190 S.3    56  CYS56      -0.0798
     39  N        -23.1840  -59.1380  -48.6160 N.3    58  SER58      -0.1202
     40  CA       -23.8730  -59.8920  -49.6720 C.3    58  SER58       0.2020
     41  C        -23.7270  -61.4170  -49.5210 C.2    58  SER58       0.2619
     42  O        -24.6260  -62.1640  -49.9210 O.2    58  SER58      -0.2717
     43  CB       -23.4000  -59.4390  -51.0580 C.3    58  SER58       0.2103
     44  OG       -22.0760  -59.8620  -51.3130 O.3    58  SER58      -0.2182
     45  N        -22.6080  -61.8720  -48.9460 N.am   59  CYS59      -0.1955
     46  CA       -22.3620  -63.3050  -48.7280 C.3    59  CYS59       0.1843
     47  C        -22.2940  -63.7350  -47.2740 C.2    59  CYS59       0.2625
     48  O        -22.2450  -64.9350  -47.0010 O.2    59  CYS59      -0.2714
     49  CB       -21.0580  -63.6820  -49.3980 C.3    59  CYS59       0.0997
     50  SG       -21.1450  -63.4460  -51.1750 S.3    59  CYS59      -0.0797
     51  N        -22.2840  -62.7710  -46.3490 N.am   60  HIS60      -0.1973
     52  CA       -22.1330  -63.0520  -44.9210 C.3    60  HIS60       0.1656
     53  C        -23.2090  -62.3730  -44.0830 C.2    60  HIS60       0.2291
     54  O        -23.0840  -61.1940  -43.7240 O.2    60  HIS60      -0.2864
     55  CB       -20.7690  -62.5800  -44.4380 C.3    60  HIS60       0.0771
     56  CG       -19.6260  -63.3130  -45.0480 C.ar   60  HIS60       0.0820
     57  ND1      -19.3510  -64.6350  -44.7660 N.ar   60  HIS60      -0.2267
     58  CD2      -18.6650  -62.9030  -45.9040 C.ar   60  HIS60       0.1154
     59  CE1      -18.2810  -65.0120  -45.4320 C.ar   60  HIS60       0.1986
     60  NE2      -17.8500  -63.9810  -46.1330 N.ar   60  HIS60      -0.2212
     61  N        -24.2180  -67.5990  -49.1320 N.3    67  VAL67      -0.1231
     62  CA       -23.1540  -67.8790  -50.0840 C.3    67  VAL67       0.1692
     63  C        -21.9260  -68.2780  -49.2800 C.2    67  VAL67       0.2593
     64  O        -21.2660  -69.2630  -49.6030 O.2    67  VAL67      -0.2718
     65  CB       -22.8410  -66.6660  -50.9950 C.3    67  VAL67       0.0266
     66  CG1      -21.6960  -66.9840  -51.9440 C.3    67  VAL67       0.0020
     67  CG2      -24.0770  -66.2610  -51.7940 C.3    67  VAL67       0.0020
     68  N        -21.6460  -67.5090  -48.2300 N.am   68  GLY68      -0.1943
     69  CA       -20.5740  -67.8260  -47.2990 C.3    68  GLY68       0.1998
     70  C        -21.0870  -68.1320  -45.9050 C.2    68  GLY68       0.2480
     71  O        -22.2730  -67.9900  -45.6180 O.2    68  GLY68      -0.2729
     72  N        -20.1830  -68.5640  -45.0210 N.am   69  PRO69      -0.2726
     73  CA       -20.5610  -68.8550  -43.6440 C.3    69  PRO69       0.1402
     74  C        -21.0800  -67.6260  -42.8930 C.2    69  PRO69       0.2269
     75  O        -20.6940  -66.4810  -43.1820 O.2    69  PRO69      -0.2865
     76  CB       -19.2590  -69.3810  -43.0300 C.3    69  PRO69       0.0296
     77  CG       -18.1740  -68.8110  -43.8740 C.3    69  PRO69       0.0237
     78  CD       -18.7450  -68.7980  -45.2560 C.3    69  PRO69       0.0939
     79  N        -21.4380  -64.9290  -39.8640 N.3    71  LEU71      -0.1245
     80  CA       -20.4780  -64.2800  -38.9760 C.3    71  LEU71       0.1561
     81  C        -20.3770  -64.9860  -37.6150 C.2    71  LEU71       0.2260
     82  O        -19.3340  -64.9170  -36.9660 O.2    71  LEU71      -0.2867
     83  CB       -20.8130  -62.7980  -38.8010 C.3    71  LEU71       0.0270
     84  CG       -20.7010  -61.9770  -40.1000 C.3    71  LEU71       0.0019
     85  CD1      -21.3580  -60.6130  -39.9550 C.3    71  LEU71       0.0001
     86  CD2      -19.2490  -61.8150  -40.5280 C.3    71  LEU71       0.0001
     87  N        -17.8780  -67.7330  -38.4190 N.3    74  ILE74      -0.1245
     88  CA       -16.5380  -67.1440  -38.5770 C.3    74  ILE74       0.1561
     89  C        -15.9530  -66.8040  -37.2060 C.2    74  ILE74       0.2260
     90  O        -14.8000  -67.1600  -36.9080 O.2    74  ILE74      -0.2867
     91  CB       -16.5740  -65.9080  -39.5080 C.3    74  ILE74       0.0252
     92  CG1      -16.8740  -66.3460  -40.9450 C.3    74  ILE74       0.0019
     93  CG2      -15.2560  -65.1420  -39.4760 C.3    74  ILE74       0.0019
     94  CD1      -17.3210  -65.2210  -41.8580 C.3    74  ILE74       0.0001
     95  N        -14.7530  -69.8690  -35.3510 N.3    77  ALA77      -0.1231
     96  CA       -13.4770  -70.3520  -35.8860 C.3    77  ALA77       0.1694
     97  C        -12.2870  -69.5000  -35.4450 C.2    77  ALA77       0.2592
     98  O        -11.2040  -70.0300  -35.2160 O.2    77  ALA77      -0.2718
     99  CB       -13.5350  -70.4260  -37.4070 C.3    77  ALA77       0.0304
    100  N        -12.5010  -68.1890  -35.3170 N.am   78  TYR78      -0.1976
    101  CA       -11.4380  -67.2420  -34.9660 C.3    78  TYR78       0.1639
    102  C        -11.4410  -66.8110  -33.4900 C.2    78  TYR78       0.2290
    103  O        -10.6880  -65.9060  -33.1030 O.2    78  TYR78      -0.2864
    104  CB       -11.5190  -66.0270  -35.8930 C.3    78  TYR78       0.0560
    105  CG       -10.8980  -66.2700  -37.2440 C.ar   78  TYR78      -0.0198
    106  CD1       -9.5210  -66.1050  -37.4330 C.ar   78  TYR78      -0.0009
    107  CD2      -11.6700  -66.6730  -38.3290 C.ar   78  TYR78      -0.0009
    108  CE1       -8.9360  -66.3270  -38.6690 C.ar   78  TYR78       0.0417
    109  CE2      -11.0940  -66.9050  -39.5690 C.ar   78  TYR78       0.0417
    110  CZ        -9.7310  -66.7260  -39.7380 C.ar   78  TYR78       0.1957
    111  OH        -9.1620  -66.9390  -40.9630 O.3    78  TYR78      -0.2866
    112  N         -7.0150  -63.4870  -37.6040 N.3    85  LEU85      -0.1245
    113  CA        -8.1050  -62.9350  -38.4140 C.3    85  LEU85       0.1561
    114  C         -7.6670  -61.7010  -39.2000 C.2    85  LEU85       0.2260
    115  O         -7.9590  -61.5820  -40.3820 O.2    85  LEU85      -0.2867
    116  CB        -9.3380  -62.6000  -37.5640 C.3    85  LEU85       0.0270
    117  CG       -10.5510  -62.0290  -38.3090 C.3    85  LEU85       0.0019
    118  CD1      -10.9940  -62.9000  -39.4840 C.3    85  LEU85       0.0001
    119  CD2      -11.6950  -61.7900  -37.3410 C.3    85  LEU85       0.0001
    120  N         -5.5120  -62.8060  -41.9610 N.3    88  PHE88      -0.1227
    121  CA        -6.3510  -63.3240  -43.0490 C.3    88  PHE88       0.1736
    122  C         -6.9490  -62.1930  -43.8900 C.2    88  PHE88       0.2595
    123  O         -6.9050  -62.2390  -45.1140 O.2    88  PHE88      -0.2718
    124  CB        -7.4620  -64.2620  -42.5530 C.3    88  PHE88       0.0547
    125  CG        -8.4590  -64.6000  -43.6210 C.ar   88  PHE88      -0.0202
    126  CD1       -8.1870  -65.6010  -44.5570 C.ar   88  PHE88      -0.0042
    127  CD2       -9.6440  -63.8780  -43.7410 C.ar   88  PHE88      -0.0042
    128  CE1       -9.0780  -65.8860  -45.5710 C.ar   88  PHE88      -0.0003
    129  CE2      -10.5440  -64.1580  -44.7590 C.ar   88  PHE88      -0.0003
    130  CZ       -10.2640  -65.1710  -45.6730 C.ar   88  PHE88      -0.0000
    131  N         -7.4830  -61.1760  -43.2250 N.am   89  LEU89      -0.1980
    132  CA        -8.0900  -60.0360  -43.9120 C.3    89  LEU89       0.1596
    133  C         -7.0920  -59.2940  -44.8000 C.2    89  LEU89       0.2287
    134  O         -7.4580  -58.7890  -45.8590 O.2    89  LEU89      -0.2864
    135  CB        -8.7210  -59.0760  -42.8950 C.3    89  LEU89       0.0297
    136  CG        -9.9240  -59.6580  -42.1460 C.3    89  LEU89       0.0022
    137  CD1      -10.3240  -58.7640  -40.9880 C.3    89  LEU89       0.0001
    138  CD2      -11.1010  -59.9020  -43.0780 C.3    89  LEU89       0.0001
    139  N         -7.0170  -69.0530  -45.3450 N.3    95  ALA95      -0.1231
    140  CA        -8.2070  -69.4880  -44.6080 C.3    95  ALA95       0.1694
    141  C         -7.8940  -70.7180  -43.7550 C.2    95  ALA95       0.2591
    142  O         -7.0670  -71.5580  -44.1390 O.2    95  ALA95      -0.2718
    143  CB        -9.3350  -69.8020  -45.5740 C.3    95  ALA95       0.0304
    144  N         -8.5550  -70.8190  -42.6030 N.am   96  ILE96      -0.1980
    145  CA        -8.3510  -71.9470  -41.6920 C.3    96  ILE96       0.1595
    146  C         -8.6640  -73.2820  -42.3860 C.2    96  ILE96       0.2287
    147  O         -9.6100  -73.4280  -43.1460 O.2    96  ILE96      -0.2864
    148  CB        -9.1810  -71.7950  -40.3960 C.3    96  ILE96       0.0276
    149  CG1       -8.6450  -70.6220  -39.5680 C.3    96  ILE96       0.0022
    150  CG2       -9.1420  -73.0780  -39.5610 C.3    96  ILE96       0.0022
    151  CD1       -9.5840  -70.1530  -38.4710 C.3    96  ILE96       0.0001
@<TRIPOS>BOND
     1    66    65    1
     2    67    65    1
     3    44    43    1
     4    50    49    1
     5    43    40    1
     6    65    62    1
     7    23    22    2
     8    30    29    1
     9    30    31    1
    10    22    29   am
    11    22    21    1
    12    62    63    1
    13    62    61    1
    14    42    41    2
    15    32    31    2
    16    21    20    1
    17    21    24    1
    18    40    41    1
    19    40    39    1
    20    28    27    1
    21    64    63    2
    22    31    33   am
    23    41    45   am
    24    49    46    1
    25    26    27    1
    26    26    25    1
    27    63    68   am
    28    45    46    1
    29    24    25    1
    30    46    47    1
    31    33    34    1
    32    68    69    1
    33    34    35    1
    34    34    37    1
    35    69    70    1
    36    47    48    2
    37    47    51   am
    38    35    36    2
    39    38    37    1
    40    51    52    1
    41    60    58   ar
    42    60    59   ar
    43    12    11    2
    44     4     3    2
    45    70    71    2
    46    70    72   am
    47    58    56   ar
    48   134   133    2
    49   130   128   ar
    50   130   129   ar
    51   143   140    1
    52   128   126   ar
    53    59    57   ar
    54   139   140    1
    55    78    72    1
    56    78    77    1
    57    11    10    1
    58   123   122    2
    59    56    57   ar
    60    56    55    1
    61    72    73    1
    62    52    55    1
    63    52    53    1
    64     3     2    1
    65     3     9   am
    66   133   132    1
    67   129   127   ar
    68   140   141    1
    69   126   125   ar
    70     7     5    1
    71     2     5    1
    72     2     1    1
    73    10     9    1
    74    10    13    1
    75   142   141    2
    76    53    54    2
    77   132   131    1
    78   132   135    1
    79   122   131   am
    80   122   121    1
    81    77    76    1
    82     5     6    1
    83   141   144   am
    84   127   125   ar
    85     6     8    1
    86    73    76    1
    87    73    74    1
    88   125   124    1
    89    18    19   ar
    90    18    16   ar
    91    75    74    2
    92    19    17   ar
    93    16    14   ar
    94   147   146    2
    95   138   136    1
    96   121   124    1
    97   121   120    1
    98    17    15   ar
    99    14    15   ar
   100    14    13    1
   101   135   136    1
   102   144   145    1
   103   146   145    1
   104   136   137    1
   105    94    92    1
   106   145   148    1
   107   111   110    1
   108    92    91    1
   109    86    84    1
   110   148   149    1
   111   148   150    1
   112   115   114    2
   113    84    85    1
   114    84    83    1
   115    79    80    1
   116   110   109   ar
   117   110   108   ar
   118   109   107   ar
   119   149   151    1
   120    91    93    1
   121    91    88    1
   122   118   117    1
   123   114   113    1
   124    80    83    1
   125    80    81    1
   126   108   106   ar
   127    88    87    1
   128    88    89    1
   129   113   112    1
   130   113   116    1
   131   107   105   ar
   132   117   116    1
   133   117   119    1
   134    81    82    2
   135   106   105   ar
   136    99    96    1
   137   105   104    1
   138    89    90    2
   139   104   101    1
   140    96    97    1
   141    96    95    1
   142    97   100   am
   143    97    98    2
   144   100   101    1
   145   101   102    1
   146   102   103    2
