@<TRIPOS>MOLECULE
tmp/5z2cA00.pdb
 244 230 0 0 0
SMALL
GASTEIGER

@<TRIPOS>ATOM
      1  N        293.2050  -52.1040  542.9720 N.3    60  PHE60      -0.1227
      2  CA       294.5740  -51.6210  542.9160 C.3    60  PHE60       0.1736
      3  C        295.0630  -51.7170  541.4800 C.2    60  PHE60       0.2595
      4  O        294.6910  -52.6330  540.7450 O.2    60  PHE60      -0.2718
      5  CB       295.5120  -52.4320  543.8280 C.3    60  PHE60       0.0547
      6  CG       295.1150  -52.4200  545.2680 C.ar   60  PHE60      -0.0202
      7  CD1      295.6520  -51.4890  546.1400 C.ar   60  PHE60      -0.0042
      8  CD2      294.2030  -53.3400  545.7530 C.ar   60  PHE60      -0.0042
      9  CE1      295.2820  -51.4760  547.4650 C.ar   60  PHE60      -0.0003
     10  CE2      293.8300  -53.3310  547.0770 C.ar   60  PHE60      -0.0003
     11  CZ       294.3690  -52.3980  547.9350 C.ar   60  PHE60      -0.0000
     12  N        295.9270  -50.7860  541.0960 N.am   61  VAL61      -0.1980
     13  CA       296.5580  -50.8670  539.7860 C.3    61  VAL61       0.1595
     14  C        297.5290  -52.0350  539.8530 C.2    61  VAL61       0.2287
     15  O        298.4380  -52.0320  540.6900 O.2    61  VAL61      -0.2864
     16  CB       297.2810  -49.5680  539.4060 C.3    61  VAL61       0.0276
     17  CG1      297.7880  -49.6600  537.9820 C.3    61  VAL61       0.0022
     18  CG2      296.3840  -48.3800  539.5830 C.3    61  VAL61       0.0022
     19  N        303.6040  -58.6740  536.5540 N.3    65  TRP65      -0.1227
     20  CA       304.1510  -59.8890  537.1390 C.3    65  TRP65       0.1737
     21  C        303.4310  -60.3130  538.4090 C.2    65  TRP65       0.2595
     22  O        303.6880  -61.4070  538.9160 O.2    65  TRP65      -0.2718
     23  CB       305.6420  -59.6950  537.4510 C.3    65  TRP65       0.0564
     24  CG       305.9040  -58.4370  538.2160 C.ar   65  TRP65       0.0003
     25  CD1      306.2410  -57.2230  537.7020 C.ar   65  TRP65       0.0946
     26  CD2      305.8160  -58.2600  539.6330 C.ar   65  TRP65       0.0152
     27  NE1      306.3810  -56.3050  538.7070 N.ar   65  TRP65      -0.2442
     28  CE2      306.1220  -56.9160  539.9040 C.ar   65  TRP65       0.0810
     29  CE3      305.5150  -59.1110  540.6980 C.ar   65  TRP65       0.0012
     30  CZ2      306.1370  -56.4020  541.1960 C.ar   65  TRP65       0.0191
     31  CZ3      305.5280  -58.6000  541.9750 C.ar   65  TRP65       0.0001
     32  CH2      305.8380  -57.2600  542.2150 C.ar   65  TRP65       0.0015
     33  N        302.5290  -59.4800  538.9200 N.am   66  GLN66      -0.1965
     34  CA       301.9960  -59.6690  540.2620 C.3    66  GLN66       0.1733
     35  C        301.0780  -60.8810  540.3650 C.2    66  GLN66       0.2616
     36  O        301.0460  -61.5460  541.4040 O.2    66  GLN66      -0.2715
     37  CB       301.2630  -58.4000  540.6770 C.3    66  GLN66       0.0408
     38  CG       300.5970  -58.4420  542.0150 C.3    66  GLN66       0.0908
     39  CD       300.0220  -57.1000  542.3690 C.2    66  GLN66       0.2608
     40  OE1      299.8010  -56.2650  541.4950 O.2    66  GLN66      -0.2717
     41  NE2      299.7950  -56.8710  543.6540 N.am   66  GLN66      -0.0878
     42  N        300.3230  -61.1890  539.3180 N.am   67  TYR67      -0.1974
     43  CA       299.3360  -62.2510  539.4100 C.3    67  TYR67       0.1639
     44  C        299.5720  -63.4110  538.4610 C.2    67  TYR67       0.2290
     45  O        298.8670  -64.4180  538.5680 O.2    67  TYR67      -0.2864
     46  CB       297.9290  -61.6840  539.1870 C.3    67  TYR67       0.0560
     47  CG       297.5680  -60.6700  540.2350 C.ar   67  TYR67      -0.0198
     48  CD1      297.2410  -61.0660  541.5250 C.ar   67  TYR67      -0.0009
     49  CD2      297.5810  -59.3170  539.9480 C.ar   67  TYR67      -0.0009
     50  CE1      296.9260  -60.1400  542.4960 C.ar   67  TYR67       0.0417
     51  CE2      297.2650  -58.3870  540.9050 C.ar   67  TYR67       0.0417
     52  CZ       296.9400  -58.8020  542.1810 C.ar   67  TYR67       0.1957
     53  OH       296.6260  -57.8680  543.1390 O.3    67  TYR67      -0.2866
     54  N        300.4270  -44.4570  543.3750 N.3   115  ARG115     -0.1245
     55  CA       301.5900  -45.1720  543.9010 C.3   115  ARG115      0.1563
     56  C        302.8780  -44.3790  543.6990 C.2   115  ARG115      0.2260
     57  O        303.6700  -44.1930  544.6360 O.2   115  ARG115     -0.2867
     58  CB       301.6880  -46.5310  543.2120 C.3   115  ARG115      0.0307
     59  CG       302.7670  -47.4440  543.7180 C.3   115  ARG115      0.0489
     60  CD       302.5890  -48.8140  543.1080 C.3   115  ARG115      0.2205
     61  NE       301.2400  -49.3120  543.3360 N.pl3 115  ARG115     -0.0865
     62  CZ       300.6170  -50.1840  542.5530 C.cat 115  ARG115      0.5346
     63  NH1      301.2220  -50.6640  541.4780 N.pl3 115  ARG115      0.1354
     64  NH2      299.3840  -50.5710  542.8470 N.pl3 115  ARG115      0.1354
     65  N        302.9990  -41.5330  546.0430 N.3   118  TYR118     -0.1241
     66  CA       303.3690  -41.9540  547.3880 C.3   118  TYR118      0.1605
     67  C        304.8750  -42.1110  547.5080 C.2   118  TYR118      0.2264
     68  O        305.4640  -41.7650  548.5390 O.2   118  TYR118     -0.2867
     69  CB       302.6690  -43.2570  547.7470 C.3   118  TYR118      0.0534
     70  CG       302.8700  -43.7180  549.1760 C.ar  118  TYR118     -0.0201
     71  CD1      302.3970  -42.9680  550.2470 C.ar  118  TYR118     -0.0009
     72  CD2      303.4730  -44.9330  549.4520 C.ar  118  TYR118     -0.0009
     73  CE1      302.5520  -43.4060  551.5480 C.ar  118  TYR118      0.0417
     74  CE2      303.6270  -45.3760  550.7440 C.ar  118  TYR118      0.0417
     75  CZ       303.1670  -44.6100  551.7860 C.ar  118  TYR118      0.1957
     76  OH       303.3240  -45.0560  553.0730 O.3   118  TYR118     -0.2866
     77  N        292.4490  -48.2510  546.7310 N.3   145  GLN145     -0.1245
     78  CA       293.8670  -47.9650  546.9070 C.3   145  GLN145      0.1566
     79  C        294.1050  -46.5460  547.4070 C.2   145  GLN145      0.2260
     80  O        295.0310  -46.3120  548.1890 O.2   145  GLN145     -0.2867
     81  CB       294.5940  -48.2010  545.5860 C.3   145  GLN145      0.0367
     82  CG       296.0670  -47.8800  545.6090 C.3   145  GLN145      0.0905
     83  CD       296.7000  -48.0020  544.2430 C.2   145  GLN145      0.2608
     84  OE1      296.5740  -49.0260  543.5790 O.2   145  GLN145     -0.2717
     85  NE2      297.3360  -46.9340  543.7930 N.am  145  GLN145     -0.0878
     86  N        292.9140  -46.3260  551.1520 N.3   148  ILE148     -0.1231
     87  CA       293.9870  -46.9460  551.9070 C.3   148  ILE148      0.1692
     88  C        295.2160  -46.0520  551.9360 C.2   148  ILE148      0.2591
     89  O        295.9360  -46.0240  552.9340 O.2   148  ILE148     -0.2718
     90  CB       294.2920  -48.3330  551.3170 C.3   148  ILE148      0.0266
     91  CG1      293.0780  -49.2400  551.4730 C.3   148  ILE148      0.0019
     92  CG2      295.4990  -48.9490  551.9650 C.3   148  ILE148      0.0020
     93  CD1      293.2620  -50.6070  550.8730 C.3   148  ILE148      0.0001
     94  N        295.4540  -45.2740  550.8790 N.am  149  ARG149     -0.1980
     95  CA       296.5760  -44.3400  550.9160 C.3   149  ARG149      0.1597
     96  C        296.3990  -43.3300  552.0380 C.2   149  ARG149      0.2287
     97  O        297.3550  -43.0130  552.7600 O.2   149  ARG149     -0.2864
     98  CB       296.7260  -43.6270  549.5740 C.3   149  ARG149      0.0334
     99  CG       298.0220  -42.8500  549.4240 C.3   149  ARG149      0.0492
    100  CD       299.1900  -43.7900  549.2110 C.3   149  ARG149      0.2205
    101  NE       299.0460  -44.5200  547.9560 N.pl3 149  ARG149     -0.0865
    102  CZ       299.7510  -45.5960  547.6290 C.cat 149  ARG149      0.5346
    103  NH1      300.6590  -46.0820  548.4640 N.pl3 149  ARG149      0.1354
    104  NH2      299.5420  -46.1930  546.4660 N.pl3 149  ARG149      0.1354
    105  N        297.4590  -44.9290  555.0630 N.3   152  ARG152     -0.1245
    106  CA       298.9080  -45.0430  555.1480 C.3   152  ARG152      0.1563
    107  C        299.5360  -43.7690  555.6910 C.2   152  ARG152      0.2260
    108  O        300.3770  -43.8190  556.5960 O.2   152  ARG152     -0.2867
    109  CB       299.4980  -45.3850  553.7810 C.3   152  ARG152      0.0307
    110  CG       299.1120  -46.7450  553.2450 C.3   152  ARG152      0.0489
    111  CD       299.9450  -47.0730  552.0250 C.3   152  ARG152      0.2205
    112  NE       299.4390  -48.2230  551.2900 N.pl3 152  ARG152     -0.0865
    113  CZ       299.7940  -49.4780  551.5270 C.cat 152  ARG152      0.5346
    114  NH1      300.6540  -49.7560  552.4910 N.pl3 152  ARG152      0.1354
    115  NH2      299.2860  -50.4560  550.8020 N.pl3 152  ARG152      0.1354
    116  N        290.9600  -59.0250  548.6150 N.3   190  LEU190     -0.1245
    117  CA       292.2620  -58.4050  548.3930 C.3   190  LEU190      0.1561
    118  C        292.3960  -57.1190  549.1960 C.2   190  LEU190      0.2260
    119  O        293.3830  -56.9220  549.9180 O.2   190  LEU190     -0.2867
    120  CB       292.4570  -58.1380  546.9010 C.3   190  LEU190      0.0270
    121  CG       293.6760  -57.3290  546.4580 C.3   190  LEU190      0.0019
    122  CD1      294.9640  -58.0080  546.8810 C.3   190  LEU190      0.0001
    123  CD2      293.6500  -57.1260  544.9550 C.3   190  LEU190      0.0001
    124  N        295.1870  -56.2430  552.2170 N.3   194  VAL194     -0.1245
    125  CA       296.0700  -55.0900  552.3840 C.3   194  VAL194      0.1561
    126  C        295.7700  -54.3690  553.6900 C.2   194  VAL194      0.2260
    127  O        296.6880  -53.9510  554.4100 O.2   194  VAL194     -0.2867
    128  CB       295.9730  -54.1390  551.1800 C.3   194  VAL194      0.0252
    129  CG1      297.2820  -53.4400  550.9800 C.3   194  VAL194      0.0019
    130  CG2      295.6740  -54.9270  549.9400 C.3   194  VAL194      0.0019
    131  N        297.2430  -56.3170  556.5410 N.3   197  GLN197     -0.1245
    132  CA       298.6790  -56.0710  556.5570 C.3   197  GLN197      0.1566
    133  C        298.9980  -54.7440  557.2310 C.2   197  GLN197      0.2260
    134  O        299.9160  -54.6590  558.0570 O.2   197  GLN197     -0.2867
    135  CB       299.2210  -56.1020  555.1310 C.3   197  GLN197      0.0367
    136  CG       300.6760  -55.7400  555.0020 C.3   197  GLN197      0.0905
    137  CD       301.0870  -55.5160  553.5700 C.2   197  GLN197      0.2608
    138  OE1      301.0920  -54.3860  553.0860 O.2   197  GLN197     -0.2717
    139  NE2      301.4390  -56.5920  552.8800 N.am  197  GLN197     -0.0878
    140  N        301.2300  -53.5870  560.4990 N.3   201  GLN201     -0.1245
    141  CA       302.2060  -52.5130  560.6300 C.3   201  GLN201      0.1566
    142  C        301.8840  -51.5870  561.7980 C.2   201  GLN201      0.2260
    143  O        302.8000  -51.0720  562.4480 O.2   201  GLN201     -0.2867
    144  CB       302.2860  -51.7240  559.3300 C.3   201  GLN201      0.0367
    145  CG       302.8020  -52.5280  558.1530 C.3   201  GLN201      0.0905
    146  CD       302.8970  -51.6980  556.8890 C.2   201  GLN201      0.2608
    147  OE1      301.8920  -51.4150  556.2400 O.2   201  GLN201     -0.2717
    148  NE2      304.1030  -51.2920  556.5420 N.am  201  GLN201     -0.0878
    149  N        296.2690  -63.1850  550.9030 N.3   223  TYR223     -0.1241
    150  CA       296.8910  -63.0970  549.5880 C.3   223  TYR223      0.1605
    151  C        296.8420  -64.4430  548.8860 C.2   223  TYR223      0.2264
    152  O        296.6640  -64.5100  547.6660 O.2   223  TYR223     -0.2867
    153  CB       298.3340  -62.6050  549.7070 C.3   223  TYR223      0.0534
    154  CG       298.4440  -61.1480  550.0750 C.ar  223  TYR223     -0.0201
    155  CD1      297.6260  -60.1960  549.4850 C.ar  223  TYR223     -0.0009
    156  CD2      299.3500  -60.7260  551.0330 C.ar  223  TYR223     -0.0009
    157  CE1      297.7200  -58.8600  549.8340 C.ar  223  TYR223      0.0417
    158  CE2      299.4490  -59.4010  551.3900 C.ar  223  TYR223      0.0417
    159  CZ       298.6360  -58.4710  550.7920 C.ar  223  TYR223      0.1957
    160  OH       298.7460  -57.1510  551.1570 O.3   223  TYR223     -0.2866
    161  N        298.4380  -62.8820  545.2850 N.3   230  ASP230     -0.1239
    162  CA       299.1370  -61.6030  545.1740 C.3   230  ASP230      0.1674
    163  C        300.5960  -61.8010  545.5700 C.2   230  ASP230      0.2266
    164  O        300.9340  -61.8020  546.7520 O.2   230  ASP230     -0.2867
    165  CB       298.4650  -60.5590  546.0570 C.3   230  ASP230      0.1410
    166  CG       298.9990  -59.1640  545.8270 C.2   230  ASP230      0.3668
    167  OD1      300.1050  -59.0180  545.2760 O.co2 230  ASP230     -0.2456
    168  OD2      298.3120  -58.2050  546.2140 O.co2 230  ASP230     -0.2456
    169  N        303.0580  -59.7180  545.0250 N.3   232  LYS232     -0.1231
    170  CA       303.5770  -58.4720  545.5780 C.3   232  LYS232      0.1693
    171  C        303.2440  -58.3520  547.0600 C.2   232  LYS232      0.2592
    172  O        304.1230  -58.0730  547.8870 O.2   232  LYS232     -0.2718
    173  CB       303.0300  -57.2860  544.7840 C.3   232  LYS232      0.0285
    174  CG       303.4170  -55.9120  545.3100 C.3   232  LYS232      0.0035
    175  CD       303.1440  -54.8610  544.2420 C.3   232  LYS232      0.0206
    176  CE       303.4300  -53.4380  544.6990 C.3   232  LYS232      0.1093
    177  NZ       302.2590  -52.7540  545.2880 N.3   232  LYS232     -0.1314
    178  N        301.9780  -58.5690  547.4160 N.am  233  GLY233     -0.1957
    179  CA       301.5980  -58.5240  548.8150 C.3   233  GLY233      0.1869
    180  C        302.3140  -59.5640  549.6560 C.2   233  GLY233      0.2309
    181  O        302.7150  -59.2890  550.7860 O.2   233  GLY233     -0.2863
    182  N        305.3120  -60.7400  549.1040 N.3   235  SER235     -0.1202
    183  CA       306.6560  -60.2180  549.3070 C.3   235  SER235      0.2020
    184  C        306.6680  -59.1690  550.4150 C.2   235  SER235      0.2619
    185  O        307.4930  -59.2250  551.3380 O.2   235  SER235     -0.2717
    186  CB       307.1780  -59.6420  547.9910 C.3   235  SER235      0.2103
    187  OG       308.4680  -59.0890  548.1360 O.3   235  SER235     -0.2182
    188  N        305.7280  -58.2240  550.3550 N.am  236  THR236     -0.1952
    189  CA       305.6570  -57.1710  551.3620 C.3   236  THR236      0.1897
    190  C        305.4810  -57.7500  552.7590 C.2   236  THR236      0.2313
    191  O        306.2310  -57.4180  553.6850 O.2   236  THR236     -0.2863
    192  CB       304.5040  -56.2280  551.0270 C.3   236  THR236      0.1794
    193  OG1      304.6640  -55.7380  549.6940 O.3   236  THR236     -0.2208
    194  CG2      304.4590  -55.0620  551.9970 C.3   236  THR236      0.0378
    195  N        308.5290  -59.4220  554.1490 N.3   239  GLY239     -0.1225
    196  CA       309.4870  -58.4630  554.6770 C.3   239  GLY239      0.1811
    197  C        309.0820  -57.9150  556.0340 C.2   239  GLY239      0.2280
    198  O        309.8900  -57.8610  556.9690 O.2   239  GLY239     -0.2866
    199  N        310.8430  -63.3100  550.2840 N.3   284  ALA284     -0.1245
    200  CA       310.3480  -62.0050  549.8590 C.3   284  ALA284      0.1562
    201  C        311.0920  -61.4970  548.6300 C.2   284  ALA284      0.2260
    202  O        310.4820  -60.9300  547.7190 O.2   284  ALA284     -0.2867
    203  CB       310.4650  -61.0020  551.0050 C.3   284  ALA284      0.0290
    204  N        309.5310  -60.9780  544.4590 N.3   288  SER288     -0.1217
    205  CA       309.6000  -59.7210  543.7230 C.3   288  SER288      0.1889
    206  C        310.8770  -59.6500  542.8980 C.2   288  SER288      0.2288
    207  O        311.5410  -58.6160  542.8350 O.2   288  SER288     -0.2866
    208  CB       309.5040  -58.5210  544.6590 C.3   288  SER288      0.2089
    209  OG       310.6280  -58.4600  545.5110 O.3   288  SER288     -0.2183
    210  N        314.3460  -52.8490  543.7400 N.3   293  LEU293     -0.1231
    211  CA       314.3710  -52.1530  545.0220 C.3   293  LEU293      0.1693
    212  C        313.9850  -53.0860  546.1590 C.2   293  LEU293      0.2592
    213  O        314.6850  -53.1770  547.1740 O.2   293  LEU293     -0.2718
    214  CB       313.4330  -50.9490  544.9840 C.3   293  LEU293      0.0284
    215  CG       313.1840  -50.2710  546.3340 C.3   293  LEU293      0.0019
    216  CD1      314.4700  -49.7120  546.9260 C.3   293  LEU293      0.0001
    217  CD2      312.1220  -49.1930  546.2160 C.3   293  LEU293      0.0001
    218  N        312.8700  -53.7920  546.0040 N.am  294  PHE294     -0.1976
    219  CA       312.4000  -54.6520  547.0780 C.3   294  PHE294      0.1639
    220  C        313.2990  -55.8630  547.2470 C.2   294  PHE294      0.2290
    221  O        313.4720  -56.3600  548.3680 O.2   294  PHE294     -0.2864
    222  CB       310.9630  -55.0680  546.7980 C.3   294  PHE294      0.0560
    223  CG       310.0540  -53.9080  546.5220 C.ar  294  PHE294     -0.0200
    224  CD1      310.1960  -52.7240  547.2240 C.ar  294  PHE294     -0.0042
    225  CD2      309.0740  -53.9930  545.5480 C.ar  294  PHE294     -0.0042
    226  CE1      309.3750  -51.6500  546.9700 C.ar  294  PHE294     -0.0003
    227  CE2      308.2410  -52.9200  545.2910 C.ar  294  PHE294     -0.0003
    228  CZ       308.3950  -51.7460  546.0020 C.ar  294  PHE294     -0.0000
    229  N        316.1100  -54.3560  549.4410 N.3   297  THR297     -0.1218
    230  CA       315.7420  -54.2070  550.8460 C.3   297  THR297      0.1862
    231  C        315.6720  -55.5640  551.5350 C.2   297  THR297      0.2287
    232  O        316.1630  -55.7370  552.6610 O.2   297  THR297     -0.2866
    233  CB       314.4020  -53.4830  550.9600 C.3   297  THR297      0.1770
    234  OG1      313.6220  -53.7570  549.7950 O.3   297  THR297     -0.2211
    235  CG2      314.6240  -51.9910  551.0340 C.3   297  THR297      0.0375
    236  N        315.5310  -43.6900  549.6370 N.3   348  GLN348     -0.1245
    237  CA       315.4540  -45.0430  550.1760 C.3   348  GLN348      0.1566
    238  C        316.3420  -46.0010  549.3950 C.2   348  GLN348      0.2260
    239  O        317.0650  -46.8100  549.9850 O.2   348  GLN348     -0.2867
    240  CB       314.0080  -45.5320  550.1650 C.3   348  GLN348      0.0367
    241  CG       313.8140  -46.9150  550.7700 C.3   348  GLN348      0.0905
    242  CD       312.4150  -47.4650  550.5380 C.2   348  GLN348      0.2608
    243  OE1      311.5730  -46.8110  549.9240 O.2   348  GLN348     -0.2717
    244  NE2      312.1650  -48.6760  551.0240 N.am  348  GLN348     -0.0878
@<TRIPOS>BOND
     1    19    20    1
     2    20    23    1
     3    20    21    1
     4    23    24    1
     5    25    24   ar
     6    25    27   ar
     7    17    16    1
     8    24    26   ar
     9    21    22    2
    10    21    33   am
    11    44    45    2
    12    44    43    1
    13    27    28   ar
    14    33    34    1
    15    46    43    1
    16    46    47    1
    17    42    43    1
    18    42    35   am
    19    16    18    1
    20    16    13    1
    21    26    28   ar
    22    26    29   ar
    23    13    14    1
    24    13    12    1
    25    14    15    2
    26    28    30   ar
    27    49    47   ar
    28    49    51   ar
    29    47    48   ar
    30    34    35    1
    31    34    37    1
    32    35    36    2
    33    37    38    1
    34    29    31   ar
    35     4     3    2
    36    51    52   ar
    37    12     3   am
    38    30    32   ar
    39    63    62    1
    40     3     2    1
    41    40    39    2
    42    48    50   ar
    43    31    32   ar
    44    38    39    1
    45    52    50   ar
    46    52    53    1
    47    39    41   am
    48    62    64    1
    49    62    61    2
    50   207   206    2
    51   206   205    1
    52     2     1    1
    53     2     5    1
    54    60    61    1
    55    60    59    1
    56    58    59    1
    57    58    55    1
    58    54    55    1
    59    84    83    2
    60    56    55    1
    61    56    57    2
    62   205   204    1
    63   205   208    1
    64   210   211    1
    65    85    83   am
    66     5     6    1
    67   175   176    1
    68   175   174    1
    69    83    82    1
    70   208   209    1
    71   176   177    1
    72   173   174    1
    73   173   170    1
    74   123   121    1
    75   214   211    1
    76   214   215    1
    77   211   212    1
    78   169   170    1
    79   162   161    1
    80   162   163    1
    81   162   165    1
    82     6     8   ar
    83     6     7   ar
    84   167   166   ar
    85   227   225   ar
    86   227   228   ar
    87   225   223   ar
    88   163   164    2
    89   170   171    1
    90    81    82    1
    91    81    78    1
    92     8    10   ar
    93   166   165    1
    94   166   168   ar
    95   228   226   ar
    96   218   212   am
    97   218   219    1
    98    65    66    1
    99     7     9   ar
   100   212   213    2
   101   217   215    1
   102   215   216    1
   103   121   122    1
   104   121   120    1
   105   104   102    1
   106   223   222    1
   107   223   224   ar
   108    77    78    1
   109   222   219    1
   110   120   117    1
   111    78    79    1
   112   226   224   ar
   113   171   178   am
   114   171   172    2
   115    10    11   ar
   116   219   220    1
   117   220   221    2
   118    66    67    1
   119    66    69    1
   120    79    80    2
   121   178   179    1
   122     9    11   ar
   123    67    68    2
   124   102   101    2
   125   102   103    1
   126   152   151    2
   127   202   201    2
   128    69    70    1
   129   101   100    1
   130   186   187    1
   131   186   183    1
   132   117   116    1
   133   117   118    1
   134   201   200    1
   135   179   180    1
   136   151   150    1
   137   182   183    1
   138    70    72   ar
   139    70    71   ar
   140   118   119    2
   141   100    99    1
   142   183   184    1
   143   238   239    2
   144   238   237    1
   145    99    98    1
   146   229   230    1
   147    72    74   ar
   148   155   157   ar
   149   155   154   ar
   150    98    95    1
   151   150   153    1
   152   150   149    1
   153   236   237    1
   154   180   181    2
   155   193   192    1
   156   153   154    1
   157   234   233    1
   158   157   159   ar
   159   200   199    1
   160   200   203    1
   161   243   242    2
   162   130   128    1
   163   154   156   ar
   164   240   237    1
   165   240   241    1
   166    71    73   ar
   167   188   184   am
   168   188   189    1
   169   184   185    2
   170   242   241    1
   171   242   244   am
   172    74    75   ar
   173   159   160    1
   174   159   158   ar
   175   115   113    1
   176   230   233    1
   177   230   231    1
   178    93    91    1
   179    94    95    1
   180    94    88   am
   181    95    96    1
   182   233   235    1
   183   129   128    1
   184   192   189    1
   185   192   194    1
   186   156   158   ar
   187    86    87    1
   188   128   125    1
   189   112   113    2
   190   112   111    1
   191    90    91    1
   192    90    87    1
   193    90    92    1
   194   189   190    1
   195   113   114    1
   196   231   232    2
   197    73    75   ar
   198    75    76    1
   199    87    88    1
   200    88    89    2
   201   111   110    1
   202    96    97    2
   203   124   125    1
   204   125   126    1
   205   190   191    2
   206   139   137   am
   207   138   137    2
   208   110   109    1
   209   137   136    1
   210   126   127    2
   211   109   106    1
   212   195   196    1
   213   196   197    1
   214   136   135    1
   215   105   106    1
   216   135   132    1
   217   106   107    1
   218   107   108    2
   219   197   198    2
   220   147   146    2
   221   131   132    1
   222   148   146   am
   223   132   133    1
   224   146   145    1
   225   133   134    2
   226   145   144    1
   227   144   141    1
   228   140   141    1
   229   141   142    1
   230   142   143    2
