@<TRIPOS>MOLECULE
tmp/5z2fA00.pdb
 229 224 0 0 0
SMALL
GASTEIGER

@<TRIPOS>ATOM
      1  N        -18.6470    4.3050  -29.1880 N.3     9  GLY9       -0.1225
      2  CA       -17.4330    4.9910  -28.7910 C.3     9  GLY9        0.1811
      3  C        -16.1470    4.3070  -29.2120 C.2     9  GLY9        0.2280
      4  O        -15.2290    4.2460  -28.4260 O.2     9  GLY9       -0.2866
      5  N        -13.4740    4.9810  -30.9870 N.3    11  ARG11      -0.1231
      6  CA       -12.2060    5.6920  -30.9180 C.3    11  ARG11       0.1694
      7  C        -11.7660    5.9570  -29.4850 C.2    11  ARG11       0.2593
      8  O        -10.6690    6.3970  -29.2980 O.2    11  ARG11      -0.2718
      9  CB       -12.2570    7.0380  -31.6930 C.3    11  ARG11       0.0321
     10  CG       -12.6790    6.9330  -33.1660 C.3    11  ARG11       0.0489
     11  CD       -12.8120    8.2960  -33.8450 C.3    11  ARG11       0.2205
     12  NE       -13.9120    9.0650  -33.2590 N.pl3  11  ARG11      -0.0865
     13  CZ       -13.7780   10.1010  -32.4320 C.cat  11  ARG11       0.5346
     14  NH1      -12.5760   10.5750  -32.0980 N.pl3  11  ARG11       0.1354
     15  NH2      -14.8610   10.6780  -31.9290 N.pl3  11  ARG11       0.1354
     16  N        -12.6020    5.6980  -28.4860 N.am   12  GLY12      -0.1942
     17  CA       -12.2700    5.9850  -27.0960 C.3    12  GLY12       0.2014
     18  C        -11.1970    5.0730  -26.5550 C.2    12  GLY12       0.2639
     19  O        -10.7640    4.1080  -27.2160 O.2    12  GLY12      -0.2714
     20  N        -10.7400    5.3850  -25.3530 N.am   13  LYS13      -0.1963
     21  CA        -9.6230    4.6210  -24.7680 C.3    13  LYS13       0.1728
     22  C        -10.0650    3.1610  -24.5730 C.2    13  LYS13       0.2616
     23  O         -9.3710    2.2520  -25.0050 O.2    13  LYS13      -0.2715
     24  CB        -9.1070    5.2790  -23.4780 C.3    13  LYS13       0.0311
     25  CG        -8.5010    6.6520  -23.7700 C.3    13  LYS13       0.0038
     26  CD        -7.8570    7.3150  -22.5460 C.3    13  LYS13       0.0206
     27  CE        -8.8540    7.7370  -21.4680 C.3    13  LYS13       0.1093
     28  NZ        -9.8500    8.7270  -21.9900 N.3    13  LYS13      -0.1314
     29  N        -11.2560    2.9380  -24.0300 N.am   14  MET14      -0.1963
     30  CA       -11.8030    1.5820  -23.9700 C.3    14  MET14       0.1736
     31  C        -12.2610    1.1330  -25.3910 C.2    14  MET14       0.2617
     32  O        -11.9710    0.0110  -25.8710 O.2    14  MET14      -0.2715
     33  CB       -12.9530    1.5520  -22.9970 C.3    14  MET14       0.0427
     34  CG       -12.5280    1.6660  -21.5470 C.3    14  MET14       0.0599
     35  SD       -11.6760    0.1860  -20.9560 S.3    14  MET14      -0.1393
     36  CE       -12.9890   -0.9850  -20.9700 C.3    14  MET14       0.0692
     37  N        -12.9440    2.0190  -26.0830 N.am   15  GLY15      -0.1955
     38  CA       -13.5300    1.6370  -27.3650 C.3    15  GLY15       0.1869
     39  C        -12.5950    0.8860  -28.2820 C.2    15  GLY15       0.2309
     40  O        -12.9060   -0.1980  -28.7720 O.2    15  GLY15      -0.2863
     41  N        -20.9790    3.0350  -33.4270 N.3    34  LEU34      -0.1231
     42  CA       -21.6520    4.3010  -33.2230 C.3    34  LEU34       0.1693
     43  C        -20.6560    5.3240  -32.7330 C.2    34  LEU34       0.2592
     44  O        -20.0060    5.1080  -31.6960 O.2    34  LEU34      -0.2718
     45  CB       -22.7300    4.1540  -32.1240 C.3    34  LEU34       0.0284
     46  CG       -23.5550    5.4080  -31.8500 C.3    34  LEU34       0.0019
     47  CD1      -24.5660    5.5940  -32.9880 C.3    34  LEU34       0.0001
     48  CD2      -24.2280    5.3600  -30.4610 C.3    34  LEU34       0.0001
     49  N        -20.5740    6.4390  -33.4490 N.am   35  ASP35      -0.1960
     50  CA       -19.8230    7.5930  -33.0290 C.3    35  ASP35       0.1840
     51  C        -20.7550    8.7740  -32.9320 C.2    35  ASP35       0.2622
     52  O        -21.9570    8.6380  -33.1220 O.2    35  ASP35      -0.2715
     53  CB       -18.6630    7.8980  -33.9890 C.3    35  ASP35       0.1450
     54  CG       -17.4000    8.3950  -33.2420 C.2    35  ASP35       0.3671
     55  OD1      -17.5070    9.4080  -32.5170 O.co2  35  ASP35      -0.2456
     56  OD2      -16.3350    7.7470  -33.3340 O.co2  35  ASP35      -0.2456
     57  N        -20.2010    9.9180  -32.5700 N.am   36  HIS36      -0.1959
     58  CA       -20.9050   11.2060  -32.6900 C.3    36  HIS36       0.1787
     59  C        -20.0950   12.2940  -33.3890 C.2    36  HIS36       0.2620
     60  O        -20.4450   13.4550  -33.2960 O.2    36  HIS36      -0.2715
     61  CB       -21.4300   11.6910  -31.3250 C.3    36  HIS36       0.0785
     62  CG       -20.3820   12.2000  -30.3950 C.ar   36  HIS36       0.0821
     63  ND1      -20.6760   13.1000  -29.4010 N.ar   36  HIS36      -0.2267
     64  CD2      -19.0620   11.9290  -30.2830 C.ar   36  HIS36       0.1154
     65  CE1      -19.5820   13.3610  -28.7080 C.ar   36  HIS36       0.1986
     66  NE2      -18.5840   12.6720  -29.2300 N.ar   36  HIS36      -0.2212
     67  N        -19.0340   11.8980  -34.0860 N.am   37  LYS37      -0.1977
     68  CA       -18.2170   12.7540  -34.9440 C.3    37  LYS37       0.1596
     69  C        -18.2850   12.0450  -36.3010 C.2    37  LYS37       0.2287
     70  O        -18.1940   10.7970  -36.3660 O.2    37  LYS37      -0.2864
     71  CB       -16.7690   12.6800  -34.4450 C.3    37  LYS37       0.0298
     72  CG       -15.9680   13.9620  -34.4970 C.3    37  LYS37       0.0038
     73  CD       -15.3960   14.2670  -33.1180 C.3    37  LYS37       0.0206
     74  CE       -16.4980   14.8470  -32.2160 C.3    37  LYS37       0.1093
     75  NZ       -16.1650   14.8830  -30.7650 N.3    37  LYS37      -0.1314
     76  N        -19.3380    2.0390  -24.7110 N.3    76  LEU76      -0.1231
     77  CA       -18.2030    2.6460  -24.0510 C.3    76  LEU76       0.1693
     78  C        -18.0970    4.1500  -24.4190 C.2    76  LEU76       0.2593
     79  O        -17.0840    4.6050  -24.9410 O.2    76  LEU76      -0.2718
     80  CB       -16.9610    1.8670  -24.4440 C.3    76  LEU76       0.0284
     81  CG       -16.9330    0.4150  -23.9510 C.3    76  LEU76       0.0019
     82  CD1      -15.8470   -0.3680  -24.6810 C.3    76  LEU76       0.0001
     83  CD2      -16.7810    0.2970  -22.4360 C.3    76  LEU76       0.0001
     84  N        -19.1650    4.9030  -24.1490 N.am   77  THR77      -0.1939
     85  CA       -19.2670    6.2980  -24.5440 C.3    77  THR77       0.2028
     86  C        -19.0750    7.1410  -23.2880 C.2    77  THR77       0.2643
     87  O        -17.9990    7.0600  -22.7170 O.2    77  THR77      -0.2714
     88  CB       -20.5600    6.5990  -25.2920 C.3    77  THR77       0.1808
     89  OG1      -21.6910    6.3480  -24.4290 O.3    77  THR77      -0.2208
     90  CG2      -20.6430    5.7480  -26.5620 C.3    77  THR77       0.0379
     91  N        -20.1080    7.8390  -22.8050 N.am   78  THR78      -0.1937
     92  CA       -19.9650    8.8770  -21.7760 C.3    78  THR78       0.2013
     93  C        -21.1830    8.8070  -20.9130 C.2    78  THR78       0.2484
     94  O        -22.1920    8.3120  -21.3910 O.2    78  THR78      -0.2729
     95  CB       -19.9530   10.2440  -22.4500 C.3    78  THR78       0.1807
     96  OG1      -18.9500   10.2360  -23.4610 O.3    78  THR78      -0.2208
     97  CG2      -19.6110   11.2730  -21.5160 C.3    78  THR78       0.0379
     98  N        -21.1190    9.2870  -19.6490 N.am   79  PRO79      -0.2726
     99  CA       -22.3420    9.2560  -18.7910 C.3    79  PRO79       0.1402
    100  C        -23.5700   10.0030  -19.3490 C.2    79  PRO79       0.2269
    101  O        -24.7210    9.6110  -19.0960 O.2    79  PRO79      -0.2865
    102  CB       -21.8910    9.9520  -17.5120 C.3    79  PRO79       0.0296
    103  CG       -20.4380    9.6350  -17.4250 C.3    79  PRO79       0.0237
    104  CD       -19.9170    9.5690  -18.8500 C.3    79  PRO79       0.0939
    105  N        -24.8760   10.1220  -22.2520 N.3    81  GLN81      -0.1245
    106  CA       -25.7310    9.3370  -23.1570 C.3    81  GLN81       0.1566
    107  C        -26.0590    7.9240  -22.6960 C.2    81  GLN81       0.2260
    108  O        -26.7620    7.2040  -23.4030 O.2    81  GLN81      -0.2867
    109  CB       -25.0220    9.2090  -24.5160 C.3    81  GLN81       0.0367
    110  CG       -24.6990   10.5380  -25.1430 C.3    81  GLN81       0.0905
    111  CD       -25.9520   11.2570  -25.5650 C.2    81  GLN81       0.2608
    112  OE1      -26.4320   12.1430  -24.8640 O.2    81  GLN81      -0.2717
    113  NE2      -26.5250   10.8360  -26.6820 N.am   81  GLN81      -0.0878
    114  N        -28.9240    5.5260  -24.5980 N.3    85  HIS85      -0.1241
    115  CA       -28.4170    4.4180  -25.3930 C.3    85  HIS85       0.1621
    116  C        -28.9600    3.0640  -24.9680 C.2    85  HIS85       0.2264
    117  O        -29.4720    2.2810  -25.7940 O.2    85  HIS85      -0.2867
    118  CB       -26.8890    4.4520  -25.3170 C.3    85  HIS85       0.0745
    119  CG       -26.2930    5.5670  -26.1180 C.ar   85  HIS85       0.0817
    120  ND1      -24.9440    5.6810  -26.3450 N.ar   85  HIS85      -0.2268
    121  CD2      -26.8770    6.5830  -26.8030 C.ar   85  HIS85       0.1154
    122  CE1      -24.7160    6.7380  -27.1130 C.ar   85  HIS85       0.1986
    123  NE2      -25.8740    7.2960  -27.4140 N.ar   85  HIS85      -0.2212
    124  N        -20.5300   -0.8130  -20.4900 N.3    99  GLY99      -0.1210
    125  CA       -19.2890   -0.5320  -19.8060 C.3    99  GLY99       0.1956
    126  C        -19.3230    0.8560  -19.1890 C.2    99  GLY99       0.2613
    127  O        -18.8740    1.0400  -18.0490 O.2    99  GLY99      -0.2717
    128  N        -19.8790    1.8130  -19.9540 N.am  100  THR100     -0.1938
    129  CA       -20.0540    3.1890  -19.5700 C.3   100  THR100      0.2028
    130  C        -20.6290    3.2320  -18.1480 C.2   100  THR100      0.2642
    131  O        -21.3950    2.3330  -17.7400 O.2   100  THR100     -0.2714
    132  CB       -20.9610    3.8910  -20.6000 C.3   100  THR100      0.1808
    133  OG1      -20.4010    3.6760  -21.9100 O.3   100  THR100     -0.2208
    134  CG2      -21.0280    5.3500  -20.3380 C.3   100  THR100      0.0379
    135  N        -20.1770    4.2140  -17.3800 N.am  101  THR101     -0.1950
    136  CA       -20.6420    4.4020  -16.0200 C.3   101  THR101      0.1897
    137  C        -21.5090    5.6460  -15.9920 C.2   101  THR101      0.2313
    138  O        -21.6270    6.3480  -17.0050 O.2   101  THR101     -0.2863
    139  CB       -19.4470    4.5170  -15.0440 C.3   101  THR101      0.1794
    140  OG1      -18.5350    5.5250  -15.5170 O.3   101  THR101     -0.2208
    141  CG2      -18.7260    3.1590  -14.9470 C.3   101  THR101      0.0378
    142  N        -21.9070   -3.5260  -16.3980 N.3   125  ALA125     -0.1231
    143  CA       -20.6460   -3.8560  -15.7430 C.3   125  ALA125      0.1679
    144  C        -19.8590   -2.6060  -15.2850 C.2   125  ALA125      0.2434
    145  O        -19.2010   -1.9580  -16.0960 O.2   125  ALA125     -0.2733
    146  CB       -19.7780   -4.7190  -16.6740 C.3   125  ALA125      0.0304
    147  N        -19.8970   -2.2870  -13.9860 N.am  126  PRO126     -0.2718
    148  CA       -19.0470   -1.2020  -13.4740 C.3   126  PRO126      0.1535
    149  C        -17.5040   -1.4650  -13.5570 C.2   126  PRO126      0.2599
    150  O        -16.7160   -0.5150  -13.5890 O.2   126  PRO126     -0.2715
    151  CB       -19.5030   -1.0300  -12.0230 C.3   126  PRO126      0.0310
    152  CG       -20.3360   -2.1990  -11.6910 C.3   126  PRO126      0.0237
    153  CD       -20.7870   -2.8510  -12.9650 C.3   126  PRO126      0.0939
    154  N        -17.1000   -2.7400  -13.6470 N.am  127  ASN127     -0.1959
    155  CA       -15.7270   -3.1300  -13.9210 C.3   127  ASN127      0.1819
    156  C        -15.6470   -4.4740  -14.6570 C.2   127  ASN127      0.2621
    157  O        -16.1920   -5.4950  -14.2010 O.2   127  ASN127     -0.2715
    158  CB       -14.9560   -3.2540  -12.5960 C.3   127  ASN127      0.1195
    159  CG       -13.4770   -2.9320  -12.7490 C.2   127  ASN127      0.2630
    160  OD1      -12.7970   -3.6040  -13.4880 O.2   127  ASN127     -0.2716
    161  ND2      -12.9870   -1.8720  -12.0730 N.am  127  ASN127     -0.0877
    162  N        -14.9510   -4.4830  -15.7820 N.am  128  PHE128     -0.1974
    163  CA       -14.6860   -5.7050  -16.5060 C.3   128  PHE128      0.1639
    164  C        -13.5100   -6.5580  -15.9710 C.2   128  PHE128      0.2290
    165  O        -13.3430   -7.6930  -16.3930 O.2   128  PHE128     -0.2864
    166  CB       -14.4140   -5.3720  -17.9490 C.3   128  PHE128      0.0560
    167  CG       -15.6140   -4.8650  -18.6880 C.ar  128  PHE128     -0.0200
    168  CD1      -16.7190   -5.6750  -18.8510 C.ar  128  PHE128     -0.0042
    169  CD2      -15.6190   -3.6130  -19.2630 C.ar  128  PHE128     -0.0042
    170  CE1      -17.8370   -5.2380  -19.5510 C.ar  128  PHE128     -0.0003
    171  CE2      -16.7430   -3.1550  -19.9980 C.ar  128  PHE128     -0.0003
    172  CZ       -17.8410   -3.9770  -20.1520 C.ar  128  PHE128     -0.0000
    173  N         -7.2690    7.6060  -13.6530 N.3   156  HIS156     -0.1241
    174  CA        -6.7540    8.6700  -14.4930 C.3   156  HIS156      0.1621
    175  C         -7.6090    9.9310  -14.4090 C.2   156  HIS156      0.2264
    176  O         -8.8070    9.9010  -14.1500 O.2   156  HIS156     -0.2867
    177  CB        -6.6610    8.2540  -15.9690 C.3   156  HIS156      0.0745
    178  CG        -7.9620    7.8320  -16.5310 C.ar  156  HIS156      0.0817
    179  ND1       -8.7230    8.6650  -17.3110 N.ar  156  HIS156     -0.2268
    180  CD2       -8.6910    6.6970  -16.3500 C.ar  156  HIS156      0.1154
    181  CE1       -9.8530    8.0440  -17.6290 C.ar  156  HIS156      0.1986
    182  NE2       -9.8450    6.8380  -17.0790 N.ar  156  HIS156     -0.2212
    183  N        -11.1560   10.8030  -16.5410 N.3   159  LYS159     -0.1231
    184  CA       -12.4410   10.2500  -16.0460 C.3   159  LYS159      0.1693
    185  C        -13.4220   11.3330  -15.6090 C.2   159  LYS159      0.2592
    186  O        -13.0590   12.2470  -14.8630 O.2   159  LYS159     -0.2718
    187  CB       -12.1990    9.2620  -14.9030 C.3   159  LYS159      0.0285
    188  CG       -13.4390    8.5380  -14.4390 C.3   159  LYS159      0.0035
    189  CD       -13.1010    7.4160  -13.4490 C.3   159  LYS159      0.0206
    190  CE       -14.3310    6.6530  -13.0160 C.3   159  LYS159      0.1093
    191  NZ       -15.1160    6.0320  -14.1370 N.3   159  LYS159     -0.1314
    192  N        -14.6710   11.1920  -16.0760 N.am  160  LEU160     -0.1966
    193  CA       -15.6740   12.2110  -15.9260 C.3   160  LEU160      0.1728
    194  C        -16.5450   12.1060  -14.6650 C.2   160  LEU160      0.2616
    195  O        -17.1570   13.0890  -14.2590 O.2   160  LEU160     -0.2715
    196  CB       -16.5560   12.1930  -17.1680 C.3   160  LEU160      0.0311
    197  CG       -15.9080   12.7300  -18.4610 C.3   160  LEU160      0.0022
    198  CD1      -16.8110   12.5350  -19.6740 C.3   160  LEU160      0.0001
    199  CD2      -15.4920   14.1780  -18.3400 C.3   160  LEU160      0.0001
    200  N        -16.6260   10.9230  -14.0650 N.am  161  ASP161     -0.1971
    201  CA       -17.6180   10.6670  -13.0250 C.3   161  ASP161      0.1709
    202  C        -16.8850   10.3350  -11.7640 C.2   161  ASP161      0.2293
    203  O        -15.9890    9.5190  -11.8070 O.2   161  ASP161     -0.2864
    204  CB       -18.5620    9.5010  -13.3660 C.3   161  ASP161      0.1436
    205  CG       -17.8460    8.2330  -13.8360 C.2   161  ASP161      0.3671
    206  OD1      -16.8530    8.3080  -14.6030 O.co2 161  ASP161     -0.2456
    207  OD2      -18.3270    7.1460  -13.4510 O.co2 161  ASP161     -0.2456
    208  N         -5.5800   -0.9280  -20.0460 N.3   237  ARG237     -0.1245
    209  CA        -6.9530   -1.2220  -20.5170 C.3   237  ARG237      0.1563
    210  C         -7.1290   -2.6280  -21.0730 C.2   237  ARG237      0.2260
    211  O         -8.2590   -3.1460  -21.0670 O.2   237  ARG237     -0.2867
    212  CB        -7.4660   -0.1140  -21.4640 C.3   237  ARG237      0.0307
    213  CG        -7.9270    1.0840  -20.6350 C.3   237  ARG237      0.0489
    214  CD        -8.2720    2.3700  -21.4010 C.3   237  ARG237      0.2205
    215  NE        -8.3470    3.4850  -20.4230 N.pl3 237  ARG237     -0.0865
    216  CZ        -7.3610    4.3410  -20.1430 C.cat 237  ARG237      0.5346
    217  NH1       -6.1950    4.3110  -20.8050 N.pl3 237  ARG237      0.1354
    218  NH2       -7.5420    5.2740  -19.2110 N.pl3 237  ARG237      0.1354
    219  N         -9.1780   -5.2000  -19.0350 N.3   240  PHE240     -0.1241
    220  CA       -10.6180   -5.2550  -19.1660 C.3   240  PHE240      0.1605
    221  C        -11.1590   -6.1340  -20.2580 C.2   240  PHE240      0.2264
    222  O        -12.3380   -6.4300  -20.2350 O.2   240  PHE240     -0.2867
    223  CB       -11.1530   -3.8430  -19.3570 C.3   240  PHE240      0.0534
    224  CG       -10.7780   -2.9040  -18.2300 C.ar  240  PHE240     -0.0203
    225  CD1      -11.1680   -3.1800  -16.9160 C.ar  240  PHE240     -0.0042
    226  CD2      -10.0230   -1.7830  -18.4740 C.ar  240  PHE240     -0.0042
    227  CE1      -10.8360   -2.3270  -15.8780 C.ar  240  PHE240     -0.0003
    228  CE2       -9.6930   -0.9270  -17.4500 C.ar  240  PHE240     -0.0003
    229  CZ       -10.1040   -1.2060  -16.1360 C.ar  240  PHE240     -0.0000
@<TRIPOS>BOND
     1    70    69    2
     2    69    68    1
     3    68    71    1
     4    68    67    1
     5    72    71    1
     6    72    73    1
     7    67    59   am
     8    53    54    1
     9    53    50    1
    10    11    12    1
    11    11    10    1
    12    49    50    1
    13    49    43   am
    14    41    42    1
    15    59    60    2
    16    59    58    1
    17    56    54   ar
    18    12    13    2
    19    54    55   ar
    20    42    43    1
    21    42    45    1
    22    10     9    1
    23    52    51    2
    24    73    74    1
    25    50    51    1
    26    47    46    1
    27    51    57   am
    28    43    44    2
    29    58    57    1
    30    58    61    1
    31    13    14    1
    32    13    15    1
    33    74    75    1
    34    45    46    1
    35    46    48    1
    36     9     6    1
    37    61    62    1
    38     5     6    1
    39     6     7    1
    40    62    64   ar
    41    62    63   ar
    42    64    66   ar
    43     7     8    2
    44     7    16   am
    45    63    65   ar
    46    66    65   ar
    47     3     2    1
    48     3     4    2
    49     1     2    1
    50    40    39    2
    51    16    17    1
    52    39    38    1
    53   123   122   ar
    54   123   121   ar
    55    38    37    1
    56    19    18    2
    57   122   120   ar
    58    17    18    1
    59   121   119   ar
    60   113   111   am
    61    90    88    1
    62    18    20   am
    63   120   119   ar
    64   119   118    1
    65    37    31   am
    66    32    31    2
    67   117   116    2
    68   111   110    1
    69   111   112    2
    70   115   118    1
    71   115   116    1
    72   115   114    1
    73    31    30    1
    74    20    21    1
    75    88    85    1
    76    88    89    1
    77   110   109    1
    78    23    22    2
    79    79    78    2
    80    21    22    1
    81    21    24    1
    82    76    77    1
    83    82    81    1
    84    22    29   am
    85    85    84    1
    86    85    86    1
    87   109   106    1
    88    80    77    1
    89    80    81    1
    90    78    84   am
    91    78    77    1
    92    29    30    1
    93    30    33    1
    94    81    83    1
    95    25    24    1
    96    25    26    1
    97    96    95    1
    98   108   107    2
    99    86    91   am
   100    86    87    2
   101   106   107    1
   102   106   105    1
   103    33    34    1
   104    91    92    1
   105    26    27    1
   106    95    92    1
   107    95    97    1
   108    28    27    1
   109   133   132    1
   110    92    93    1
   111    34    35    1
   112   212   213    1
   113   212   209    1
   114   214   213    1
   115   214   215    1
   116    94    93    2
   117   210   211    2
   118   210   209    1
   119    36    35    1
   120    93    98   am
   121   217   216    1
   122   132   134    1
   123   132   129    1
   124   209   208    1
   125   124   125    1
   126   215   216    2
   127   221   222    2
   128   221   220    1
   129   172   171   ar
   130   172   170   ar
   131   216   218    1
   132   171   169   ar
   133   128   129    1
   134   128   126   am
   135   125   126    1
   136   198   197    1
   137    98   104    1
   138    98    99    1
   139   129   130    1
   140   170   168   ar
   141   223   220    1
   142   223   224    1
   143   100   101    2
   144   100    99    1
   145   169   167   ar
   146   126   127    2
   147   220   219    1
   148   168   167   ar
   149   104   103    1
   150    99   102    1
   151   167   166    1
   152   226   224   ar
   153   226   228   ar
   154   197   199    1
   155   197   196    1
   156   224   225   ar
   157   130   131    2
   158   130   135   am
   159   166   163    1
   160   181   179   ar
   161   181   182   ar
   162   102   103    1
   163   228   229   ar
   164   135   136    1
   165   179   178   ar
   166   196   193    1
   167   182   180   ar
   168   138   137    2
   169   225   227   ar
   170   146   143    1
   171   183   184    1
   172   178   180   ar
   173   178   177    1
   174   163   164    1
   175   163   162    1
   176   142   143    1
   177   165   164    2
   178   229   227   ar
   179   145   144    2
   180   192   193    1
   181   192   185   am
   182   184   185    1
   183   184   187    1
   184   136   137    1
   185   136   139    1
   186   177   174    1
   187   193   194    1
   188   162   156   am
   189   143   144    1
   190   185   186    2
   191   140   139    1
   192   144   147   am
   193   139   141    1
   194   187   188    1
   195   194   195    2
   196   194   200   am
   197   156   157    2
   198   156   155    1
   199   206   205   ar
   200   174   175    1
   201   174   173    1
   202   188   189    1
   203   175   176    2
   204   191   190    1
   205   200   201    1
   206   147   148    1
   207   147   153    1
   208   155   154    1
   209   155   158    1
   210   205   207   ar
   211   205   204    1
   212   154   149   am
   213   150   149    2
   214   149   148    1
   215   160   159    2
   216   148   151    1
   217   189   190    1
   218   204   201    1
   219   201   202    1
   220   153   152    1
   221   159   158    1
   222   159   161   am
   223   151   152    1
   224   203   202    2
