@<TRIPOS>MOLECULE
tmp/5z2pD01.pdb
 191 183 0 0 0
SMALL
GASTEIGER

@<TRIPOS>ATOM
      1  N         81.7310  -20.5430  -56.7430 N.3   369  GLU369     -0.1245
      2  CA        81.1800  -21.0160  -58.0060 C.3   369  GLU369      0.1567
      3  C         81.9250  -20.4120  -59.1910 C.2   369  GLU369      0.2260
      4  O         82.0830  -21.0720  -60.2260 O.2   369  GLU369     -0.2867
      5  CB        79.6750  -20.7290  -58.0720 C.3   369  GLU369      0.0388
      6  CG        79.2150  -19.2890  -57.9600 C.3   369  GLU369      0.1160
      7  CD        77.6790  -19.1930  -58.1040 C.2   369  GLU369      0.3649
      8  OE1       77.1440  -19.9730  -58.9370 O.co2 369  GLU369     -0.2457
      9  OE2       77.0190  -18.3400  -57.4280 O.co2 369  GLU369     -0.2457
     10  N         71.5930  -23.9010  -67.1010 N.3   390  ASN390     -0.1225
     11  CA        71.3760  -22.5270  -67.5130 C.3   390  ASN390      0.1785
     12  C         71.6590  -21.5930  -66.3360 C.2   390  ASN390      0.2598
     13  O         72.1990  -22.0080  -65.3090 O.2   390  ASN390     -0.2718
     14  CB        69.9590  -22.3760  -68.0690 C.3   390  ASN390      0.1169
     15  CG        69.8330  -22.9600  -69.4590 C.2   390  ASN390      0.2627
     16  OD1       70.7180  -22.7690  -70.3000 O.2   390  ASN390     -0.2716
     17  ND2       68.7610  -23.6940  -69.7040 N.am  390  ASN390     -0.0877
     18  N         71.3180  -20.3120  -66.5000 N.am  391  SER391     -0.1938
     19  CA        71.5630  -19.2610  -65.5170 C.3   391  SER391      0.2055
     20  C         73.0650  -19.0270  -65.3560 C.2   391  SER391      0.2643
     21  O         73.7510  -18.8440  -66.3660 O.2   391  SER391     -0.2714
     22  CB        70.8840  -19.5770  -64.1740 C.3   391  SER391      0.2130
     23  OG        70.6080  -18.3770  -63.4590 O.3   391  SER391     -0.2179
     24  N         73.5850  -18.9610  -64.1250 N.am  392  LEU392     -0.1963
     25  CA        74.9700  -18.5070  -63.9450 C.3   392  LEU392      0.1728
     26  C         76.0080  -19.5450  -64.3790 C.2   392  LEU392      0.2616
     27  O         77.0670  -19.1580  -64.8600 O.2   392  LEU392     -0.2715
     28  CB        75.2450  -18.1150  -62.4880 C.3   392  LEU392      0.0311
     29  CG        74.7480  -16.7600  -61.9790 C.3   392  LEU392      0.0022
     30  CD1       75.1610  -16.5700  -60.5250 C.3   392  LEU392      0.0001
     31  CD2       75.2990  -15.6300  -62.8320 C.3   392  LEU392      0.0001
     32  N         75.7580  -20.8480  -64.2310 N.am  393  VAL393     -0.1977
     33  CA        76.8430  -21.8000  -64.5030 C.3   393  VAL393      0.1596
     34  C         77.3270  -21.7030  -65.9490 C.2   393  VAL393      0.2287
     35  O         78.5350  -21.8050  -66.2140 O.2   393  VAL393     -0.2864
     36  CB        76.4630  -23.2400  -64.1180 C.3   393  VAL393      0.0276
     37  CG1       75.6510  -23.9190  -65.1870 C.3   393  VAL393      0.0022
     38  CG2       77.7420  -24.0360  -63.9830 C.3   393  VAL393      0.0022
     39  N         77.0640  -19.0680  -67.9810 N.3   395  ARG395     -0.1245
     40  CA        77.7300  -17.7970  -68.2140 C.3   395  ARG395      0.1563
     41  C         79.1120  -17.7870  -67.5820 C.2   395  ARG395      0.2260
     42  O         80.0730  -17.3480  -68.2160 O.2   395  ARG395     -0.2867
     43  CB        76.8890  -16.6430  -67.6710 C.3   395  ARG395      0.0307
     44  CG        75.6250  -16.3790  -68.4710 C.3   395  ARG395      0.0489
     45  CD        74.5860  -15.5780  -67.6660 C.3   395  ARG395      0.2205
     46  NE        73.4180  -15.2060  -68.4680 N.pl3 395  ARG395     -0.0865
     47  CZ        72.4570  -16.0660  -68.8290 C.cat 395  ARG395      0.5346
     48  NH1       72.5410  -17.3540  -68.4810 N.pl3 395  ARG395      0.1354
     49  NH2       71.4190  -15.6500  -69.5540 N.pl3 395  ARG395      0.1354
     50  N         70.0340  -24.6000  -74.4450 N.3   413  LYS413     -0.1245
     51  CA        70.1240  -23.1500  -74.6190 C.3   413  LYS413      0.1561
     52  C         69.2080  -22.6250  -75.7180 C.2   413  LYS413      0.2260
     53  O         69.4170  -21.5150  -76.2010 O.2   413  LYS413     -0.2867
     54  CB        71.5610  -22.7030  -74.9110 C.3   413  LYS413      0.0271
     55  CG        72.5740  -22.9530  -73.8130 C.3   413  LYS413      0.0035
     56  CD        72.3090  -22.0970  -72.6160 C.3   413  LYS413      0.0206
     57  CE        72.1630  -20.6270  -72.9480 C.3   413  LYS413      0.1093
     58  NZ        71.5480  -19.8970  -71.7730 N.3   413  LYS413     -0.1314
     59  N         65.6060  -22.1160  -75.5290 N.3   415  ALA415     -0.1231
     60  CA        64.8600  -21.1520  -74.7380 C.3   415  ALA415      0.1694
     61  C         65.4420  -20.9870  -73.3350 C.2   415  ALA415      0.2593
     62  O         64.9270  -20.1790  -72.5540 O.2   415  ALA415     -0.2718
     63  CB        63.3810  -21.5600  -74.6490 C.3   415  ALA415      0.0304
     64  N         66.4810  -21.7490  -72.9960 N.am  416  SER416     -0.1938
     65  CA        67.1980  -21.6020  -71.7330 C.3   416  SER416      0.2055
     66  C         66.2960  -21.8160  -70.5290 C.2   416  SER416      0.2644
     67  O         66.4230  -21.1350  -69.5080 O.2   416  SER416     -0.2714
     68  CB        67.8770  -20.2360  -71.6480 C.3   416  SER416      0.2130
     69  OG        68.8730  -20.1330  -72.6240 O.3   416  SER416     -0.2179
     70  N         65.3620  -22.7520  -70.6530 N.am  417  GLY417     -0.1939
     71  CA        64.5460  -23.1050  -69.5160 C.3   417  GLY417      0.2014
     72  C         65.3730  -23.8010  -68.4510 C.2   417  GLY417      0.2639
     73  O         66.3780  -24.4550  -68.7340 O.2   417  GLY417     -0.2714
     74  N         64.9820  -23.5940  -67.1990 N.am  418  ILE418     -0.1963
     75  CA        65.5500  -24.3160  -66.0770 C.3   418  ILE418      0.1727
     76  C         64.6560  -25.4830  -65.6720 C.2   418  ILE418      0.2616
     77  O         64.8220  -26.0440  -64.5910 O.2   418  ILE418     -0.2715
     78  CB        65.8090  -23.3850  -64.8810 C.3   418  ILE418      0.0290
     79  CG1       64.4780  -22.8130  -64.3600 C.3   418  ILE418      0.0022
     80  CG2       66.8110  -22.2690  -65.2760 C.3   418  ILE418      0.0023
     81  CD1       64.4900  -22.2690  -62.8810 C.3   418  ILE418      0.0001
     82  N         63.7320  -25.8890  -66.5490 N.am  419  ASP419     -0.1971
     83  CA        62.6540  -26.7870  -66.1510 C.3   419  ASP419      0.1709
     84  C         62.8810  -28.2550  -66.4950 C.2   419  ASP419      0.2293
     85  O         62.1060  -29.1010  -66.0350 O.2   419  ASP419     -0.2864
     86  CB        61.3250  -26.3580  -66.7720 C.3   419  ASP419      0.1436
     87  CG        61.4370  -25.9750  -68.2450 C.2   419  ASP419      0.3671
     88  OD1       62.3970  -25.2640  -68.6580 O.co2 419  ASP419     -0.2456
     89  OD2       60.5500  -26.4440  -68.9850 O.co2 419  ASP419     -0.2456
     90  N         72.2090  -25.2270  -61.1990 N.3   441  GLY441     -0.1210
     91  CA        71.9780  -24.4700  -59.9850 C.3   441  GLY441      0.1956
     92  C         70.8980  -25.1200  -59.1100 C.2   441  GLY441      0.2612
     93  O         70.2670  -26.1200  -59.4780 O.2   441  GLY441     -0.2717
     94  N         70.7060  -24.5460  -57.9180 N.am  442  ASP442     -0.1959
     95  CA        69.8080  -25.1570  -56.9340 C.3   442  ASP442      0.1840
     96  C         68.3380  -25.0740  -57.3510 C.2   442  ASP442      0.2622
     97  O         67.5770  -26.0210  -57.1300 O.2   442  ASP442     -0.2715
     98  CB        69.9930  -24.5100  -55.5480 C.3   442  ASP442      0.1450
     99  CG        69.8990  -22.9890  -55.5760 C.2   442  ASP442      0.3671
    100  OD1       70.7900  -22.3390  -56.1470 O.co2 442  ASP442     -0.2456
    101  OD2       68.9210  -22.4430  -55.0280 O.co2 442  ASP442     -0.2456
    102  N         67.8950  -23.9220  -57.8770 N.am  443  LEU443     -0.1963
    103  CA        66.5080  -23.8150  -58.3020 C.3   443  LEU443      0.1728
    104  C         66.2510  -24.7450  -59.4770 C.2   443  LEU443      0.2616
    105  O         65.1720  -25.3400  -59.5780 O.2   443  LEU443     -0.2715
    106  CB        66.1300  -22.3620  -58.6540 C.3   443  LEU443      0.0311
    107  CG        66.1770  -21.3490  -57.4960 C.3   443  LEU443      0.0022
    108  CD1       65.5320  -20.0520  -57.8710 C.3   443  LEU443      0.0001
    109  CD2       65.5920  -21.8790  -56.1850 C.3   443  LEU443      0.0001
    110  N         67.2350  -24.8980  -60.3620 N.am  444  SER444     -0.1950
    111  CA        67.1060  -25.8630  -61.4490 C.3   444  SER444      0.1924
    112  C         66.9890  -27.2790  -60.9160 C.2   444  SER444      0.2314
    113  O         66.2140  -28.0930  -61.4440 O.2   444  SER444     -0.2863
    114  CB        68.2910  -25.7470  -62.3930 C.3   444  SER444      0.2116
    115  OG        68.3690  -24.4330  -62.8910 O.3   444  SER444     -0.2180
    116  N         63.4790  -27.6430  -59.5150 N.3   447  TYR447     -0.1241
    117  CA        62.4970  -27.6430  -60.5910 C.3   447  TYR447      0.1605
    118  C         62.2900  -29.0440  -61.1670 C.2   447  TYR447      0.2264
    119  O         61.1550  -29.4880  -61.3650 O.2   447  TYR447     -0.2867
    120  CB        62.9770  -26.6600  -61.6600 C.3   447  TYR447      0.0534
    121  CG        61.9150  -26.0010  -62.4760 C.ar  447  TYR447     -0.0201
    122  CD1       60.8970  -26.7430  -63.0440 C.ar  447  TYR447     -0.0009
    123  CD2       61.9410  -24.6250  -62.7030 C.ar  447  TYR447     -0.0009
    124  CE1       59.9180  -26.1320  -63.8090 C.ar  447  TYR447      0.0417
    125  CE2       61.0040  -24.0240  -63.4710 C.ar  447  TYR447      0.0417
    126  CZ        59.9830  -24.7810  -64.0280 C.ar  447  TYR447      0.1957
    127  OH        59.0200  -24.1840  -64.7980 O.3   447  TYR447     -0.2866
    128  N         73.6480  -21.7190  -54.2640 N.3   469  ASN469     -0.1240
    129  CA        73.8870  -20.3660  -53.7720 C.3   469  ASN469      0.1653
    130  C         72.6010  -19.7250  -53.2470 C.2   469  ASN469      0.2266
    131  O         72.4530  -18.5030  -53.2900 O.2   469  ASN469     -0.2867
    132  CB        74.5530  -19.5170  -54.8600 C.3   469  ASN469      0.1155
    133  CG        73.7740  -19.5170  -56.1400 C.2   469  ASN469      0.2627
    134  OD1       72.5950  -19.8640  -56.1510 O.2   469  ASN469     -0.2716
    135  ND2       74.4310  -19.1620  -57.2430 N.am  469  ASN469     -0.0877
    136  N         69.1100  -19.5710  -54.1200 N.3   471  GLY471     -0.1210
    137  CA        68.2720  -18.7700  -54.9800 C.3   471  GLY471      0.1956
    138  C         68.8540  -18.6570  -56.3740 C.2   471  GLY471      0.2612
    139  O         69.9350  -19.1590  -56.6710 O.2   471  GLY471     -0.2717
    140  N         68.1150  -17.9560  -57.2210 N.am  472  GLY472     -0.1942
    141  CA        68.5640  -17.7290  -58.5720 C.3   472  GLY472      0.2014
    142  C         69.4710  -16.5140  -58.6260 C.2   472  GLY472      0.2639
    143  O         69.0110  -15.4100  -58.9450 O.2   472  GLY472     -0.2714
    144  N         70.7660  -16.7050  -58.3260 N.am  473  GLN473     -0.1963
    145  CA        71.6630  -15.5620  -58.1470 C.3   473  GLN473      0.1733
    146  C         72.0270  -14.8770  -59.4470 C.2   473  GLN473      0.2616
    147  O         72.7510  -13.8660  -59.3860 O.2   473  GLN473     -0.2715
    148  CB        72.9530  -15.9490  -57.4080 C.3   473  GLN473      0.0408
    149  CG        72.7500  -16.3170  -55.9530 C.3   473  GLN473      0.0908
    150  CD        72.1850  -15.1770  -55.0900 C.2   473  GLN473      0.2608
    151  OE1       72.3300  -13.9900  -55.4060 O.2   473  GLN473     -0.2717
    152  NE2       71.5570  -15.5500  -53.9780 N.am  473  GLN473     -0.0878
    153  N         71.5500  -15.3600  -60.6050 N.am  474  ILE474     -0.1963
    154  CA        71.6420  -14.5320  -61.8060 C.3   474  ILE474      0.1727
    155  C         71.0290  -13.1700  -61.5200 C.2   474  ILE474      0.2616
    156  O         71.4620  -12.1510  -62.0780 O.2   474  ILE474     -0.2715
    157  CB        70.9670  -15.2110  -63.0270 C.3   474  ILE474      0.0290
    158  CG1       71.3100  -14.4410  -64.3060 C.3   474  ILE474      0.0022
    159  CG2       69.4050  -15.2080  -62.9040 C.3   474  ILE474      0.0023
    160  CD1       71.1010  -15.2180  -65.5970 C.3   474  ILE474      0.0001
    161  N         70.0200  -13.1190  -60.6280 N.am  475  PHE475     -0.1974
    162  CA        69.3650  -11.8580  -60.3210 C.3   475  PHE475      0.1639
    163  C         70.1230  -10.9960  -59.3220 C.2   475  PHE475      0.2290
    164  O         69.6880   -9.8680  -59.0650 O.2   475  PHE475     -0.2864
    165  CB        67.9270  -12.1160  -59.8550 C.3   475  PHE475      0.0560
    166  CG        67.0940  -12.8020  -60.9030 C.ar  475  PHE475     -0.0200
    167  CD1       66.9190  -12.1960  -62.1430 C.ar  475  PHE475     -0.0042
    168  CD2       66.5280  -14.0500  -60.6790 C.ar  475  PHE475     -0.0042
    169  CE1       66.1820  -12.8020  -63.1260 C.ar  475  PHE475     -0.0003
    170  CE2       65.7910  -14.6710  -61.6640 C.ar  475  PHE475     -0.0003
    171  CZ        65.6120  -14.0530  -62.8840 C.ar  475  PHE475     -0.0000
    172  N         72.2910   -9.2860  -62.5300 N.3   478  LEU478     -0.1245
    173  CA        71.4750   -8.2520  -63.1630 C.3   478  LEU478      0.1561
    174  C         71.1330   -7.1270  -62.1850 C.2   478  LEU478      0.2260
    175  O         71.0700   -7.3450  -60.9700 O.2   478  LEU478     -0.2867
    176  CB        70.1750   -8.8500  -63.6830 C.3   478  LEU478      0.0270
    177  CG        70.2830  -10.0020  -64.6780 C.3   478  LEU478      0.0019
    178  CD1       68.8750  -10.5120  -65.0250 C.3   478  LEU478      0.0001
    179  CD2       71.0710   -9.5660  -65.9200 C.3   478  LEU478      0.0001
    180  N         62.6810  -12.1140  -56.9180 N.3   489  TYR489     -0.1241
    181  CA        63.6350  -12.5250  -57.9430 C.3   489  TYR489      0.1605
    182  C         64.4380  -13.7470  -57.5080 C.2   489  TYR489      0.2264
    183  O         64.3630  -14.7950  -58.1550 O.2   489  TYR489     -0.2867
    184  CB        64.6050  -11.3920  -58.2970 C.3   489  TYR489      0.0534
    185  CG        63.9790  -10.2770  -59.0870 C.ar  489  TYR489     -0.0201
    186  CD1       63.2740   -9.2650  -58.4440 C.ar  489  TYR489     -0.0009
    187  CD2       64.0840  -10.2360  -60.4830 C.ar  489  TYR489     -0.0009
    188  CE1       62.6930   -8.2310  -59.1570 C.ar  489  TYR489      0.0417
    189  CE2       63.5030   -9.2030  -61.2160 C.ar  489  TYR489      0.0417
    190  CZ        62.8000   -8.1960  -60.5450 C.ar  489  TYR489      0.1957
    191  OH        62.2090   -7.1430  -61.2330 O.3   489  TYR489     -0.2866
@<TRIPOS>BOND
     1    53    52    2
     2    52    51    1
     3    59    60    1
     4    54    51    1
     5    54    55    1
     6    60    63    1
     7    60    61    1
     8    51    50    1
     9    55    56    1
    10    61    64   am
    11    61    62    2
    12    64    65    1
    13    57    56    1
    14    57    58    1
    15    69    68    1
    16    65    68    1
    17    65    66    1
    18    70    66   am
    19    70    71    1
    20    66    67    2
    21    16    15    2
    22    17    15   am
    23    49    47    1
    24    71    72    1
    25    15    14    1
    26    89    87   ar
    27    47    48    1
    28    47    46    2
    29    73    72    2
    30    88    87   ar
    31    44    43    1
    32    44    45    1
    33    46    45    1
    34    72    74   am
    35    87    86    1
    36    42    41    2
    37    40    39    1
    38    40    43    1
    39    40    41    1
    40    14    11    1
    41    11    10    1
    42    11    12    1
    43    74    75    1
    44    86    83    1
    45    82    83    1
    46    82    76   am
    47    18    12   am
    48    18    19    1
    49    84    83    1
    50    84    85    2
    51    21    20    2
    52    12    13    2
    53    35    34    2
    54    75    76    1
    55    75    78    1
    56    34    33    1
    57   179   177    1
    58    76    77    2
    59   160   158    1
    60    19    20    1
    61    19    22    1
    62    20    24   am
    63    80    78    1
    64    37    36    1
    65   178   177    1
    66    78    79    1
    67    27    26    2
    68   127   126    1
    69   177   176    1
    70    33    32    1
    71    33    36    1
    72    26    32   am
    73    26    25    1
    74    79    81    1
    75   158   157    1
    76    22    23    1
    77    24    25    1
    78    36    38    1
    79   126   124   ar
    80   126   125   ar
    81    25    28    1
    82   124   122   ar
    83   176   173    1
    84   125   123   ar
    85   173   172    1
    86   173   174    1
    87   169   171   ar
    88   169   167   ar
    89   122   121   ar
    90   157   159    1
    91   157   154    1
    92   115   114    1
    93   171   170   ar
    94    31    29    1
    95   123   121   ar
    96    28    29    1
    97   121   120    1
    98   114   111    1
    99   174   175    2
   100   167   166   ar
   101   156   155    2
   102    29    30    1
   103   154   155    1
   104   154   153    1
   105   170   168   ar
   106   120   117    1
   107   155   161   am
   108   111   112    1
   109   111   110    1
   110   113   112    2
   111   119   118    2
   112   191   190    1
   113   189   190   ar
   114   189   187   ar
   115    90    91    1
   116   118   117    1
   117   166   168   ar
   118   166   165    1
   119   161   162    1
   120   153   146   am
   121   117   116    1
   122   190   188   ar
   123   187   185   ar
   124   110   104   am
   125   162   165    1
   126   162   163    1
   127     4     3    2
   128    91    92    1
   129   105   104    2
   130    93    92    2
   131   104   103    1
   132   146   147    2
   133   146   145    1
   134   163   164    2
   135     3     2    1
   136   188   186   ar
   137    92    94   am
   138   185   186   ar
   139   185   184    1
   140   143   142    2
   141     8     7   ar
   142   106   103    1
   143   106   107    1
   144   142   141    1
   145   142   144   am
   146   141   140    1
   147   144   145    1
   148   103   102    1
   149   184   181    1
   150   183   182    2
   151   145   148    1
   152     7     6    1
   153     7     9   ar
   154     5     2    1
   155     5     6    1
   156     2     1    1
   157   181   182    1
   158   181   180    1
   159    94    95    1
   160   102    96   am
   161   108   107    1
   162   107   109    1
   163   148   149    1
   164    96    97    2
   165    96    95    1
   166   135   133   am
   167   140   138   am
   168    95    98    1
   169   139   138    2
   170   138   137    1
   171   134   133    2
   172   100    99   ar
   173   133   132    1
   174   149   150    1
   175    99    98    1
   176    99   101   ar
   177   151   150    2
   178   150   152   am
   179   137   136    1
   180   132   129    1
   181   128   129    1
   182   129   130    1
   183   131   130    2
