@<TRIPOS>MOLECULE
tmp/5z2pD00.pdb
 87 82 0 0 0
SMALL
GASTEIGER

@<TRIPOS>ATOM
      1  N         52.8080  -43.6570  -68.2400 N.3    30  PRO30      -0.2102
      2  CA        51.7020  -44.5890  -68.0180 C.3    30  PRO30       0.1504
      3  C         50.3510  -43.9790  -68.3570 C.2    30  PRO30       0.2576
      4  O         50.1490  -42.7590  -68.3170 O.2    30  PRO30      -0.2718
      5  CB        51.8020  -44.9190  -66.5240 C.3    30  PRO30       0.0282
      6  CG        52.6990  -43.8950  -65.9310 C.3    30  PRO30       0.0208
      7  CD        53.2120  -42.9860  -66.9950 C.3    30  PRO30       0.0893
      8  N         49.4260  -44.8490  -68.7390 N.am   31  GLY31      -0.1943
      9  CA        48.0900  -44.3960  -69.0540 C.3    31  GLY31       0.2014
     10  C         47.2800  -45.5520  -69.5720 C.2    31  GLY31       0.2639
     11  O         47.8000  -46.6530  -69.8500 O.2    31  GLY31      -0.2714
     12  N         45.9830  -45.2810  -69.7040 N.am   32  SER32      -0.1949
     13  CA        45.0420  -46.2430  -70.2590 C.3    32  SER32       0.1924
     14  C         44.7160  -45.9660  -71.7250 C.2    32  SER32       0.2314
     15  O         44.7320  -46.8780  -72.5610 O.2    32  SER32      -0.2863
     16  CB        43.7580  -46.2300  -69.4340 C.3    32  SER32       0.2116
     17  OG        42.8650  -47.1740  -69.9640 O.3    32  SER32      -0.2180
     18  N         57.2920  -41.2090  -64.8870 N.3    53  PHE53      -0.1241
     19  CA        55.9340  -40.9320  -64.4180 C.3    53  PHE53       0.1605
     20  C         55.5220  -39.4890  -64.6110 C.2    53  PHE53       0.2264
     21  O         54.3200  -39.2060  -64.6460 O.2    53  PHE53      -0.2867
     22  CB        55.8120  -41.3040  -62.9370 C.3    53  PHE53       0.0534
     23  CG        56.9030  -40.7120  -62.0800 C.ar   53  PHE53      -0.0203
     24  CD1       56.8370  -39.4060  -61.6560 C.ar   53  PHE53      -0.0042
     25  CD2       57.9930  -41.4820  -61.6790 C.ar   53  PHE53      -0.0042
     26  CE1       57.8700  -38.8460  -60.8960 C.ar   53  PHE53      -0.0003
     27  CE2       58.9900  -40.9340  -60.8930 C.ar   53  PHE53      -0.0003
     28  CZ        58.9240  -39.5990  -60.5120 C.ar   53  PHE53      -0.0000
     29  N         55.4210  -36.4840  -67.2240 N.3    55  GLU55      -0.1245
     30  CA        55.5460  -36.3490  -68.6680 C.3    55  GLU55       0.1567
     31  C         56.4200  -35.1580  -69.0830 C.2    55  GLU55       0.2260
     32  O         57.0170  -35.1770  -70.1680 O.2    55  GLU55      -0.2867
     33  CB        54.1650  -36.2410  -69.3200 C.3    55  GLU55       0.0388
     34  CG        53.3900  -37.5730  -69.3470 C.3    55  GLU55       0.1160
     35  CD        52.4060  -37.8170  -68.1860 C.2    55  GLU55       0.3649
     36  OE1       52.1590  -36.8750  -67.4010 O.co2  55  GLU55      -0.2457
     37  OE2       51.8530  -38.9530  -68.1050 O.co2  55  GLU55      -0.2457
     38  N         49.4610  -40.5570  -72.6200 N.3    78  THR78      -0.1203
     39  CA        48.0120  -40.7420  -72.6470 C.3    78  THR78       0.1994
     40  C         47.3380  -39.3920  -72.8220 C.2    78  THR78       0.2618
     41  O         47.9860  -38.3520  -72.8640 O.2    78  THR78      -0.2717
     42  CB        47.5040  -41.4760  -71.3970 C.3    78  THR78       0.1784
     43  OG1       46.1280  -41.8230  -71.5900 O.3    78  THR78      -0.2211
     44  CG2       47.6360  -40.6290  -70.1020 C.3    78  THR78       0.0376
     45  N         46.0120  -39.4000  -72.9350 N.am   79  SER79      -0.1951
     46  CA        45.2920  -38.1630  -73.1960 C.3    79  SER79       0.1924
     47  C         45.2230  -37.2890  -71.9320 C.2    79  SER79       0.2314
     48  O         45.4980  -37.7310  -70.8080 O.2    79  SER79      -0.2863
     49  CB        43.8850  -38.4660  -73.6840 C.3    79  SER79       0.2116
     50  OG        43.1110  -38.9670  -72.6110 O.3    79  SER79      -0.2180
     51  N         46.0450  -33.7560  -69.5160 N.3    81  THR81      -0.1203
     52  CA        47.1490  -32.8540  -69.1900 C.3    81  THR81       0.1994
     53  C         48.5290  -33.4900  -69.3760 C.2    81  THR81       0.2617
     54  O         49.5340  -32.7590  -69.4530 O.2    81  THR81      -0.2717
     55  CB        46.9910  -32.3000  -67.7630 C.3    81  THR81       0.1784
     56  OG1       46.8270  -33.3810  -66.8440 O.3    81  THR81      -0.2211
     57  CG2       45.7780  -31.3570  -67.6630 C.3    81  THR81       0.0376
     58  N         48.6150  -34.8170  -69.4700 N.am   82  ALA82      -0.1979
     59  CA        49.8980  -35.4280  -69.8200 C.3    82  ALA82       0.1597
     60  C         50.4470  -34.8760  -71.1410 C.2    82  ALA82       0.2287
     61  O         51.6400  -34.5700  -71.2510 O.2    82  ALA82      -0.2864
     62  CB        49.7430  -36.9430  -69.8830 C.3    82  ALA82       0.0319
     63  N         51.9520  -31.4360  -70.7140 N.3    85  ASN85      -0.1240
     64  CA        53.2630  -31.4620  -70.0690 C.3    85  ASN85       0.1653
     65  C         54.4160  -31.6460  -71.0530 C.2    85  ASN85       0.2266
     66  O         55.5740  -31.4290  -70.6640 O.2    85  ASN85      -0.2867
     67  CB        53.2890  -32.5730  -69.0080 C.3    85  ASN85       0.1155
     68  CG        52.6770  -32.1200  -67.6990 C.2    85  ASN85       0.2627
     69  OD1       53.3760  -31.5910  -66.8500 O.2    85  ASN85      -0.2716
     70  ND2       51.3590  -32.2690  -67.5610 N.am   85  ASN85      -0.0877
     71  N         35.5770  -37.8730  -68.9030 N.3   117  ASN117     -0.1225
     72  CA        36.7730  -37.9110  -68.0800 C.3   117  ASN117      0.1785
     73  C         38.1100  -37.8630  -68.8790 C.2   117  ASN117      0.2597
     74  O         38.2970  -38.6160  -69.8110 O.2   117  ASN117     -0.2718
     75  CB        36.7820  -39.1800  -67.2100 C.3   117  ASN117      0.1169
     76  CG        35.9630  -39.0730  -65.9030 C.2   117  ASN117      0.2627
     77  OD1       34.8050  -38.7490  -65.9210 O.2   117  ASN117     -0.2716
     78  ND2       36.5690  -39.4120  -64.7710 N.am  117  ASN117     -0.0877
     79  N         39.0050  -36.9740  -68.4920 N.am  118  GLN118     -0.1979
     80  CA        40.3040  -36.8640  -69.0820 C.3   118  GLN118      0.1601
     81  C         40.3110  -36.6470  -70.6100 C.2   118  GLN118      0.2287
     82  O         41.1210  -37.1280  -71.3220 O.2   118  GLN118     -0.2864
     83  CB        41.1190  -38.0740  -68.6420 C.3   118  GLN118      0.0394
     84  CG        42.5840  -37.8800  -68.6320 C.3   118  GLN118      0.0908
     85  CD        43.3260  -39.1580  -68.5190 C.2   118  GLN118      0.2608
     86  OE1       43.9860  -39.5550  -69.4600 O.2   118  GLN118     -0.2717
     87  NE2       43.2330  -39.8080  -67.3630 N.am  118  GLN118     -0.0878
@<TRIPOS>BOND
     1    49    46    1
     2    49    50    1
     3    46    45    1
     4    46    47    1
     5    45    40   am
     6    41    40    2
     7    40    39    1
     8    39    38    1
     9    39    42    1
    10    15    14    2
    11    47    48    2
    12    14    13    1
    13    43    42    1
    14    42    44    1
    15    82    81    2
    16    61    60    2
    17    60    59    1
    18    65    66    2
    19    65    64    1
    20    63    64    1
    21    81    80    1
    22    13    12    1
    23    13    16    1
    24    32    31    2
    25    64    67    1
    26    17    16    1
    27    62    59    1
    28    11    10    2
    29    59    58    1
    30    74    73    2
    31    12    10   am
    32    10     9    1
    33    51    52    1
    34    58    53   am
    35    86    85    2
    36    54    53    2
    37    53    52    1
    38    34    33    1
    39    34    35    1
    40    33    30    1
    41    52    55    1
    42    31    30    1
    43    80    83    1
    44    80    79    1
    45     9     8    1
    46    67    68    1
    47    71    72    1
    48    73    79   am
    49    73    72    1
    50     8     3   am
    51    30    29    1
    52    83    84    1
    53    84    85    1
    54    85    87   am
    55     3     4    2
    56     3     2    1
    57     1     2    1
    58     1     7    1
    59    35    37   ar
    60    35    36   ar
    61    72    75    1
    62     2     5    1
    63    55    57    1
    64    55    56    1
    65    68    70   am
    66    68    69    2
    67    75    76    1
    68     7     6    1
    69     5     6    1
    70    77    76    2
    71    76    78   am
    72    18    19    1
    73    21    20    2
    74    20    19    1
    75    19    22    1
    76    22    23    1
    77    23    25   ar
    78    23    24   ar
    79    25    27   ar
    80    24    26   ar
    81    26    28   ar
    82    27    28   ar
