@<TRIPOS>MOLECULE
tmp/5z2vA00.pdb
 86 82 0 0 0
SMALL
GASTEIGER

@<TRIPOS>ATOM
      1  N         24.4010   44.3130  212.6700 N.3   142  PRO142     -0.2116
      2  CA        24.7460   44.7910  214.0220 C.3   142  PRO142      0.1372
      3  C         24.2520   43.8230  215.0890 C.2   142  PRO142      0.2244
      4  O         23.4300   44.1630  215.9120 O.2   142  PRO142     -0.2868
      5  CB        24.0380   46.1500  214.0810 C.3   142  PRO142      0.0268
      6  CG        22.7830   45.8820  213.3160 C.3   142  PRO142      0.0207
      7  CD        23.2690   45.0670  212.1230 C.3   142  PRO142      0.0892
      8  N         29.2490   42.1180  214.7780 N.3   147  GLU147     -0.1245
      9  CA        30.1690   43.1130  215.3290 C.3   147  GLU147      0.1567
     10  C         31.5340   42.4900  215.5560 C.2   147  GLU147      0.2260
     11  O         32.5530   43.1040  215.2370 O.2   147  GLU147     -0.2867
     12  CB        29.6670   43.6880  216.6680 C.3   147  GLU147      0.0388
     13  CG        29.8100   45.2120  216.8330 C.3   147  GLU147      0.1160
     14  CD        29.2300   46.0100  215.6730 C.2   147  GLU147      0.3649
     15  OE1       28.0390   45.8080  215.3670 O.co2 147  GLU147     -0.2457
     16  OE2       29.9740   46.8020  215.0480 O.co2 147  GLU147     -0.2457
     17  N         33.1370   42.2580  212.2190 N.3   150  ALA150     -0.1231
     18  CA        33.6440   43.5730  211.7770 C.3   150  ALA150      0.1694
     19  C         34.9630   43.9420  212.4410 C.2   150  ALA150      0.2592
     20  O         35.8740   44.4170  211.7840 O.2   150  ALA150     -0.2718
     21  CB        32.6200   44.6760  212.0220 C.3   150  ALA150      0.0304
     22  N         35.0380   43.7360  213.7520 N.am  151  HIS151     -0.1976
     23  CA        36.2420   43.9740  214.5070 C.3   151  HIS151      0.1656
     24  C         37.3960   43.0860  214.0850 C.2   151  HIS151      0.2291
     25  O         38.5350   43.5400  214.0610 O.2   151  HIS151     -0.2864
     26  CB        35.9490   43.8470  216.0140 C.3   151  HIS151      0.0771
     27  CG        35.3260   45.0770  216.5780 C.ar  151  HIS151      0.0820
     28  ND1       36.0430   46.2380  216.7990 N.ar  151  HIS151     -0.2267
     29  CD2       34.0410   45.3620  216.8860 C.ar  151  HIS151      0.1154
     30  CE1       35.2200   47.1780  217.2240 C.ar  151  HIS151      0.1986
     31  NE2       34.0060   46.6630  217.3080 N.ar  151  HIS151     -0.2212
     32  N         32.3090   51.7780  209.5850 N.3   166  ARG166     -0.1245
     33  CA        31.2740   50.8800  210.0920 C.3   166  ARG166      0.1563
     34  C         29.9530   51.6270  209.9560 C.2   166  ARG166      0.2260
     35  O         29.8540   52.7990  210.3500 O.2   166  ARG166     -0.2867
     36  CB        31.5220   50.5040  211.5560 C.3   166  ARG166      0.0307
     37  CG        30.5260   49.5310  212.1520 C.3   166  ARG166      0.0489
     38  CD        30.8350   48.0970  211.8240 C.3   166  ARG166      0.2205
     39  NE        29.8430   47.1830  212.4350 N.pl3 166  ARG166     -0.0865
     40  CZ        28.9450   46.4430  211.7880 C.cat 166  ARG166      0.5346
     41  NH1       28.7880   46.5140  210.4570 N.pl3 166  ARG166      0.1354
     42  NH2       28.1650   45.6140  212.4950 N.pl3 166  ARG166      0.1354
     43  N         24.7710   52.2720  213.7760 N.3   169  HIS169     -0.1226
     44  CA        23.8360   51.4060  214.4440 C.3   169  HIS169      0.1752
     45  C         23.6480   51.8290  215.9000 C.2   169  HIS169      0.2596
     46  O         24.5190   52.4690  216.5020 O.2   169  HIS169     -0.2718
     47  CB        24.3300   49.9720  214.3300 C.3   169  HIS169      0.0759
     48  CG        25.7120   49.7550  214.8480 C.ar  169  HIS169      0.0818
     49  ND1       26.8460   50.1520  214.1690 N.ar  169  HIS169     -0.2268
     50  CD2       26.1410   49.1700  215.9840 C.ar  169  HIS169      0.1154
     51  CE1       27.9150   49.8050  214.8610 C.ar  169  HIS169      0.1986
     52  NE2       27.5140   49.1980  215.9610 N.ar  169  HIS169     -0.2212
     53  N         22.4880   51.4900  216.4600 N.am  170  GLY170     -0.1957
     54  CA        22.2210   51.7230  217.8710 C.3   170  GLY170      0.1869
     55  C         20.7350   51.7600  218.0570 C.2   170  GLY170      0.2309
     56  O         20.0510   50.8090  217.6890 O.2   170  GLY170     -0.2863
     57  N         23.7280   50.5000  225.1170 N.3   187  HIS187     -0.1226
     58  CA        24.7610   50.4500  224.0810 C.3   187  HIS187      0.1752
     59  C         24.8780   51.7940  223.3180 C.2   187  HIS187      0.2595
     60  O         25.9840   52.3320  223.1350 O.2   187  HIS187     -0.2718
     61  CB        24.4820   49.3490  223.0710 C.3   187  HIS187      0.0759
     62  CG        24.8320   47.9650  223.5130 C.ar  187  HIS187      0.0818
     63  ND1       25.4570   47.0760  222.6590 N.ar  187  HIS187     -0.2268
     64  CD2       24.6030   47.2800  224.6670 C.ar  187  HIS187      0.1154
     65  CE1       25.6070   45.9100  223.2720 C.ar  187  HIS187      0.1986
     66  NE2       25.0970   46.0060  224.4890 N.ar  187  HIS187     -0.2212
     67  N         23.7330   52.3320  222.9140 N.am  188  ALA188     -0.1980
     68  CA        23.7080   53.5990  222.1850 C.3   188  ALA188      0.1597
     69  C         24.2320   54.7670  222.9900 C.2   188  ALA188      0.2287
     70  O         24.8140   55.7040  222.4450 O.2   188  ALA188     -0.2864
     71  CB        22.2950   53.9110  221.6880 C.3   188  ALA188      0.0319
     72  N         27.9970   54.2440  223.3590 N.3   191  GLY191     -0.1225
     73  CA        28.5910   54.4900  222.0560 C.3   191  GLY191      0.1811
     74  C         28.2070   55.8160  221.4390 C.2   191  GLY191      0.2280
     75  O         28.1970   55.9550  220.2130 O.2   191  GLY191     -0.2866
     76  N         28.3940   59.5860  220.0750 N.3   193  ARG193     -0.1245
     77  CA        29.3510   60.1940  219.1600 C.3   193  ARG193      0.1563
     78  C         29.2710   61.7220  219.2160 C.2   193  ARG193      0.2260
     79  O         28.2310   62.2800  219.5710 O.2   193  ARG193     -0.2867
     80  CB        28.9900   59.7250  217.7310 C.3   193  ARG193      0.0307
     81  CG        29.1790   58.2380  217.5050 C.3   193  ARG193      0.0489
     82  CD        30.6450   57.9030  217.5180 C.3   193  ARG193      0.2205
     83  NE        30.8840   56.5050  217.1520 N.pl3 193  ARG193     -0.0865
     84  CZ        31.9620   56.0470  216.5200 C.cat 193  ARG193      0.5346
     85  NH1       32.9440   56.8670  216.1240 N.pl3 193  ARG193      0.1354
     86  NH2       32.0530   54.7440  216.2660 N.pl3 193  ARG193      0.1354
@<TRIPOS>BOND
     1    32    33    1
     2    34    33    1
     3    34    35    2
     4    33    36    1
     5    41    40    1
     6    36    37    1
     7    18    21    1
     8    18    17    1
     9    18    19    1
    10    20    19    2
    11    40    39    2
    12    40    42    1
    13    38    37    1
    14    38    39    1
    15     7     1    1
    16     7     6    1
    17    19    22   am
    18     1     2    1
    19     6     5    1
    20    22    23    1
    21    43    44    1
    22     2     5    1
    23     2     3    1
    24    25    24    2
    25    24    23    1
    26    49    48   ar
    27    49    51   ar
    28    47    44    1
    29    47    48    1
    30    44    45    1
    31    23    26    1
    32     8     9    1
    33    48    50   ar
    34    51    52   ar
    35    16    14   ar
    36     3     4    2
    37    11    10    2
    38     9    10    1
    39     9    12    1
    40    15    14   ar
    41    14    13    1
    42    45    53   am
    43    45    46    2
    44    52    50   ar
    45    26    27    1
    46    85    84    1
    47    86    84    1
    48    53    54    1
    49    84    83    2
    50    27    28   ar
    51    27    29   ar
    52    12    13    1
    53    28    30   ar
    54    29    31   ar
    55    83    82    1
    56    30    31   ar
    57    81    82    1
    58    81    80    1
    59    56    55    2
    60    80    77    1
    61    54    55    1
    62    77    78    1
    63    77    76    1
    64    78    79    2
    65    75    74    2
    66    74    73    1
    67    71    68    1
    68    73    72    1
    69    68    67    1
    70    68    69    1
    71    70    69    2
    72    63    65   ar
    73    63    62   ar
    74    67    59   am
    75    61    62    1
    76    61    58    1
    77    60    59    2
    78    65    66   ar
    79    59    58    1
    80    62    64   ar
    81    58    57    1
    82    66    64   ar
