@<TRIPOS>MOLECULE
tmp/5z36A00.pdb
 142 137 0 0 0
SMALL
GASTEIGER

@<TRIPOS>ATOM
      1  N         11.3270   -1.3210    8.1240 N.3     8  VAL8       -0.1245
      2  CA        11.9980   -2.2510    7.1700 C.3     8  VAL8        0.1561
      3  C         12.1040   -1.5670    5.8030 C.2     8  VAL8        0.2260
      4  O         11.1960   -0.8830    5.3740 O.2     8  VAL8       -0.2867
      5  CB        11.1790   -3.5370    7.0420 C.3     8  VAL8        0.0252
      6  CG1        9.8220   -3.2210    6.4120 C.3     8  VAL8        0.0019
      7  CG2       11.9300   -4.5350    6.1580 C.3     8  VAL8        0.0019
      8  N         12.9300   -2.2330    1.6920 N.3    10  LYS10      -0.1231
      9  CA        13.2170   -3.2240    0.6180 C.3    10  LYS10       0.1693
     10  C         12.9400   -2.5800   -0.7420 C.2    10  LYS10       0.2593
     11  O         12.1820   -1.6350   -0.8500 O.2    10  LYS10      -0.2718
     12  CB        12.3320   -4.4570    0.7920 C.3    10  LYS10       0.0285
     13  CG        12.6540   -5.1350    2.1250 C.3    10  LYS10       0.0035
     14  CD        11.8470   -6.4280    2.2470 C.3    10  LYS10       0.0206
     15  CE        12.0640   -7.0390    3.6320 C.3    10  LYS10       0.1093
     16  NZ        12.8040   -8.3250    3.4980 N.3    10  LYS10      -0.1314
     17  N         13.5450   -3.0740   -1.7810 N.am   11  SER11      -0.1938
     18  CA        13.3040   -2.4780   -3.1210 C.3    11  SER11       0.2055
     19  C         13.5560   -3.5200   -4.2070 C.2    11  SER11       0.2642
     20  O         14.3500   -4.4260   -4.0460 O.2    11  SER11      -0.2714
     21  CB        14.2380   -1.2930   -3.3140 C.3    11  SER11       0.2130
     22  OG        15.5720   -1.7610   -3.4540 O.3    11  SER11      -0.2179
     23  N         12.8780   -3.3990   -5.3120 N.am   12  VAL12      -0.1977
     24  CA        13.0650   -4.3800   -6.4150 C.3    12  VAL12       0.1596
     25  C         12.6570   -3.7490   -7.7400 C.2    12  VAL12       0.2287
     26  O         11.8770   -2.8180   -7.7820 O.2    12  VAL12      -0.2864
     27  CB        12.2070   -5.6100   -6.1610 C.3    12  VAL12       0.0276
     28  CG1       12.1490   -6.4620   -7.4310 C.3    12  VAL12       0.0022
     29  CG2       12.8170   -6.4340   -5.0240 C.3    12  VAL12       0.0022
     30  N         10.7290   -3.9900  -11.3360 N.3    14  VAL14      -0.1245
     31  CA         9.6500   -4.7900  -11.9780 C.3    14  VAL14       0.1561
     32  C          9.4320   -4.2990  -13.4060 C.2    14  VAL14       0.2260
     33  O          9.7610   -3.1800  -13.7440 O.2    14  VAL14      -0.2867
     34  CB         8.3530   -4.6220  -11.1820 C.3    14  VAL14       0.0252
     35  CG1        8.0810   -3.1330  -10.9580 C.3    14  VAL14       0.0019
     36  CG2        7.1860   -5.2280  -11.9710 C.3    14  VAL14       0.0019
     37  N         11.5650    0.6430   -7.9220 N.3   117  VAL117     -0.1245
     38  CA        10.8270    1.3020   -6.8090 C.3   117  VAL117      0.1561
     39  C         11.4890    0.9960   -5.4720 C.2   117  VAL117      0.2260
     40  O         11.8310   -0.1340   -5.1760 O.2   117  VAL117     -0.2867
     41  CB         9.3910    0.7860   -6.7770 C.3   117  VAL117      0.0252
     42  CG1        8.6160    1.5070   -5.6710 C.3   117  VAL117      0.0019
     43  CG2        8.7210    1.0490   -8.1260 C.3   117  VAL117      0.0019
     44  N         10.5480    1.2130   -1.6580 N.3   119  LEU119     -0.1245
     45  CA         9.5000    1.5400   -0.6520 C.3   119  LEU119      0.1561
     46  C          9.9990    1.1920    0.7510 C.2   119  LEU119      0.2260
     47  O         10.3750    0.0690    1.0300 O.2   119  LEU119     -0.2867
     48  CB         8.2300    0.7450   -0.9750 C.3   119  LEU119      0.0270
     49  CG         7.0920    1.1770   -0.0460 C.3   119  LEU119      0.0019
     50  CD1        5.7800    1.2010   -0.8320 C.3   119  LEU119      0.0001
     51  CD2        6.9680    0.1790    1.1080 C.3   119  LEU119      0.0001
     52  N          9.0750    1.7060    5.0090 N.3   121  HIS121     -0.1241
     53  CA         8.1030    2.2210    6.0180 C.3   121  HIS121      0.1621
     54  C          8.7830    2.2190    7.3860 C.2   121  HIS121      0.2264
     55  O          9.3900    1.2440    7.7850 O.2   121  HIS121     -0.2867
     56  CB         6.8470    1.3410    6.0320 C.3   121  HIS121      0.0745
     57  CG         7.0780    0.0900    6.8370 C.ar  121  HIS121      0.0817
     58  ND1        7.0640    0.0860    8.2250 N.ar  121  HIS121     -0.2268
     59  CD2        7.2850   -1.2150    6.4610 C.ar  121  HIS121      0.1154
     60  CE1        7.2480   -1.1870    8.6310 C.ar  121  HIS121      0.1986
     61  NE2        7.3900   -2.0130    7.5940 N.ar  121  HIS121     -0.2212
     62  N         -0.0340   -5.6210   12.6040 N.3   132  TRP132     -0.1241
     63  CA        -0.0320   -6.4880   11.3950 C.3   132  TRP132      0.1605
     64  C         -1.4490   -7.0090   11.1600 C.2   132  TRP132      0.2264
     65  O         -1.8630   -7.2280   10.0400 O.2   132  TRP132     -0.2867
     66  CB         0.9230   -7.6740   11.5700 C.3   132  TRP132      0.0550
     67  CG         1.0520   -8.3770   10.2600 C.ar  132  TRP132      0.0003
     68  CD1        0.1580   -9.2650    9.7710 C.ar  132  TRP132      0.0946
     69  CD2        2.1120   -8.2680    9.2620 C.ar  132  TRP132      0.0152
     70  NE1        0.5920   -9.7010    8.5330 N.ar  132  TRP132     -0.2442
     71  CE2        1.7910   -9.1180    8.1770 C.ar  132  TRP132      0.0810
     72  CE3        3.3090   -7.5220    9.1870 C.ar  132  TRP132      0.0012
     73  CZ2        2.6180   -9.2260    7.0610 C.ar  132  TRP132      0.0191
     74  CZ3        4.1440   -7.6320    8.0620 C.ar  132  TRP132      0.0001
     75  CH2        3.7980   -8.4820    7.0020 C.ar  132  TRP132      0.0015
     76  N         -3.0160   -4.9840    8.7680 N.3   135  HIS135     -0.1241
     77  CA        -2.4490   -5.3030    7.4330 C.3   135  HIS135      0.1621
     78  C         -2.9390   -6.6810    6.9810 C.2   135  HIS135      0.2264
     79  O         -3.1160   -6.9320    5.8050 O.2   135  HIS135     -0.2867
     80  CB        -0.9220   -5.3110    7.5190 C.3   135  HIS135      0.0745
     81  CG        -0.3670   -5.9270    6.2690 C.ar  135  HIS135      0.0817
     82  ND1       -1.0130   -5.8120    5.0480 N.ar  135  HIS135     -0.2268
     83  CD2        0.7550   -6.6830    6.0340 C.ar  135  HIS135      0.1154
     84  CE1       -0.2900   -6.4850    4.1390 C.ar  135  HIS135      0.1986
     85  NE2        0.7990   -7.0330    4.6870 N.ar  135  HIS135     -0.2212
     86  N         -1.3890   -9.8290    4.0360 N.3   140  GLY140     -0.1210
     87  CA         0.0890   -9.7260    4.1820 C.3   140  GLY140      0.1940
     88  C          0.7020  -11.1290    4.1070 C.2   140  GLY140      0.2454
     89  O          1.3970  -11.5590    5.0050 O.2   140  GLY140     -0.2732
     90  N          0.4430  -11.8330    3.0370 N.am  141  PRO141     -0.2717
     91  CA         0.9730  -13.2140    2.8240 C.3   141  PRO141      0.1535
     92  C          2.5030  -13.2500    2.7570 C.2   141  PRO141      0.2599
     93  O          3.1340  -12.3310    2.2740 O.2   141  PRO141     -0.2715
     94  CB         0.3790  -13.6450    1.4800 C.3   141  PRO141      0.0310
     95  CG        -0.0430  -12.3840    0.8020 C.3   141  PRO141      0.0237
     96  CD        -0.3890  -11.3940    1.9080 C.3   141  PRO141      0.0939
     97  N          3.1010  -14.3080    3.2290 N.am  142  SER142     -0.1950
     98  CA         4.5860  -14.4050    3.1800 C.3   142  SER142      0.1924
     99  C          4.9990  -15.2340    1.9610 C.2   142  SER142      0.2314
    100  O          5.8930  -14.8630    1.2280 O.2   142  SER142     -0.2863
    101  CB         5.1020  -15.0690    4.4580 C.3   142  SER142      0.2116
    102  OG         5.7630  -16.2810    4.1230 O.3   142  SER142     -0.2180
    103  N          4.8110  -12.9410   -1.4930 N.3   145  GLU145     -0.1231
    104  CA         5.1200  -11.5230   -1.1640 C.3   145  GLU145      0.1699
    105  C          4.4160  -10.5850   -2.1480 C.2   145  GLU145      0.2593
    106  O          3.9580  -10.9930   -3.1970 O.2   145  GLU145     -0.2718
    107  CB         6.6280  -11.3040   -1.2220 C.3   145  GLU145      0.0402
    108  CG         7.3180  -12.2000   -0.1910 C.3   145  GLU145      0.1161
    109  CD         8.7660  -11.7440   -0.0110 C.2   145  GLU145      0.3649
    110  OE1        9.5660  -12.5430    0.4460 O.co2 145  GLU145     -0.2457
    111  OE2        9.0480  -10.5960   -0.3200 O.co2 145  GLU145     -0.2457
    112  N          4.3070   -9.3290   -1.7990 N.am  146  THR146     -0.1939
    113  CA         3.6120   -8.3520   -2.6880 C.3   146  THR146      0.2028
    114  C          4.2660   -8.3370   -4.0690 C.2   146  THR146      0.2642
    115  O          3.5980   -8.2830   -5.0810 O.2   146  THR146     -0.2714
    116  CB         3.7280   -6.9480   -2.0890 C.3   146  THR146      0.1808
    117  OG1        3.4890   -6.9950   -0.6900 O.3   146  THR146     -0.2208
    118  CG2        2.7060   -6.0240   -2.7500 C.3   146  THR146      0.0379
    119  N          5.5660   -8.3670   -4.1150 N.am  147  LEU147     -0.1977
    120  CA         6.2740   -8.3320   -5.4240 C.3   147  LEU147      0.1596
    121  C          5.8280   -9.5030   -6.3030 C.2   147  LEU147      0.2287
    122  O          5.8070   -9.4090   -7.5120 O.2   147  LEU147     -0.2864
    123  CB         7.7780   -8.4320   -5.1780 C.3   147  LEU147      0.0297
    124  CG         8.2020   -7.3560   -4.1740 C.3   147  LEU147      0.0022
    125  CD1        8.7900   -8.0190   -2.9310 C.3   147  LEU147      0.0001
    126  CD2        9.2630   -6.4590   -4.8060 C.3   147  LEU147      0.0001
    127  N          1.5360   -8.6110   -7.3470 N.3   150  PHE150     -0.1227
    128  CA         1.3510   -7.3310   -8.1030 C.3   150  PHE150      0.1736
    129  C          2.3710   -7.1810   -9.2430 C.2   150  PHE150      0.2595
    130  O          2.0630   -6.6300  -10.2810 O.2   150  PHE150     -0.2718
    131  CB         1.4790   -6.1480   -7.1430 C.3   150  PHE150      0.0547
    132  CG         2.7010   -5.3460   -7.4890 C.ar  150  PHE150     -0.0202
    133  CD1        3.9630   -5.8720   -7.2300 C.ar  150  PHE150     -0.0042
    134  CD2        2.5690   -4.0800   -8.0670 C.ar  150  PHE150     -0.0042
    135  CE1        5.1040   -5.1380   -7.5470 C.ar  150  PHE150     -0.0003
    136  CE2        3.7100   -3.3390   -8.3850 C.ar  150  PHE150     -0.0003
    137  CZ         4.9790   -3.8670   -8.1260 C.ar  150  PHE150     -0.0000
    138  N          3.5790   -7.6260   -9.0660 N.am  151  ALA151     -0.1980
    139  CA         4.5790   -7.4610  -10.1610 C.3   151  ALA151      0.1597
    140  C          4.2450   -8.3920  -11.3290 C.2   151  ALA151      0.2287
    141  O          4.3100   -8.0070  -12.4800 O.2   151  ALA151     -0.2864
    142  CB         5.9780   -7.7790   -9.6380 C.3   151  ALA151      0.0319
@<TRIPOS>BOND
     1    33    32    2
     2    32    31    1
     3   141   140    2
     4    31    30    1
     5    31    34    1
     6    36    34    1
     7   140   139    1
     8    34    35    1
     9   130   129    2
    10   139   142    1
    11   139   138    1
    12   129   138   am
    13   129   128    1
    14   136   137   ar
    15   136   134   ar
    16    43    41    1
    17   137   135   ar
    18   128   127    1
    19   128   131    1
    20   134   132   ar
    21    37    38    1
    22    26    25    2
    23    25    24    1
    24   135   133   ar
    25   122   121    2
    26   132   133   ar
    27   132   131    1
    28    28    27    1
    29    38    41    1
    30    38    39    1
    31    41    42    1
    32    24    27    1
    33    24    23    1
    34   121   120    1
    35    27    29    1
    36    39    40    2
    37   120   123    1
    38   120   119    1
    39    23    19   am
    40   123   124    1
    41   115   114    2
    42   126   124    1
    43    19    20    2
    44    19    18    1
    45   124   125    1
    46   119   114   am
    47   114   113    1
    48    22    21    1
    49    21    18    1
    50   106   105    2
    51    18    17    1
    52   118   116    1
    53   113   116    1
    54   113   112    1
    55   105   112   am
    56   105   104    1
    57   116   117    1
    58    17    10   am
    59    44    45    1
    60   103   104    1
    61   107   104    1
    62   107   108    1
    63    48    45    1
    64    48    49    1
    65    11    10    2
    66    50    49    1
    67    10     9    1
    68    45    46    1
    69   111   109   ar
    70   108   109    1
    71    49    51    1
    72   109   110   ar
    73     9    12    1
    74     9     8    1
    75    46    47    2
    76    12    13    1
    77    95    94    1
    78    95    96    1
    79   100    99    2
    80    94    91    1
    81    96    90    1
    82    99    98    1
    83    13    14    1
    84    14    15    1
    85    93    92    2
    86    92    91    1
    87    92    97   am
    88    91    90    1
    89    90    88   am
    90    98    97    1
    91    98   101    1
    92    16    15    1
    93    86    87    1
    94    88    87    1
    95    88    89    2
    96   102   101    1
    97    84    85   ar
    98    84    82   ar
    99    85    83   ar
   100    52    53    1
   101    82    81   ar
   102     4     3    2
   103     3     2    1
   104    79    78    2
   105    53    56    1
   106    53    54    1
   107    56    57    1
   108    83    81   ar
   109     7     5    1
   110    81    80    1
   111     6     5    1
   112    59    57   ar
   113    59    61   ar
   114    57    58   ar
   115    78    77    1
   116    75    73   ar
   117    75    74   ar
   118     5     2    1
   119    73    71   ar
   120     2     1    1
   121    54    55    2
   122    77    80    1
   123    77    76    1
   124    61    60   ar
   125    74    72   ar
   126    71    70   ar
   127    71    69   ar
   128    58    60   ar
   129    70    68   ar
   130    72    69   ar
   131    69    67   ar
   132    68    67   ar
   133    65    64    2
   134    67    66    1
   135    64    63    1
   136    63    66    1
   137    63    62    1
