@<TRIPOS>MOLECULE
tmp/5z3iA00.pdb
 88 84 0 0 0
SMALL
GASTEIGER

@<TRIPOS>ATOM
      1  N        -46.0670   84.7170   12.2550 N.3    71  ALA71      -0.1231
      2  CA       -44.7790   84.4210   12.8870 C.3    71  ALA71       0.1694
      3  C        -43.6950   85.3980   12.4410 C.2    71  ALA71       0.2592
      4  O        -42.4980   85.0880   12.4980 O.2    71  ALA71      -0.2718
      5  CB       -44.3430   82.9780   12.6260 C.3    71  ALA71       0.0304
      6  N        -44.0920   86.5910   12.0010 N.am   72  TYR72      -0.1962
      7  CA       -43.1140   87.5800   11.5720 C.3    72  TYR72       0.1771
      8  C        -42.4880   88.2750   12.7690 C.2    72  TYR72       0.2619
      9  O        -43.1680   88.6270   13.7350 O.2    72  TYR72      -0.2715
     10  CB       -43.7440   88.6200   10.6430 C.3    72  TYR72       0.0574
     11  CG       -43.5590   88.2920    9.1810 C.ar   72  TYR72      -0.0198
     12  CD1      -44.0140   87.0890    8.6580 C.ar   72  TYR72      -0.0009
     13  CD2      -42.9140   89.1780    8.3240 C.ar   72  TYR72      -0.0009
     14  CE1      -43.8410   86.7770    7.3250 C.ar   72  TYR72       0.0417
     15  CE2      -42.7290   88.8740    6.9870 C.ar   72  TYR72       0.0417
     16  CZ       -43.1940   87.6740    6.4910 C.ar   72  TYR72       0.1957
     17  OH       -43.0190   87.3660    5.1610 O.3    72  TYR72      -0.2866
     18  N        -41.1680   88.4440   12.7070 N.am   73  VAL73      -0.1977
     19  CA       -40.4870   89.4060   13.5630 C.3    73  VAL73       0.1596
     20  C        -40.8370   90.8000   13.0630 C.2    73  VAL73       0.2287
     21  O        -40.5770   91.1390   11.9020 O.2    73  VAL73      -0.2864
     22  CB       -38.9700   89.1790   13.5470 C.3    73  VAL73       0.0276
     23  CG1      -38.2570   90.2800   14.3360 C.3    73  VAL73       0.0022
     24  CG2      -38.6350   87.8080   14.0990 C.3    73  VAL73       0.0022
     25  N        -39.7150   97.2350   12.2230 N.3    85  LEU85      -0.1245
     26  CA       -39.5680   97.1180   10.7790 C.3    85  LEU85       0.1561
     27  C        -40.4880   98.1060   10.0680 C.2    85  LEU85       0.2260
     28  O        -41.5740   98.4440   10.5490 O.2    85  LEU85      -0.2867
     29  CB       -39.8700   95.6830   10.3210 C.3    85  LEU85       0.0270
     30  CG       -38.7440   94.6500   10.4580 C.3    85  LEU85       0.0019
     31  CD1      -37.4830   95.1100    9.7210 C.3    85  LEU85       0.0001
     32  CD2      -38.4360   94.3520   11.9120 C.3    85  LEU85       0.0001
     33  N        -39.0940   94.3110    6.5490 N.3   109  GLY109     -0.1210
     34  CA       -38.7400   93.0270    7.1180 C.3   109  GLY109      0.1956
     35  C        -38.6950   91.8740    6.1420 C.2   109  GLY109      0.2613
     36  O        -38.5370   90.7270    6.5670 O.2   109  GLY109     -0.2717
     37  N        -38.8490   92.1440    4.8490 N.am  110  THR110     -0.1938
     38  CA       -38.7420   91.1200    3.8210 C.3   110  THR110      0.2028
     39  C        -37.2880   90.7080    3.6290 C.2   110  THR110      0.2642
     40  O        -36.3630   91.4860    3.8790 O.2   110  THR110     -0.2714
     41  CB       -39.2940   91.6370    2.4970 C.3   110  THR110      0.1808
     42  OG1      -38.5150   92.7610    2.0600 O.3   110  THR110     -0.2208
     43  CG2      -40.7460   92.0650    2.6420 C.3   110  THR110      0.0379
     44  N        -37.0850   89.4710    3.1680 N.am  111  TYR111     -0.1973
     45  CA       -35.7260   89.0430    2.8500 C.3   111  TYR111      0.1639
     46  C        -35.1340   89.9150    1.7530 C.2   111  TYR111      0.2290
     47  O        -33.9470   90.2580    1.7960 O.2   111  TYR111     -0.2864
     48  CB       -35.7050   87.5670    2.4380 C.3   111  TYR111      0.0560
     49  CG       -35.8470   86.6050    3.5980 C.ar  111  TYR111     -0.0198
     50  CD1      -35.1420   86.8000    4.7790 C.ar  111  TYR111     -0.0009
     51  CD2      -36.6920   85.5080    3.5130 C.ar  111  TYR111     -0.0009
     52  CE1      -35.2680   85.9350    5.8420 C.ar  111  TYR111      0.0417
     53  CE2      -36.8220   84.6290    4.5750 C.ar  111  TYR111      0.0417
     54  CZ       -36.1040   84.8490    5.7340 C.ar  111  TYR111      0.1957
     55  OH       -36.2280   83.9900    6.7980 O.3   111  TYR111     -0.2866
     56  N        -34.3940   86.0350   12.4380 N.3   157  ILE157     -0.1245
     57  CA       -35.5930   85.5680   11.7450 C.3   157  ILE157      0.1561
     58  C        -35.4910   84.0810   11.4460 C.2   157  ILE157      0.2260
     59  O        -36.4430   83.3240   11.6450 O.2   157  ILE157     -0.2867
     60  CB       -35.8170   86.3870   10.4590 C.3   157  ILE157      0.0252
     61  CG1      -36.2860   87.8050   10.8080 C.3   157  ILE157      0.0019
     62  CG2      -36.8190   85.6960    9.5340 C.3   157  ILE157      0.0019
     63  CD1      -36.2830   88.7550    9.6360 C.3   157  ILE157      0.0001
     64  N        -38.0610   82.4270   13.8060 N.3   161  ALA161     -0.1231
     65  CA       -39.3380   82.3090   13.1060 C.3   161  ALA161      0.1694
     66  C        -39.3450   81.1620   12.1010 C.2   161  ALA161      0.2591
     67  O        -40.2680   80.3380   12.0960 O.2   161  ALA161     -0.2718
     68  CB       -39.6670   83.6240   12.4030 C.3   161  ALA161      0.0304
     69  N        -38.3410   81.0910   11.2230 N.am  162  GLU162     -0.1979
     70  CA       -38.3060   79.9980   10.2560 C.3   162  GLU162      0.1602
     71  C        -38.1550   78.6620   10.9700 C.2   162  GLU162      0.2287
     72  O        -38.7440   77.6560   10.5610 O.2   162  GLU162     -0.2864
     73  CB       -37.1650   80.2000    9.2550 C.3   162  GLU162      0.0415
     74  CG       -37.2190   81.4970    8.4510 C.3   162  GLU162      0.1163
     75  CD       -38.3250   81.5310    7.4060 C.2   162  GLU162      0.3649
     76  OE1      -39.2500   80.6820    7.4480 O.co2 162  GLU162     -0.2457
     77  OE2      -38.2580   82.4160    6.5230 O.co2 162  GLU162     -0.2457
     78  N        -41.4020   77.5470   12.1050 N.3   165  ARG165     -0.1245
     79  CA       -42.2840   77.1130   11.0240 C.3   165  ARG165      0.1563
     80  C        -41.9520   75.7070   10.5440 C.2   165  ARG165      0.2260
     81  O        -42.8530   74.9400   10.1870 O.2   165  ARG165     -0.2867
     82  CB       -42.1770   78.0640    9.8390 C.3   165  ARG165      0.0307
     83  CG       -42.6620   79.4640   10.0890 C.3   165  ARG165      0.0489
     84  CD       -42.3920   80.3090    8.8630 C.3   165  ARG165      0.2205
     85  NE       -42.9750   81.6380    8.9820 N.pl3 165  ARG165     -0.0865
     86  CZ       -42.2950   82.7770    8.9380 C.cat 165  ARG165      0.5346
     87  NH1      -40.9750   82.7840    8.7720 N.pl3 165  ARG165      0.1354
     88  NH2      -42.9440   83.9220    9.0560 N.pl3 165  ARG165      0.1354
@<TRIPOS>BOND
     1    46    47    2
     2    46    45    1
     3    42    41    1
     4    48    45    1
     5    48    49    1
     6    41    43    1
     7    41    38    1
     8    45    44    1
     9    44    39   am
    10    51    49   ar
    11    51    53   ar
    12    49    50   ar
    13    39    38    1
    14    39    40    2
    15    38    37    1
    16    53    54   ar
    17    50    52   ar
    18    37    35   am
    19    17    16    1
    20    54    52   ar
    21    54    55    1
    22    35    36    2
    23    35    34    1
    24    16    15   ar
    25    16    14   ar
    26    77    75   ar
    27    33    34    1
    28    15    13   ar
    29    14    12   ar
    30    75    76   ar
    31    75    74    1
    32    13    11   ar
    33    74    73    1
    34    12    11   ar
    35    87    86    1
    36    84    85    1
    37    84    83    1
    38    86    85    2
    39    86    88    1
    40    11    10    1
    41    73    70    1
    42    62    60    1
    43    63    61    1
    44    31    30    1
    45    82    83    1
    46    82    79    1
    47    27    28    2
    48    27    26    1
    49    81    80    2
    50    70    71    1
    51    70    69    1
    52    29    30    1
    53    29    26    1
    54    30    32    1
    55    60    61    1
    56    60    57    1
    57    80    79    1
    58    72    71    2
    59    10     7    1
    60    26    25    1
    61    79    78    1
    62    69    66   am
    63    58    59    2
    64    58    57    1
    65     7     6    1
    66     7     8    1
    67    57    56    1
    68    21    20    2
    69     6     3   am
    70    67    66    2
    71    66    65    1
    72     1     2    1
    73    68    65    1
    74     3     4    2
    75     3     2    1
    76     5     2    1
    77    18     8   am
    78    18    19    1
    79     8     9    2
    80    20    19    1
    81    65    64    1
    82    22    19    1
    83    22    24    1
    84    22    23    1
