@<TRIPOS>MOLECULE
tmp/5z3jA00.pdb
 97 92 0 0 0
SMALL
GASTEIGER

@<TRIPOS>ATOM
      1  N        -45.7650   85.8300   12.5660 N.3    70  ALA70      -0.1231
      2  CA       -44.4980   85.5020   13.2140 C.3    70  ALA70       0.1694
      3  C        -43.3790   86.4490   12.8020 C.2    70  ALA70       0.2592
      4  O        -42.1950   86.1250   12.9580 O.2    70  ALA70      -0.2718
      5  CB       -44.0830   84.0560   12.9280 C.3    70  ALA70       0.0304
      6  N        -43.7230   87.6260   12.2920 N.am   71  TYR71      -0.1962
      7  CA       -42.7200   88.5850   11.8640 C.3    71  TYR71       0.1771
      8  C        -42.1320   89.3270   13.0530 C.2    71  TYR71       0.2619
      9  O        -42.8470   89.7160   13.9810 O.2    71  TYR71      -0.2715
     10  CB       -43.3210   89.5960   10.8890 C.3    71  TYR71       0.0574
     11  CG       -43.1910   89.1810    9.4490 C.ar   71  TYR71      -0.0198
     12  CD1      -43.7260   87.9800    8.9980 C.ar   71  TYR71      -0.0009
     13  CD2      -42.5250   89.9860    8.5360 C.ar   71  TYR71      -0.0009
     14  CE1      -43.5990   87.5950    7.6750 C.ar   71  TYR71       0.0417
     15  CE2      -42.3930   89.6110    7.2180 C.ar   71  TYR71       0.0417
     16  CZ       -42.9310   88.4180    6.7900 C.ar   71  TYR71       0.1957
     17  OH       -42.7960   88.0490    5.4700 O.3    71  TYR71      -0.2866
     18  N        -40.8160   89.5060   13.0200 N.am   72  VAL72      -0.1977
     19  CA       -40.1620   90.4680   13.8960 C.3    72  VAL72       0.1596
     20  C        -40.4570   91.8580   13.3530 C.2    72  VAL72       0.2287
     21  O        -40.0690   92.1970   12.2280 O.2    72  VAL72      -0.2864
     22  CB       -38.6530   90.2100   13.9750 C.3    72  VAL72       0.0276
     23  CG1      -37.9900   91.2420   14.8760 C.3    72  VAL72       0.0022
     24  CG2      -38.3760   88.7970   14.4740 C.3    72  VAL72       0.0022
     25  N        -39.5230   98.2170   12.3520 N.3    84  LEU84      -0.1245
     26  CA       -39.2880   98.0780   10.9220 C.3    84  LEU84       0.1561
     27  C        -40.1470   99.0790   10.1590 C.2    84  LEU84       0.2260
     28  O        -41.2060   99.5090   10.6260 O.2    84  LEU84      -0.2867
     29  CB       -39.5910   96.6510   10.4510 C.3    84  LEU84       0.0270
     30  CG       -38.4860   95.5950   10.6200 C.3    84  LEU84       0.0019
     31  CD1      -37.2300   95.9640    9.8400 C.3    84  LEU84       0.0001
     32  CD2      -38.1440   95.3790   12.0880 C.3    84  LEU84       0.0001
     33  N        -39.0020   95.2430    6.6920 N.3   108  GLY108     -0.1210
     34  CA       -38.6730   93.9840    7.3250 C.3   108  GLY108      0.1956
     35  C        -38.5800   92.7920    6.4010 C.2   108  GLY108      0.2613
     36  O        -38.5040   91.6600    6.8830 O.2   108  GLY108     -0.2717
     37  N        -38.5760   93.0010    5.0910 N.am  109  THR109     -0.1938
     38  CA       -38.5120   91.8990    4.1460 C.3   109  THR109      0.2028
     39  C        -37.0650   91.4830    3.9080 C.2   109  THR109      0.2642
     40  O        -36.1330   92.2740    4.0600 O.2   109  THR109     -0.2714
     41  CB       -39.1460   92.2970    2.8150 C.3   109  THR109      0.1808
     42  OG1      -38.3610   93.3330    2.2110 O.3   109  THR109     -0.2208
     43  CG2      -40.5650   92.8030    3.0220 C.3   109  THR109      0.0379
     44  N        -36.8810   90.2220    3.5100 N.am  110  TYR110     -0.1973
     45  CA       -35.5450   89.7890    3.1140 C.3   110  TYR110      0.1639
     46  C        -35.0210   90.6440    1.9710 C.2   110  TYR110      0.2290
     47  O        -33.8330   90.9820    1.9320 O.2   110  TYR110     -0.2864
     48  CB       -35.5550   88.3140    2.7130 C.3   110  TYR110      0.0560
     49  CG       -35.7160   87.3500    3.8680 C.ar  110  TYR110     -0.0198
     50  CD1      -35.0240   87.5330    5.0600 C.ar  110  TYR110     -0.0009
     51  CD2      -36.5620   86.2580    3.7610 C.ar  110  TYR110     -0.0009
     52  CE1      -35.1710   86.6520    6.1090 C.ar  110  TYR110      0.0417
     53  CE2      -36.7150   85.3700    4.8050 C.ar  110  TYR110      0.0417
     54  CZ       -36.0150   85.5720    5.9760 C.ar  110  TYR110      0.1957
     55  OH       -36.1700   84.6890    7.0170 O.3   110  TYR110     -0.2866
     56  N        -34.2000   86.9120   12.6580 N.3   156  ILE156     -0.1245
     57  CA       -35.4130   86.4550   11.9860 C.3   156  ILE156      0.1561
     58  C        -35.3370   84.9610   11.6950 C.2   156  ILE156      0.2260
     59  O        -36.2970   84.2160   11.9160 O.2   156  ILE156     -0.2867
     60  CB       -35.6430   87.2600   10.6950 C.3   156  ILE156      0.0252
     61  CG1      -36.0620   88.6920   11.0250 C.3   156  ILE156      0.0019
     62  CG2      -36.6850   86.5670    9.8300 C.3   156  ILE156      0.0019
     63  CD1      -36.0130   89.6320    9.8340 C.3   156  ILE156      0.0001
     64  N        -37.9390   83.3810   14.0510 N.3   160  ALA160     -0.1231
     65  CA       -39.1990   83.2470   13.3200 C.3   160  ALA160      0.1694
     66  C        -39.1870   82.0330   12.3940 C.2   160  ALA160      0.2591
     67  O        -40.0920   81.1910   12.4510 O.2   160  ALA160     -0.2718
     68  CB       -39.4850   84.5270   12.5310 C.3   160  ALA160      0.0304
     69  N        -38.1790   81.9260   11.5220 N.am  161  GLU161     -0.1979
     70  CA       -38.1490   80.8050   10.5880 C.3   161  GLU161      0.1602
     71  C        -38.0120   79.4830   11.3310 C.2   161  GLU161      0.2287
     72  O        -38.6130   78.4770   10.9390 O.2   161  GLU161     -0.2864
     73  CB       -37.0110   80.9720    9.5800 C.3   161  GLU161      0.0415
     74  CG       -37.0840   82.2490    8.7420 C.3   161  GLU161      0.1163
     75  CD       -38.2180   82.2410    7.7280 C.2   161  GLU161      0.3649
     76  OE1      -39.1170   81.3750    7.8180 O.co2 161  GLU161     -0.2457
     77  OE2      -38.2040   83.1140    6.8320 O.co2 161  GLU161     -0.2457
     78  N        -41.2980   78.4160   12.4520 N.3   164  ARG164     -0.1245
     79  CA       -42.1720   77.9460   11.3800 C.3   164  ARG164      0.1563
     80  C        -41.8080   76.5420   10.9160 C.2   164  ARG164      0.2260
     81  O        -42.6930   75.7480   10.5860 O.2   164  ARG164     -0.2867
     82  CB       -42.0990   78.8960   10.1910 C.3   164  ARG164      0.0307
     83  CG       -42.6480   80.2710   10.4400 C.3   164  ARG164      0.0489
     84  CD       -42.2320   81.1800    9.3150 C.3   164  ARG164      0.2205
     85  NE       -42.7520   82.5330    9.4740 N.pl3 164  ARG164     -0.0865
     86  CZ       -42.1190   83.6340    9.0900 C.cat 164  ARG164      0.5346
     87  NH1      -40.9170   83.5570    8.5320 N.pl3 164  ARG164      0.1354
     88  NH2      -42.6780   84.8170    9.2850 N.pl3 164  ARG164      0.1354
     89  N        -38.1150   79.0770    3.4950 N.3   192  GLU192     -0.1245
     90  CA       -38.3810   80.4700    3.8360 C.3   192  GLU192      0.1567
     91  C        -39.1380   81.1740    2.7190 C.2   192  GLU192      0.2260
     92  O        -40.0610   81.9540    2.9830 O.2   192  GLU192     -0.2867
     93  CB       -37.0690   81.1920    4.1280 C.3   192  GLU192      0.0388
     94  CG       -36.2990   80.6230    5.3030 C.3   192  GLU192      0.1160
     95  CD       -34.9600   81.3020    5.4880 C.2   192  GLU192      0.3649
     96  OE1      -34.5810   82.0960    4.6020 O.co2 192  GLU192     -0.2457
     97  OE2      -34.2950   81.0520    6.5140 O.co2 192  GLU192     -0.2457
@<TRIPOS>BOND
     1    47    46    2
     2    46    45    1
     3    42    41    1
     4    48    45    1
     5    48    49    1
     6    91    92    2
     7    91    90    1
     8    41    43    1
     9    41    38    1
    10    45    44    1
    11    89    90    1
    12    44    39   am
    13    51    49   ar
    14    51    53   ar
    15    90    93    1
    16    49    50   ar
    17    39    40    2
    18    39    38    1
    19    93    94    1
    20    38    37    1
    21    96    95   ar
    22    53    54   ar
    23    50    52   ar
    24    37    35   am
    25    94    95    1
    26    17    16    1
    27    95    97   ar
    28    54    52   ar
    29    54    55    1
    30    35    36    2
    31    35    34    1
    32    33    34    1
    33    16    15   ar
    34    16    14   ar
    35    77    75   ar
    36    15    13   ar
    37    14    12   ar
    38    75    76   ar
    39    75    74    1
    40    87    86    1
    41    13    11   ar
    42    74    73    1
    43    12    11   ar
    44    86    88    1
    45    86    85    2
    46    84    85    1
    47    84    83    1
    48    11    10    1
    49    73    70    1
    50    62    60    1
    51    63    61    1
    52    31    30    1
    53    27    28    2
    54    27    26    1
    55    82    83    1
    56    82    79    1
    57    29    30    1
    58    29    26    1
    59    81    80    2
    60    70    71    1
    61    70    69    1
    62    30    32    1
    63    60    61    1
    64    60    57    1
    65    10     7    1
    66    80    79    1
    67    26    25    1
    68    72    71    2
    69    79    78    1
    70    69    66   am
    71    58    59    2
    72    58    57    1
    73     7     6    1
    74     7     8    1
    75    57    56    1
    76    21    20    2
    77     6     3   am
    78    66    67    2
    79    66    65    1
    80    68    65    1
    81     1     2    1
    82     3     4    2
    83     3     2    1
    84     5     2    1
    85    18     8   am
    86    18    19    1
    87     8     9    2
    88    65    64    1
    89    20    19    1
    90    19    22    1
    91    22    24    1
    92    22    23    1
