@<TRIPOS>MOLECULE
tmp/5z3mA00.pdb
 84 81 0 0 0
SMALL
GASTEIGER

@<TRIPOS>ATOM
      1  N        -35.2840    7.0210    9.8530 N.3     8  CYS8       -0.1221
      2  CA       -36.3290    6.8270    8.8490 C.3     8  CYS8        0.1808
      3  C        -37.6130    7.4800    9.3380 C.2     8  CYS8        0.2602
      4  O        -37.5900    8.2500   10.3010 O.2     8  CYS8       -0.2717
      5  CB       -36.5520    5.3420    8.5480 C.3     8  CYS8        0.0970
      6  SG       -37.1350    4.3710    9.9520 S.3     8  CYS8       -0.0800
      7  N        -38.7280    7.1680    8.6840 N.am    9  THR9       -0.1939
      8  CA       -40.0050    7.7650    9.0580 C.3     9  THR9        0.2028
      9  C        -40.3890    7.3780   10.4850 C.2     9  THR9        0.2642
     10  O        -40.5210    8.2450   11.3510 O.2     9  THR9       -0.2714
     11  CB       -41.1470    7.3580    8.0950 C.3     9  THR9        0.1808
     12  OG1      -40.7730    7.6470    6.7420 O.3     9  THR9       -0.2208
     13  CG2      -42.4230    8.1140    8.4290 C.3     9  THR9        0.0379
     14  N        -40.5320    6.0810   10.7450 N.am   10  GLY10      -0.1954
     15  CA       -41.0890    5.6460   12.0140 C.3    10  GLY10       0.1869
     16  C        -40.1630    4.9380   12.9800 C.2    10  GLY10       0.2309
     17  O        -40.5520    4.6810   14.1250 O.2    10  GLY10      -0.2863
     18  N        -39.2190    1.9620   12.4270 N.3    12  LEU12      -0.1231
     19  CA       -39.7840    0.6270   12.5000 C.3    12  LEU12       0.1693
     20  C        -38.9710   -0.3550   11.6650 C.2    12  LEU12       0.2592
     21  O        -38.5700   -1.4140   12.1500 O.2    12  LEU12      -0.2718
     22  CB       -41.2480    0.6540   12.0530 C.3    12  LEU12       0.0284
     23  CG       -42.1110    1.6220   12.8660 C.3    12  LEU12       0.0019
     24  CD1      -43.5770    1.5430   12.4720 C.3    12  LEU12       0.0001
     25  CD2      -41.9420    1.3560   14.3520 C.3    12  LEU12       0.0001
     26  N        -38.7010    0.0210   10.4210 N.am   13  CYS13      -0.1956
     27  CA       -38.0660   -0.8790    9.4670 C.3    13  CYS13       0.1843
     28  C        -36.6010   -0.5490    9.1990 C.2    13  CYS13       0.2625
     29  O        -35.7060   -1.1930    9.7330 O.2    13  CYS13      -0.2714
     30  CB       -38.8410   -0.8680    8.1460 C.3    13  CYS13       0.0997
     31  SG       -40.5870   -1.3240    8.2860 S.3    13  CYS13      -0.0797
     32  N        -36.3640    0.4720    8.3830 N.am   14  ARG14      -0.1977
     33  CA       -35.0530    0.6790    7.7790 C.3    14  ARG14       0.1597
     34  C        -33.9460    1.1330    8.7230 C.2    14  ARG14       0.2287
     35  O        -32.8200    0.6570    8.6100 O.2    14  ARG14      -0.2864
     36  CB       -35.1830    1.6800    6.6290 C.3    14  ARG14       0.0334
     37  CG       -36.4040    1.4330    5.7720 C.3    14  ARG14       0.0492
     38  CD       -36.4840    2.4130    4.6320 C.3    14  ARG14       0.2205
     39  NE       -37.7980    3.0400    4.5320 N.pl3  14  ARG14      -0.0865
     40  CZ       -38.0220    4.3260    4.7820 C.cat  14  ARG14       0.5346
     41  NH1      -37.0170    5.1110    5.1340 N.pl3  14  ARG14       0.1354
     42  NH2      -39.2420    4.8310    4.6710 N.pl3  14  ARG14       0.1354
     43  N        -41.2270   10.5530   12.6370 N.3    41  LEU41      -0.1245
     44  CA       -42.6230   10.4990   13.0590 C.3    41  LEU41       0.1561
     45  C        -42.7520    9.6730   14.3380 C.2    41  LEU41       0.2260
     46  O        -42.1280    8.6190   14.4660 O.2    41  LEU41      -0.2867
     47  CB       -43.5060    9.8960   11.9550 C.3    41  LEU41       0.0270
     48  CG       -45.0250   10.0170   12.1390 C.3    41  LEU41       0.0019
     49  CD1      -45.5160   11.3720   11.6550 C.3    41  LEU41       0.0001
     50  CD2      -45.7980    8.8840   11.4550 C.3    41  LEU41       0.0001
     51  N        -44.5010    7.1390   16.8520 N.3    43  THR43      -0.1218
     52  CA       -45.4310    6.0160   16.7360 C.3    43  THR43       0.1862
     53  C        -45.8990    5.5300   18.1010 C.2    43  THR43       0.2287
     54  O        -45.2790    5.8260   19.1220 O.2    43  THR43      -0.2866
     55  CB       -44.8020    4.8300   15.9790 C.3    43  THR43       0.1770
     56  OG1      -43.6060    4.4100   16.6440 O.3    43  THR43      -0.2211
     57  CG2      -44.4760    5.2180   14.5470 C.3    43  THR43       0.0375
     58  N        -39.3170    2.3000    0.7450 N.3   121  ASP121     -0.1225
     59  CA       -40.0960    2.1050    1.9670 C.3   121  ASP121      0.1790
     60  C        -40.7600    0.7210    2.0620 C.2   121  ASP121      0.2440
     61  O        -41.8200    0.4930    1.4790 O.2   121  ASP121     -0.2733
     62  CB       -41.1550    3.2100    2.0610 C.3   121  ASP121      0.1423
     63  CG       -41.8560    3.2540    3.4130 C.2   121  ASP121      0.3668
     64  OD1      -41.2660    2.8220    4.4300 O.co2 121  ASP121     -0.2456
     65  OD2      -43.0030    3.7420    3.4530 O.co2 121  ASP121     -0.2456
     66  N        -40.1370   -0.2010    2.8180 N.am  122  PRO122     -0.2718
     67  CA       -40.6090   -1.5770    3.0230 C.3   122  PRO122      0.1535
     68  C        -41.9260   -1.7330    3.7940 C.2   122  PRO122      0.2598
     69  O        -42.4830   -2.8280    3.7390 O.2   122  PRO122     -0.2715
     70  CB       -39.4600   -2.2250    3.8190 C.3   122  PRO122      0.0310
     71  CG       -38.6650   -1.0840    4.3800 C.3   122  PRO122      0.0237
     72  CD       -38.7810   -0.0060    3.3580 C.3   122  PRO122      0.0939
     73  N        -42.4080   -0.6920    4.4740 N.am  123  TYR123     -0.1974
     74  CA       -43.5390   -0.8290    5.4030 C.3   123  TYR123      0.1639
     75  C        -44.7330   -1.5820    4.8190 C.2   123  TYR123      0.2290
     76  O        -45.2800   -1.1860    3.7900 O.2   123  TYR123     -0.2864
     77  CB       -44.0150    0.5430    5.8890 C.3   123  TYR123      0.0560
     78  CG       -45.0850    0.4560    6.9660 C.ar  123  TYR123     -0.0198
     79  CD1      -44.7610    0.0640    8.2580 C.ar  123  TYR123     -0.0009
     80  CD2      -46.4150    0.7560    6.6890 C.ar  123  TYR123     -0.0009
     81  CE1      -45.7260   -0.0280    9.2430 C.ar  123  TYR123      0.0417
     82  CE2      -47.3890    0.6690    7.6720 C.ar  123  TYR123      0.0417
     83  CZ       -47.0370    0.2760    8.9470 C.ar  123  TYR123      0.1957
     84  OH       -47.9960    0.1860    9.9310 O.3   123  TYR123     -0.2866
@<TRIPOS>BOND
     1    58    59    1
     2    61    60    2
     3    59    62    1
     4    59    60    1
     5    62    63    1
     6    60    66   am
     7    66    67    1
     8    66    72    1
     9    67    68    1
    10    67    70    1
    11    72    71    1
    12    63    65   ar
    13    63    64   ar
    14    69    68    2
    15    76    75    2
    16    68    73   am
    17    70    71    1
    18    73    74    1
    19    39    38    1
    20    39    40    2
    21    38    37    1
    22    42    40    1
    23    40    41    1
    24    75    74    1
    25    74    77    1
    26    37    36    1
    27    77    78    1
    28    36    33    1
    29    80    78   ar
    30    80    82   ar
    31    12    11    1
    32    78    79   ar
    33    82    83   ar
    34    33    32    1
    35    33    34    1
    36    11    13    1
    37    11     8    1
    38    30    31    1
    39    30    27    1
    40    79    81   ar
    41    32    28   am
    42     5     2    1
    43     5     6    1
    44    35    34    2
    45     7     8    1
    46     7     3   am
    47     2     3    1
    48     2     1    1
    49    83    81   ar
    50    83    84    1
    51     8     9    1
    52    28    27    1
    53    28    29    2
    54     3     4    2
    55    27    26    1
    56    26    20   am
    57     9    14   am
    58     9    10    2
    59    14    15    1
    60    50    48    1
    61    49    48    1
    62    20    21    2
    63    20    19    1
    64    47    48    1
    65    47    44    1
    66    15    16    1
    67    22    19    1
    68    22    23    1
    69    18    19    1
    70    24    23    1
    71    43    44    1
    72    23    25    1
    73    16    17    2
    74    44    45    1
    75    45    46    2
    76    57    55    1
    77    55    56    1
    78    55    52    1
    79    52    51    1
    80    52    53    1
    81    53    54    2
