@<TRIPOS>MOLECULE
tmp/5z46B00.pdb
 211 195 0 0 0
SMALL
GASTEIGER

@<TRIPOS>ATOM
      1  N         39.9250    7.2340  -11.0450 N.3    41  SER41      -0.1217
      2  CA        39.4660    6.3210  -10.0090 C.3    41  SER41       0.1889
      3  C         39.6200    4.8800  -10.4860 C.2    41  SER41       0.2288
      4  O         39.2500    4.5380  -11.6140 O.2    41  SER41      -0.2866
      5  CB        38.0090    6.5980   -9.6580 C.3    41  SER41       0.2089
      6  OG        37.5140    5.5280   -8.8780 O.3    41  SER41      -0.2183
      7  N         39.6750    0.6410   -9.0170 N.3    43  MET43      -0.1245
      8  CA        39.3350   -0.2740   -7.9370 C.3    43  MET43       0.1570
      9  C         39.6950   -1.6910   -8.3280 C.2    43  MET43       0.2261
     10  O         39.5590   -2.0710   -9.4940 O.2    43  MET43      -0.2867
     11  CB        37.8390   -0.1940   -7.5860 C.3    43  MET43       0.0387
     12  CG        37.4430    1.2140   -7.1680 C.3    43  MET43       0.0595
     13  SD        35.9560    1.2240   -6.1910 S.3    43  MET43      -0.1393
     14  CE        36.5490    0.7540   -4.5770 C.3    43  MET43       0.0692
     15  N         38.7240   -5.6000   -7.4110 N.3    45  ARG45      -0.1245
     16  CA        37.6230   -6.3440   -6.8240 C.3    45  ARG45       0.1563
     17  C         37.9710   -7.8200   -6.6880 C.2    45  ARG45       0.2260
     18  O         38.6510   -8.3890   -7.5500 O.2    45  ARG45      -0.2867
     19  CB        36.3610   -6.2050   -7.6750 C.3    45  ARG45       0.0307
     20  CG        35.3650   -7.3360   -7.4680 C.3    45  ARG45       0.0489
     21  CD        34.1140   -7.1480   -8.3040 C.3    45  ARG45       0.2205
     22  NE        33.3740   -5.9660   -7.8930 N.pl3  45  ARG45      -0.0865
     23  CZ        32.2280   -5.5790   -8.4370 C.cat  45  ARG45       0.5346
     24  NH1       31.6860   -6.2850   -9.4250 N.pl3  45  ARG45       0.1354
     25  NH2       31.6290   -4.4830   -7.9980 N.pl3  45  ARG45       0.1354
     26  N         32.2710  -16.2480   -5.7400 N.3    49  LYS49      -0.1245
     27  CA        31.3200  -17.1340   -6.4020 C.3    49  LYS49       0.1561
     28  C         31.7130  -18.6010   -6.2830 C.2    49  LYS49       0.2260
     29  O         30.8830  -19.4700   -6.5690 O.2    49  LYS49      -0.2867
     30  CB        31.1720  -16.7370   -7.8710 C.3    49  LYS49       0.0271
     31  CG        30.8560  -15.2690   -8.0520 C.3    49  LYS49       0.0035
     32  CD        30.3650  -14.9480   -9.4550 C.3    49  LYS49       0.0206
     33  CE        31.5020  -14.8990  -10.4580 C.3    49  LYS49       0.1093
     34  NZ        31.6520  -13.5530  -11.0800 N.3    49  LYS49      -0.1314
     35  N         38.8340   -2.2960  -12.4380 N.3    59  ARG59      -0.1245
     36  CA        37.9340   -1.4100  -13.1560 C.3    59  ARG59       0.1563
     37  C         38.3250    0.0330  -12.8920 C.2    59  ARG59       0.2260
     38  O         38.8820    0.3590  -11.8400 O.2    59  ARG59      -0.2867
     39  CB        36.4930   -1.6260  -12.7140 C.3    59  ARG59       0.0307
     40  CG        36.3830   -1.5820  -11.2220 C.3    59  ARG59       0.0489
     41  CD        36.4540   -3.0100  -10.6430 C.3    59  ARG59       0.2205
     42  NE        35.2660   -3.7450  -11.0430 N.pl3  59  ARG59      -0.0865
     43  CZ        34.0490   -3.4020  -10.6330 C.cat  59  ARG59       0.5346
     44  NH1       33.9200   -2.3640   -9.8200 N.pl3  59  ARG59       0.1354
     45  NH2       32.9780   -4.0770  -11.0310 N.pl3  59  ARG59       0.1354
     46  N         37.0020    4.3500  -13.7400 N.3    61  HIS61      -0.1241
     47  CA        35.8730    5.2520  -13.8590 C.3    61  HIS61       0.1621
     48  C         36.4580    6.5990  -14.2860 C.2    61  HIS61       0.2264
     49  O         37.4050    7.0820  -13.6620 O.2    61  HIS61      -0.2867
     50  CB        35.1670    5.2890  -12.4930 C.3    61  HIS61       0.0745
     51  CG        34.0760    6.2960  -12.3490 C.ar   61  HIS61       0.0817
     52  ND1       32.7680    6.0260  -12.6840 N.ar   61  HIS61      -0.2268
     53  CD2       34.0730    7.5330  -11.7970 C.ar   61  HIS61       0.1154
     54  CE1       32.0140    7.0720  -12.3980 C.ar   61  HIS61       0.1986
     55  NE2       32.7820    8.0010  -11.8600 N.ar   61  HIS61      -0.2212
     56  N         35.2170   -2.4220  -16.8710 N.3   107  ASP107     -0.1239
     57  CA        35.5140   -3.5040  -15.9430 C.3   107  ASP107      0.1674
     58  C         36.3120   -4.5840  -16.6720 C.2   107  ASP107      0.2266
     59  O         36.0400   -4.8760  -17.8390 O.2   107  ASP107     -0.2867
     60  CB        34.2130   -4.0870  -15.3790 C.3   107  ASP107      0.1410
     61  CG        34.4380   -5.0090  -14.1950 C.2   107  ASP107      0.3668
     62  OD1       35.5400   -4.9680  -13.6090 O.co2 107  ASP107     -0.2456
     63  OD2       33.5060   -5.7720  -13.8450 O.co2 107  ASP107     -0.2456
     64  N         32.9590   -5.3790  -19.0810 N.3   116  LYS116     -0.1245
     65  CA        31.7950   -4.5080  -19.0460 C.3   116  LYS116      0.1561
     66  C         32.2280   -3.0830  -19.3150 C.2   116  LYS116      0.2260
     67  O         33.3410   -2.6790  -18.9610 O.2   116  LYS116     -0.2867
     68  CB        31.0730   -4.4840  -17.6990 C.3   116  LYS116      0.0271
     69  CG        30.8140   -5.7900  -17.0050 C.3   116  LYS116      0.0035
     70  CD        29.9950   -5.5050  -15.7340 C.3   116  LYS116      0.0206
     71  CE        29.7680   -6.7730  -14.9220 C.3   116  LYS116      0.1093
     72  NZ        28.3240   -7.1660  -14.8810 N.3   116  LYS116     -0.1314
     73  N         30.5250    0.7830  -18.4580 N.3   118  TRP118     -0.1241
     74  CA        29.4960    1.5340  -17.7470 C.3   118  TRP118      0.1605
     75  C         29.3240    2.9210  -18.3490 C.2   118  TRP118      0.2264
     76  O         30.2790    3.5140  -18.8600 O.2   118  TRP118     -0.2867
     77  CB        29.8400    1.7490  -16.2770 C.3   118  TRP118      0.0550
     78  CG        29.8940    0.5810  -15.4050 C.ar  118  TRP118      0.0003
     79  CD1       28.8380   -0.1230  -14.8970 C.ar  118  TRP118      0.0946
     80  CD2       31.0770    0.0030  -14.8460 C.ar  118  TRP118      0.0152
     81  NE1       29.3000   -1.1390  -14.0820 N.ar  118  TRP118     -0.2442
     82  CE2       30.6700   -1.0790  -14.0340 C.ar  118  TRP118      0.0810
     83  CE3       32.4430    0.2800  -14.9730 C.ar  118  TRP118      0.0012
     84  CZ2       31.5830   -1.8760  -13.3460 C.ar  118  TRP118      0.0191
     85  CZ3       33.3490   -0.5140  -14.2920 C.ar  118  TRP118      0.0001
     86  CH2       32.9150   -1.5800  -13.4890 C.ar  118  TRP118      0.0015
     87  N         23.1310   -4.1880  -16.5930 N.3   167  ASN167     -0.1240
     88  CA        22.8080   -3.7690  -15.2370 C.3   167  ASN167      0.1653
     89  C         22.2390   -2.3610  -15.2910 C.2   167  ASN167      0.2266
     90  O         22.8400   -1.4770  -15.9070 O.2   167  ASN167     -0.2867
     91  CB        24.0430   -3.7940  -14.3370 C.3   167  ASN167      0.1155
     92  CG        24.6930   -5.1560  -14.2790 C.2   167  ASN167      0.2627
     93  OD1       24.0340   -6.1750  -14.4490 O.2   167  ASN167     -0.2716
     94  ND2       25.9890   -5.1790  -14.0230 N.am  167  ASN167     -0.0877
     95  N         21.2360    0.7540  -12.7580 N.3   169  TYR169     -0.1241
     96  CA        21.5010    1.2330  -11.4050 C.3   169  TYR169      0.1605
     97  C         20.4610    2.2870  -11.0340 C.2   169  TYR169      0.2264
     98  O         20.1770    3.2000  -11.8190 O.2   169  TYR169     -0.2867
     99  CB        22.9270    1.8080  -11.2810 C.3   169  TYR169      0.0534
    100  CG        24.0130    0.7720  -11.5880 C.ar  169  TYR169     -0.0201
    101  CD1       24.2790    0.3860  -12.9000 C.ar  169  TYR169     -0.0009
    102  CD2       24.7600    0.1850  -10.5720 C.ar  169  TYR169     -0.0009
    103  CE1       25.2620   -0.5530  -13.1970 C.ar  169  TYR169      0.0417
    104  CE2       25.7500   -0.7630  -10.8600 C.ar  169  TYR169      0.0417
    105  CZ        25.9870   -1.1290  -12.1740 C.ar  169  TYR169      0.1957
    106  OH        26.9540   -2.0690  -12.4840 O.3   169  TYR169     -0.2866
    107  N         23.1700    1.8110   -3.0100 N.3   208  GLU208     -0.1245
    108  CA        23.0810    1.6100   -4.4480 C.3   208  GLU208      0.1567
    109  C         22.4400    0.2500   -4.7090 C.2   208  GLU208      0.2260
    110  O         22.7770   -0.7380   -4.0530 O.2   208  GLU208     -0.2867
    111  CB        24.4630    1.7030   -5.1080 C.3   208  GLU208      0.0388
    112  CG        24.9070    3.1350   -5.4540 C.3   208  GLU208      0.1160
    113  CD        24.1940    4.2050   -4.6310 C.2   208  GLU208      0.3649
    114  OE1       24.4930    4.3410   -3.4260 O.co2 208  GLU208     -0.2457
    115  OE2       23.3220    4.9060   -5.1890 O.co2 208  GLU208     -0.2457
    116  N         21.3630   -2.3320   -8.0320 N.3   210  ALA210     -0.1245
    117  CA        21.4590   -2.6380   -9.4520 C.3   210  ALA210      0.1562
    118  C         20.6180   -3.8720   -9.7340 C.2   210  ALA210      0.2260
    119  O         20.5820   -4.8010   -8.9250 O.2   210  ALA210     -0.2867
    120  CB        22.8960   -2.8800   -9.8880 C.3   210  ALA210      0.0290
    121  N         19.9410   -6.8450  -12.7720 N.3   212  THR212     -0.1218
    122  CA        20.5440   -7.4350  -13.9580 C.3   212  THR212      0.1862
    123  C         19.4640   -8.0390  -14.8510 C.2   212  THR212      0.2287
    124  O         18.6670   -8.8670  -14.3930 O.2   212  THR212     -0.2866
    125  CB        21.5580   -8.5080  -13.5830 C.3   212  THR212      0.1770
    126  OG1       22.6160   -7.9140  -12.8230 O.3   212  THR212     -0.2211
    127  CG2       22.1360   -9.1430  -14.8360 C.3   212  THR212      0.0375
    128  N         19.3090  -11.0410  -11.5210 N.3   222  ARG222     -0.1245
    129  CA        20.1540  -10.8020  -10.3640 C.3   222  ARG222      0.1563
    130  C         19.8300   -9.4170   -9.8460 C.2   222  ARG222      0.2260
    131  O         19.3010   -8.5750  -10.5720 O.2   222  ARG222     -0.2867
    132  CB        21.6460  -10.8930  -10.7300 C.3   222  ARG222      0.0307
    133  CG        22.4810  -11.7710   -9.8370 C.3   222  ARG222      0.0489
    134  CD        23.8830  -11.9320  -10.4240 C.3   222  ARG222      0.2205
    135  NE        24.4540  -10.6530  -10.8530 N.pl3 222  ARG222     -0.0865
    136  CZ        24.8990  -10.4040  -12.0820 C.cat 222  ARG222      0.5346
    137  NH1       24.8640  -11.3520  -13.0180 N.pl3 222  ARG222      0.1354
    138  NH2       25.3950   -9.2080  -12.3720 N.pl3 222  ARG222      0.1354
    139  N         21.8520   -6.5290   -7.0060 N.3   224  CYS224     -0.1235
    140  CA        23.0100   -6.2890   -6.1570 C.3   224  CYS224      0.1677
    141  C         22.7810   -5.0340   -5.3300 C.2   224  CYS224      0.2270
    142  O         22.2070   -4.0530   -5.8150 O.2   224  CYS224     -0.2867
    143  CB        24.2980   -6.1500   -6.9790 C.3   224  CYS224      0.0956
    144  SG        25.8200   -6.0890   -5.9690 S.3   224  CYS224     -0.0801
    145  N         25.0710   -2.3010   -2.9830 N.3   226  TYR226     -0.1241
    146  CA        26.4430   -1.8670   -2.7060 C.3   226  TYR226      0.1605
    147  C         26.4600   -0.8730   -1.5550 C.2   226  TYR226      0.2264
    148  O         25.5790   -0.0130   -1.4550 O.2   226  TYR226     -0.2867
    149  CB        27.1060   -1.1890   -3.9040 C.3   226  TYR226      0.0534
    150  CG        26.9840   -1.9300   -5.1950 C.ar  226  TYR226     -0.0201
    151  CD1       27.9660   -2.8230   -5.6010 C.ar  226  TYR226     -0.0009
    152  CD2       25.8890   -1.7190   -6.0250 C.ar  226  TYR226     -0.0009
    153  CE1       27.8540   -3.4960   -6.7920 C.ar  226  TYR226      0.0417
    154  CE2       25.7660   -2.3850   -7.2150 C.ar  226  TYR226      0.0417
    155  CZ        26.7470   -3.2730   -7.5940 C.ar  226  TYR226      0.1957
    156  OH        26.6010   -3.9360   -8.7830 O.3   226  TYR226     -0.2866
    157  N         34.3050   -0.6180   -1.2450 N.3   261  ILE261     -0.1245
    158  CA        32.9060   -0.7990   -1.6320 C.3   261  ILE261      0.1561
    159  C         32.6100   -2.2870   -1.5480 C.2   261  ILE261      0.2260
    160  O         33.3180   -3.1000   -2.1560 O.2   261  ILE261     -0.2867
    161  CB        32.5980   -0.2870   -3.0490 C.3   261  ILE261      0.0252
    162  CG1       33.0440    1.1630   -3.2600 C.3   261  ILE261      0.0019
    163  CG2       31.0890   -0.4350   -3.3350 C.3   261  ILE261      0.0019
    164  CD1       32.0710    2.1850   -2.7610 C.3   261  ILE261      0.0001
    165  N         26.3030  -14.0360   -3.7970 N.3   275  TYR275     -0.1241
    166  CA        27.7150  -14.0310   -3.4030 C.3   275  TYR275      0.1605
    167  C         28.0860  -12.5990   -3.0250 C.2   275  TYR275      0.2264
    168  O         27.2530  -11.6860   -3.0950 O.2   275  TYR275     -0.2867
    169  CB        28.6030  -14.5650   -4.5240 C.3   275  TYR275      0.0534
    170  CG        28.4710  -13.7680   -5.8010 C.ar  275  TYR275     -0.0201
    171  CD1       29.3420  -12.7190   -6.0800 C.ar  275  TYR275     -0.0009
    172  CD2       27.4630  -14.0510   -6.7240 C.ar  275  TYR275     -0.0009
    173  CE1       29.2250  -11.9780   -7.2450 C.ar  275  TYR275      0.0417
    174  CE2       27.3390  -13.3160   -7.8940 C.ar  275  TYR275      0.0417
    175  CZ        28.2220  -12.2770   -8.1470 C.ar  275  TYR275      0.1957
    176  OH        28.1090  -11.5360   -9.3030 O.3   275  TYR275     -0.2866
    177  N         31.0340   -9.2790   -3.1860 N.3   277  LYS277     -0.1245
    178  CA        32.0570   -8.5740   -3.9460 C.3   277  LYS277      0.1561
    179  C         32.7220   -7.5420   -3.0420 C.2   277  LYS277      0.2260
    180  O         32.0300   -6.8060   -2.3290 O.2   277  LYS277     -0.2867
    181  CB        31.4490   -7.8290   -5.1480 C.3   277  LYS277      0.0271
    182  CG        30.4690   -8.6170   -6.0010 C.3   277  LYS277      0.0035
    183  CD        29.5300   -7.6620   -6.7270 C.3   277  LYS277      0.0206
    184  CE        28.3710   -8.3810   -7.3940 C.3   277  LYS277      0.1093
    185  NZ        27.3990   -7.4310   -8.0100 N.3   277  LYS277     -0.1314
    186  N         35.5500   -4.4320   -3.3460 N.3   279  ASP279     -0.1239
    187  CA        36.3970   -3.5440   -4.1440 C.3   279  ASP279      0.1674
    188  C         37.2340   -2.6720   -3.2120 C.2   279  ASP279      0.2266
    189  O         36.6840   -2.0430   -2.3030 O.2   279  ASP279     -0.2867
    190  CB        35.5540   -2.6290   -5.0440 C.3   279  ASP279      0.1410
    191  CG        34.7760   -3.3800   -6.1190 C.2   279  ASP279      0.3668
    192  OD1       34.9690   -3.0730   -7.3110 O.co2 279  ASP279     -0.2456
    193  OD2       33.9790   -4.2740   -5.7810 O.co2 279  ASP279     -0.2456
    194  N         38.2590    8.1930   -3.8400 N.3   286  THR286     -0.1218
    195  CA        37.0310    7.8660   -4.5690 C.3   286  THR286      0.1862
    196  C         35.8670    7.6040   -3.6200 C.2   286  THR286      0.2287
    197  O         34.7890    8.1940   -3.7680 O.2   286  THR286     -0.2866
    198  CB        37.2320    6.6470   -5.4770 C.3   286  THR286      0.1770
    199  OG1       38.1340    6.9790   -6.5390 O.3   286  THR286     -0.2211
    200  CG2       35.8910    6.1870   -6.0680 C.3   286  THR286      0.0375
    201  N         32.5010    9.7960   -2.7390 N.3   290  PHE290     -0.1241
    202  CA        31.2950    8.9870   -2.8840 C.3   290  PHE290      0.1605
    203  C         30.3750    9.1500   -1.6790 C.2   290  PHE290      0.2264
    204  O         29.1720    9.3950   -1.8260 O.2   290  PHE290     -0.2867
    205  CB        31.7030    7.5260   -3.0750 C.3   290  PHE290      0.0534
    206  CG        30.6240    6.6510   -3.6350 C.ar  290  PHE290     -0.0203
    207  CD1       30.5440    6.4170   -5.0000 C.ar  290  PHE290     -0.0042
    208  CD2       29.7180    6.0260   -2.7950 C.ar  290  PHE290     -0.0042
    209  CE1       29.5600    5.5920   -5.5240 C.ar  290  PHE290     -0.0003
    210  CE2       28.7230    5.2010   -3.3090 C.ar  290  PHE290     -0.0003
    211  CZ        28.6430    4.9870   -4.6750 C.ar  290  PHE290     -0.0000
@<TRIPOS>BOND
     1    66    65    1
     2    66    67    2
     3    64    65    1
     4    65    68    1
     5    76    75    2
     6    73    74    1
     7    75    74    1
     8    59    58    2
     9    74    77    1
    10    68    69    1
    11    69    70    1
    12    56    57    1
    13    58    57    1
    14    87    88    1
    15    77    78    1
    16    57    60    1
    17    90    89    2
    18    70    71    1
    19    78    79   ar
    20    78    80   ar
    21    60    61    1
    22    89    88    1
    23    88    91    1
    24    83    80   ar
    25    83    85   ar
    26    71    72    1
    27    79    81   ar
    28   123   124    2
    29   123   122    1
    30    80    82   ar
    31   127   125    1
    32    93    92    2
    33    91    92    1
    34    85    86   ar
    35    48    47    1
    36    48    49    2
    37    92    94   am
    38    61    63   ar
    39    61    62   ar
    40    81    82   ar
    41    82    84   ar
    42   122   125    1
    43   122   121    1
    44    47    46    1
    45    47    50    1
    46   125   126    1
    47    86    84   ar
    48   103   101   ar
    49   103   105   ar
    50    36    37    1
    51    36    39    1
    52    36    35    1
    53   137   136    1
    54   101   100   ar
    55    37    38    2
    56    95    96    1
    57    39    40    1
    58    52    54   ar
    59    52    51   ar
    60    50    51    1
    61   106   105    1
    62    54    55   ar
    63   138   136    1
    64    51    53   ar
    65   105   104   ar
    66   136   135    2
    67    55    53   ar
    68    98    97    2
    69     4     3    2
    70   100    99    1
    71   100   102   ar
    72   128   129    1
    73    96    99    1
    74    96    97    1
    75    40    41    1
    76    34    33    1
    77     1     2    1
    78    42    41    1
    79    42    43    2
    80    45    43    1
    81   104   102   ar
    82   135   134    1
    83   132   129    1
    84   132   133    1
    85    43    44    1
    86   131   130    2
    87     3     2    1
    88    33    32    1
    89   134   133    1
    90   129   130    1
    91     2     5    1
    92   120   117    1
    93   118   117    1
    94   118   119    2
    95     5     6    1
    96    10     9    2
    97    32    31    1
    98   117   116    1
    99    24    23    1
   100   176   175    1
   101     7     8    1
   102   156   155    1
   103    23    25    1
   104    23    22    2
   105     9     8    1
   106    21    22    1
   107    21    20    1
   108   175   174   ar
   109   175   173   ar
   110    31    30    1
   111   185   184    1
   112     8    11    1
   113   174   172   ar
   114    30    27    1
   115    19    20    1
   116    19    16    1
   117   155   154   ar
   118   155   153   ar
   119    11    12    1
   120    18    17    2
   121    15    16    1
   122   184   183    1
   123   192   191   ar
   124   173   171   ar
   125   154   152   ar
   126    12    13    1
   127   139   140    1
   128   143   140    1
   129   143   144    1
   130    16    17    1
   131   153   151   ar
   132   183   182    1
   133   172   170   ar
   134    29    28    2
   135   199   198    1
   136    27    28    1
   137    27    26    1
   138    13    14    1
   139   140   141    1
   140   191   193   ar
   141   191   190    1
   142   171   170   ar
   143   200   198    1
   144   152   150   ar
   145   182   181    1
   146   142   141    2
   147   170   169    1
   148   151   150   ar
   149   209   207   ar
   150   209   211   ar
   151   198   195    1
   152   112   111    1
   153   112   113    1
   154   150   149    1
   155   115   113   ar
   156   181   178    1
   157   111   108    1
   158   190   187    1
   159   207   206   ar
   160   109   108    1
   161   109   110    2
   162   211   210   ar
   163   113   114   ar
   164   195   194    1
   165   195   196    1
   166   169   166    1
   167   108   107    1
   168   187   186    1
   169   187   188    1
   170   178   177    1
   171   178   179    1
   172   149   146    1
   173   165   166    1
   174   197   196    2
   175   206   205    1
   176   206   208   ar
   177   166   167    1
   178   163   161    1
   179   210   208   ar
   180   162   161    1
   181   162   164    1
   182   188   189    2
   183   168   167    2
   184   205   202    1
   185   161   158    1
   186   179   180    2
   187   145   146    1
   188   202   201    1
   189   202   203    1
   190   146   147    1
   191   160   159    2
   192   204   203    2
   193   158   159    1
   194   158   157    1
   195   147   148    2
