@<TRIPOS>MOLECULE
tmp/5z46B01.pdb
 131 128 0 0 0
SMALL
GASTEIGER

@<TRIPOS>ATOM
      1  N         38.8340   -2.2960  -12.4380 N.3    59  ARG59      -0.1245
      2  CA        37.9340   -1.4100  -13.1560 C.3    59  ARG59       0.1563
      3  C         38.3250    0.0330  -12.8920 C.2    59  ARG59       0.2260
      4  O         38.8820    0.3590  -11.8400 O.2    59  ARG59      -0.2867
      5  CB        36.4930   -1.6260  -12.7140 C.3    59  ARG59       0.0307
      6  CG        36.3830   -1.5820  -11.2220 C.3    59  ARG59       0.0489
      7  CD        36.4540   -3.0100  -10.6430 C.3    59  ARG59       0.2205
      8  NE        35.2660   -3.7450  -11.0430 N.pl3  59  ARG59      -0.0865
      9  CZ        34.0490   -3.4020  -10.6330 C.cat  59  ARG59       0.5346
     10  NH1       33.9200   -2.3640   -9.8200 N.pl3  59  ARG59       0.1354
     11  NH2       32.9780   -4.0770  -11.0310 N.pl3  59  ARG59       0.1354
     12  N         37.0020    4.3500  -13.7400 N.3    61  HIS61      -0.1241
     13  CA        35.8730    5.2520  -13.8590 C.3    61  HIS61       0.1621
     14  C         36.4580    6.5990  -14.2860 C.2    61  HIS61       0.2264
     15  O         37.4050    7.0820  -13.6620 O.2    61  HIS61      -0.2867
     16  CB        35.1670    5.2890  -12.4930 C.3    61  HIS61       0.0745
     17  CG        34.0760    6.2960  -12.3490 C.ar   61  HIS61       0.0817
     18  ND1       32.7680    6.0260  -12.6840 N.ar   61  HIS61      -0.2268
     19  CD2       34.0730    7.5330  -11.7970 C.ar   61  HIS61       0.1154
     20  CE1       32.0140    7.0720  -12.3980 C.ar   61  HIS61       0.1986
     21  NE2       32.7820    8.0010  -11.8600 N.ar   61  HIS61      -0.2212
     22  N         32.0040    7.4670  -17.4130 N.3   104  ASP104     -0.1225
     23  CA        31.9910    6.1240  -17.9750 C.3   104  ASP104      0.1805
     24  C         33.1570    5.3530  -17.3820 C.2   104  ASP104      0.2598
     25  O         33.9860    5.9020  -16.6530 O.2   104  ASP104     -0.2718
     26  CB        32.0130    6.1370  -19.5160 C.3   104  ASP104      0.1424
     27  CG        33.2100    6.8960  -20.1040 C.2   104  ASP104      0.3668
     28  OD1       34.2400    7.0180  -19.4250 O.co2 104  ASP104     -0.2456
     29  OD2       33.1080    7.3620  -21.2590 O.co2 104  ASP104     -0.2456
     30  N         33.2040    4.0640  -17.6840 N.am  105  GLY105     -0.1957
     31  CA        34.2620    3.2420  -17.1380 C.3   105  GLY105      0.1869
     32  C         34.2450    1.8710  -17.7680 C.2   105  GLY105      0.2309
     33  O         33.3570    1.5300  -18.5560 O.2   105  GLY105     -0.2863
     34  N         30.5250    0.7830  -18.4580 N.3   118  TRP118     -0.1227
     35  CA        29.4960    1.5340  -17.7470 C.3   118  TRP118      0.1737
     36  C         29.3240    2.9210  -18.3490 C.2   118  TRP118      0.2595
     37  O         30.2790    3.5140  -18.8600 O.2   118  TRP118     -0.2718
     38  CB        29.8400    1.7490  -16.2770 C.3   118  TRP118      0.0564
     39  CG        29.8940    0.5810  -15.4050 C.ar  118  TRP118      0.0003
     40  CD1       28.8380   -0.1230  -14.8970 C.ar  118  TRP118      0.0946
     41  CD2       31.0770    0.0030  -14.8460 C.ar  118  TRP118      0.0152
     42  NE1       29.3000   -1.1390  -14.0820 N.ar  118  TRP118     -0.2442
     43  CE2       30.6700   -1.0790  -14.0340 C.ar  118  TRP118      0.0810
     44  CE3       32.4430    0.2800  -14.9730 C.ar  118  TRP118      0.0012
     45  CZ2       31.5830   -1.8760  -13.3460 C.ar  118  TRP118      0.0191
     46  CZ3       33.3490   -0.5140  -14.2920 C.ar  118  TRP118      0.0001
     47  CH2       32.9150   -1.5800  -13.4890 C.ar  118  TRP118      0.0015
     48  N         28.1040    3.4510  -18.2290 N.am  119  GLN119     -0.1965
     49  CA        27.7980    4.8410  -18.5500 C.3   119  GLN119      0.1733
     50  C         26.9240    5.3870  -17.4340 C.2   119  GLN119      0.2617
     51  O         25.9110    4.7670  -17.1110 O.2   119  GLN119     -0.2715
     52  CB        27.0440    4.9660  -19.8830 C.3   119  GLN119      0.0408
     53  CG        27.7250    4.3460  -21.0900 C.3   119  GLN119      0.0908
     54  CD        28.7790    5.2420  -21.7080 C.2   119  GLN119      0.2608
     55  OE1       28.5410    6.4240  -21.9540 O.2   119  GLN119     -0.2717
     56  NE2       29.9540    4.6790  -21.9660 N.am  119  GLN119     -0.0878
     57  N         27.3010    6.5270  -16.8490 N.am  120  SER120     -0.1950
     58  CA        26.4860    7.1970  -15.8410 C.3   120  SER120      0.1924
     59  C         25.8020    8.4160  -16.4490 C.2   120  SER120      0.2314
     60  O         26.4510    9.2360  -17.1160 O.2   120  SER120     -0.2863
     61  CB        27.3240    7.6460  -14.6450 C.3   120  SER120      0.2116
     62  OG        27.7580    6.5450  -13.8920 O.3   120  SER120     -0.2180
     63  N         20.0190    5.9530  -13.0990 N.3   155  TYR155     -0.1227
     64  CA        21.1660    6.8330  -13.3100 C.3   155  TYR155      0.1736
     65  C         22.3770    6.1810  -13.9790 C.2   155  TYR155      0.2595
     66  O         23.3220    6.9080  -14.3050 O.2   155  TYR155     -0.2718
     67  CB        21.6160    7.4770  -11.9840 C.3   155  TYR155      0.0548
     68  CG        22.3160    6.5330  -11.0300 C.ar  155  TYR155     -0.0200
     69  CD1       23.6920    6.3400  -11.0920 C.ar  155  TYR155     -0.0009
     70  CD2       21.5940    5.8230  -10.0790 C.ar  155  TYR155     -0.0009
     71  CE1       24.3210    5.4700  -10.2310 C.ar  155  TYR155      0.0417
     72  CE2       22.2130    4.9570   -9.2140 C.ar  155  TYR155      0.0417
     73  CZ        23.5740    4.7800   -9.2920 C.ar  155  TYR155      0.1957
     74  OH        24.1890    3.9140   -8.4240 O.3   155  TYR155     -0.2866
     75  N         22.4010    4.8640  -14.2030 N.am  156  ALA156     -0.1980
     76  CA        23.5770    4.3120  -14.8710 C.3   156  ALA156      0.1597
     77  C         23.2510    2.9680  -15.5080 C.2   156  ALA156      0.2287
     78  O         22.3010    2.2790  -15.1160 O.2   156  ALA156     -0.2864
     79  CB        24.7480    4.1640  -13.9040 C.3   156  ALA156      0.0319
     80  N         21.2360    0.7540  -12.7580 N.3   169  TYR169     -0.1241
     81  CA        21.5010    1.2330  -11.4050 C.3   169  TYR169      0.1605
     82  C         20.4610    2.2870  -11.0340 C.2   169  TYR169      0.2264
     83  O         20.1770    3.2000  -11.8190 O.2   169  TYR169     -0.2867
     84  CB        22.9270    1.8080  -11.2810 C.3   169  TYR169      0.0534
     85  CG        24.0130    0.7720  -11.5880 C.ar  169  TYR169     -0.0201
     86  CD1       24.2790    0.3860  -12.9000 C.ar  169  TYR169     -0.0009
     87  CD2       24.7600    0.1850  -10.5720 C.ar  169  TYR169     -0.0009
     88  CE1       25.2620   -0.5530  -13.1970 C.ar  169  TYR169      0.0417
     89  CE2       25.7500   -0.7630  -10.8600 C.ar  169  TYR169      0.0417
     90  CZ        25.9870   -1.1290  -12.1740 C.ar  169  TYR169      0.1957
     91  OH        26.9540   -2.0690  -12.4840 O.3   169  TYR169     -0.2866
     92  N         23.1700    1.8110   -3.0100 N.3   208  GLU208     -0.1245
     93  CA        23.0810    1.6100   -4.4480 C.3   208  GLU208      0.1567
     94  C         22.4400    0.2500   -4.7090 C.2   208  GLU208      0.2260
     95  O         22.7770   -0.7380   -4.0530 O.2   208  GLU208     -0.2867
     96  CB        24.4630    1.7030   -5.1080 C.3   208  GLU208      0.0388
     97  CG        24.9070    3.1350   -5.4540 C.3   208  GLU208      0.1160
     98  CD        24.1940    4.2050   -4.6310 C.2   208  GLU208      0.3649
     99  OE1       24.4930    4.3410   -3.4260 O.co2 208  GLU208     -0.2457
    100  OE2       23.3220    4.9060   -5.1890 O.co2 208  GLU208     -0.2457
    101  N         25.0710   -2.3010   -2.9830 N.3   226  TYR226     -0.1241
    102  CA        26.4430   -1.8670   -2.7060 C.3   226  TYR226      0.1605
    103  C         26.4600   -0.8730   -1.5550 C.2   226  TYR226      0.2264
    104  O         25.5790   -0.0130   -1.4550 O.2   226  TYR226     -0.2867
    105  CB        27.1060   -1.1890   -3.9040 C.3   226  TYR226      0.0534
    106  CG        26.9840   -1.9300   -5.1950 C.ar  226  TYR226     -0.0201
    107  CD1       27.9660   -2.8230   -5.6010 C.ar  226  TYR226     -0.0009
    108  CD2       25.8890   -1.7190   -6.0250 C.ar  226  TYR226     -0.0009
    109  CE1       27.8540   -3.4960   -6.7920 C.ar  226  TYR226      0.0417
    110  CE2       25.7660   -2.3850   -7.2150 C.ar  226  TYR226      0.0417
    111  CZ        26.7470   -3.2730   -7.5940 C.ar  226  TYR226      0.1957
    112  OH        26.6010   -3.9360   -8.7830 O.3   226  TYR226     -0.2866
    113  N         34.3050   -0.6180   -1.2450 N.3   261  ILE261     -0.1245
    114  CA        32.9060   -0.7990   -1.6320 C.3   261  ILE261      0.1561
    115  C         32.6100   -2.2870   -1.5480 C.2   261  ILE261      0.2260
    116  O         33.3180   -3.1000   -2.1560 O.2   261  ILE261     -0.2867
    117  CB        32.5980   -0.2870   -3.0490 C.3   261  ILE261      0.0252
    118  CG1       33.0440    1.1630   -3.2600 C.3   261  ILE261      0.0019
    119  CG2       31.0890   -0.4350   -3.3350 C.3   261  ILE261      0.0019
    120  CD1       32.0710    2.1850   -2.7610 C.3   261  ILE261      0.0001
    121  N         32.5010    9.7960   -2.7390 N.3   290  PHE290     -0.1241
    122  CA        31.2950    8.9870   -2.8840 C.3   290  PHE290      0.1605
    123  C         30.3750    9.1500   -1.6790 C.2   290  PHE290      0.2264
    124  O         29.1720    9.3950   -1.8260 O.2   290  PHE290     -0.2867
    125  CB        31.7030    7.5260   -3.0750 C.3   290  PHE290      0.0534
    126  CG        30.6240    6.6510   -3.6350 C.ar  290  PHE290     -0.0203
    127  CD1       30.5440    6.4170   -5.0000 C.ar  290  PHE290     -0.0042
    128  CD2       29.7180    6.0260   -2.7950 C.ar  290  PHE290     -0.0042
    129  CE1       29.5600    5.5920   -5.5240 C.ar  290  PHE290     -0.0003
    130  CE2       28.7230    5.2010   -3.3090 C.ar  290  PHE290     -0.0003
    131  CZ        28.6430    4.9870   -4.6750 C.ar  290  PHE290     -0.0000
@<TRIPOS>BOND
     1    56    54   am
     2    55    54    2
     3    54    53    1
     4    29    27   ar
     5    53    52    1
     6    27    26    1
     7    27    28   ar
     8    52    49    1
     9    26    23    1
    10    37    36    2
    11    33    32    2
    12    49    48    1
    13    49    50    1
    14    34    35    1
    15    36    48   am
    16    36    35    1
    17    23    22    1
    18    23    24    1
    19    32    31    1
    20    35    38    1
    21    30    24   am
    22    30    31    1
    23    50    51    2
    24    50    57   am
    25    24    25    2
    26    60    59    2
    27    57    58    1
    28    59    58    1
    29    38    39    1
    30    58    61    1
    31    77    78    2
    32    77    76    1
    33    39    40   ar
    34    39    41   ar
    35    44    41   ar
    36    44    46   ar
    37    40    42   ar
    38    76    75    1
    39    76    79    1
    40    41    43   ar
    41    61    62    1
    42    66    65    2
    43    46    47   ar
    44    14    13    1
    45    14    15    2
    46    75    65   am
    47    42    43   ar
    48    43    45   ar
    49    65    64    1
    50    13    12    1
    51    13    16    1
    52    47    45   ar
    53    64    63    1
    54    64    67    1
    55    88    86   ar
    56    88    90   ar
    57     2     3    1
    58     2     5    1
    59     2     1    1
    60    86    85   ar
    61     3     4    2
    62    80    81    1
    63     5     6    1
    64    18    20   ar
    65    18    17   ar
    66    16    17    1
    67    91    90    1
    68    20    21   ar
    69    17    19   ar
    70    90    89   ar
    71    67    68    1
    72    21    19   ar
    73    83    82    2
    74    85    84    1
    75    85    87   ar
    76    81    84    1
    77    81    82    1
    78     6     7    1
    79    69    68   ar
    80    69    71   ar
    81     8     7    1
    82     8     9    2
    83    11     9    1
    84    68    70   ar
    85    89    87   ar
    86     9    10    1
    87    71    73   ar
    88    70    72   ar
    89    73    72   ar
    90    73    74    1
    91   112   111    1
    92   111   110   ar
    93   111   109   ar
    94   110   108   ar
    95   109   107   ar
    96   108   106   ar
    97   107   106   ar
    98   129   127   ar
    99   129   131   ar
   100    97    96    1
   101    97    98    1
   102   106   105    1
   103   100    98   ar
   104    96    93    1
   105   127   126   ar
   106    94    93    1
   107    94    95    2
   108   131   130   ar
   109    98    99   ar
   110    93    92    1
   111   105   102    1
   112   126   125    1
   113   126   128   ar
   114   119   117    1
   115   130   128   ar
   116   118   117    1
   117   118   120    1
   118   125   122    1
   119   117   114    1
   120   101   102    1
   121   122   121    1
   122   122   123    1
   123   102   103    1
   124   116   115    2
   125   124   123    2
   126   114   115    1
   127   114   113    1
   128   103   104    2
