@<TRIPOS>MOLECULE
tmp/5z48B00.pdb
 102 98 0 0 0
SMALL
GASTEIGER

@<TRIPOS>ATOM
      1  N        -39.7000  -33.0250  -22.6490 N.3    11  PHE11      -0.1241
      2  CA       -39.3370  -34.2620  -21.9690 C.3    11  PHE11       0.1605
      3  C        -40.5580  -35.1580  -21.7600 C.2    11  PHE11       0.2264
      4  O        -41.6880  -34.6770  -21.6230 O.2    11  PHE11      -0.2867
      5  CB       -38.6900  -33.9930  -20.5700 C.3    11  PHE11       0.0534
      6  CG       -37.2340  -33.6890  -20.6090 C.ar   11  PHE11      -0.0203
      7  CD1      -36.3070  -34.6970  -20.7570 C.ar   11  PHE11      -0.0042
      8  CD2      -36.7770  -32.3660  -20.4800 C.ar   11  PHE11      -0.0042
      9  CE1      -34.9460  -34.4380  -20.7650 C.ar   11  PHE11      -0.0003
     10  CE2      -35.3930  -32.0850  -20.4730 C.ar   11  PHE11      -0.0003
     11  CZ       -34.4790  -33.1140  -20.6310 C.ar   11  PHE11      -0.0000
     12  N        -42.1450  -38.3360  -15.9370 N.3    14  PHE14      -0.1241
     13  CA       -41.1440  -38.8720  -15.0330 C.3    14  PHE14       0.1605
     14  C        -41.7010  -38.7800  -13.6230 C.2    14  PHE14       0.2264
     15  O        -42.7130  -38.1100  -13.3740 O.2    14  PHE14      -0.2867
     16  CB       -39.8090  -38.0950  -15.1420 C.3    14  PHE14       0.0534
     17  CG       -39.9210  -36.6780  -14.6920 C.ar   14  PHE14      -0.0203
     18  CD1      -40.5330  -35.7380  -15.5150 C.ar   14  PHE14      -0.0042
     19  CD2      -39.4770  -36.3020  -13.4290 C.ar   14  PHE14      -0.0042
     20  CE1      -40.6600  -34.4080  -15.1010 C.ar   14  PHE14      -0.0003
     21  CE2      -39.6040  -34.9740  -12.9850 C.ar   14  PHE14      -0.0003
     22  CZ       -40.2180  -34.0380  -13.8290 C.ar   14  PHE14      -0.0000
     23  N        -46.3670  -34.7870  -19.1240 N.3    20  ASN20      -0.1240
     24  CA       -45.3330  -33.7460  -19.0630 C.3    20  ASN20       0.1653
     25  C        -45.7830  -32.6190  -19.9830 C.2    20  ASN20       0.2266
     26  O        -45.8670  -32.8330  -21.2140 O.2    20  ASN20      -0.2867
     27  CB       -43.9520  -34.2830  -19.4560 C.3    20  ASN20       0.1155
     28  CG       -42.8590  -33.3220  -19.0950 C.2    20  ASN20       0.2627
     29  OD1      -43.0000  -32.1220  -19.3030 O.2    20  ASN20      -0.2716
     30  ND2      -41.7440  -33.8410  -18.5840 N.am   20  ASN20      -0.0877
     31  N        -36.1000  -38.8290  -19.9090 N.3    47  VAL47      -0.1245
     32  CA       -35.6210  -38.2570  -18.6350 C.3    47  VAL47       0.1561
     33  C        -34.5410  -39.1780  -18.0900 C.2    47  VAL47       0.2260
     34  O        -34.7410  -39.9080  -17.1100 O.2    47  VAL47      -0.2867
     35  CB       -36.7680  -38.0480  -17.6360 C.3    47  VAL47       0.0252
     36  CG1      -36.2670  -37.2830  -16.4260 C.3    47  VAL47       0.0019
     37  CG2      -37.8320  -37.1890  -18.2680 C.3    47  VAL47       0.0019
     38  N        -39.0730  -28.0490  -20.3090 N.3    72  GLY72      -0.1210
     39  CA       -39.2620  -29.1160  -19.3420 C.3    72  GLY72       0.1956
     40  C        -40.1980  -28.6410  -18.2550 C.2    72  GLY72       0.2612
     41  O        -40.4460  -27.4330  -18.1060 O.2    72  GLY72      -0.2717
     42  N        -40.6810  -29.6190  -17.4700 N.am   73  LEU73      -0.1965
     43  CA       -41.5790  -29.3540  -16.3410 C.3    73  LEU73       0.1728
     44  C        -40.8130  -28.9020  -15.0950 C.2    73  LEU73       0.2616
     45  O        -39.7930  -29.4830  -14.7340 O.2    73  LEU73      -0.2715
     46  CB       -42.3550  -30.6220  -16.0280 C.3    73  LEU73       0.0311
     47  CG       -43.2280  -30.6620  -14.7650 C.3    73  LEU73       0.0022
     48  CD1      -44.3670  -29.6590  -14.8090 C.3    73  LEU73       0.0001
     49  CD2      -43.7760  -32.0780  -14.5670 C.3    73  LEU73       0.0001
     50  N        -41.3190  -27.8560  -14.4310 N.am   74  ALA74      -0.1977
     51  CA       -40.8580  -27.4810  -13.0870 C.3    74  ALA74       0.1597
     52  C        -42.0860  -27.5020  -12.1780 C.2    74  ALA74       0.2287
     53  O        -42.6440  -26.4540  -11.8910 O.2    74  ALA74      -0.2864
     54  CB       -40.1810  -26.0990  -13.0680 C.3    74  ALA74       0.0319
     55  N        -31.5940  -24.0350  -12.7380 N.3   141  ALA141     -0.1245
     56  CA       -32.4590  -25.0060  -13.4190 C.3   141  ALA141      0.1562
     57  C        -32.5680  -26.3180  -12.6460 C.2   141  ALA141      0.2260
     58  O        -33.0930  -27.3010  -13.1920 O.2   141  ALA141     -0.2867
     59  CB       -31.9350  -25.2860  -14.8380 C.3   141  ALA141      0.0290
     60  N        -30.8130  -31.6810  -12.1920 N.3   144  TYR144     -0.1227
     61  CA       -31.4060  -32.9040  -12.7110 C.3   144  TYR144      0.1736
     62  C        -31.2840  -32.8960  -14.2390 C.2   144  TYR144      0.2595
     63  O        -30.3390  -32.3210  -14.7670 O.2   144  TYR144     -0.2718
     64  CB       -32.8470  -32.9910  -12.1970 C.3   144  TYR144      0.0548
     65  CG       -33.6540  -34.2940  -12.3290 C.ar  144  TYR144     -0.0200
     66  CD1      -33.1830  -35.5510  -11.9190 C.ar  144  TYR144     -0.0009
     67  CD2      -34.9520  -34.2210  -12.7950 C.ar  144  TYR144     -0.0009
     68  CE1      -33.9920  -36.6950  -11.9990 C.ar  144  TYR144      0.0417
     69  CE2      -35.7670  -35.3580  -12.8810 C.ar  144  TYR144      0.0417
     70  CZ       -35.2910  -36.5870  -12.4730 C.ar  144  TYR144      0.1957
     71  OH       -36.1140  -37.6930  -12.5500 O.3   144  TYR144     -0.2866
     72  N        -32.1990  -33.5350  -14.9530 N.am  145  VAL145     -0.1966
     73  CA       -31.9380  -33.7860  -16.3770 C.3   145  VAL145      0.1727
     74  C        -32.1470  -32.5220  -17.2190 C.2   145  VAL145      0.2616
     75  O        -31.4610  -32.3520  -18.2410 O.2   145  VAL145     -0.2715
     76  CB       -32.7800  -34.9860  -16.8860 C.3   145  VAL145      0.0290
     77  CG1      -32.3210  -35.4390  -18.3020 C.3   145  VAL145      0.0023
     78  CG2      -32.6500  -36.2130  -15.9720 C.3   145  VAL145      0.0023
     79  N        -33.0520  -31.5980  -16.8220 N.am  146  CYS146     -0.1954
     80  CA       -33.2120  -30.3490  -17.5760 C.3   146  CYS146      0.1843
     81  C        -31.9370  -29.5170  -17.5400 C.2   146  CYS146      0.2625
     82  O        -31.4620  -29.0370  -18.5660 O.2   146  CYS146     -0.2714
     83  CB       -34.3750  -29.5250  -17.0080 C.3   146  CYS146      0.0997
     84  SG       -36.0060  -30.3380  -17.3050 S.3   146  CYS146     -0.0797
     85  N        -31.3640  -29.3290  -16.3530 N.am  147  ASN147     -0.1972
     86  CA       -30.0800  -28.6470  -16.3050 C.3   147  ASN147      0.1688
     87  C        -29.0310  -29.3570  -17.1440 C.2   147  ASN147      0.2292
     88  O        -28.2380  -28.7090  -17.8500 O.2   147  ASN147     -0.2864
     89  CB       -29.6070  -28.5890  -14.8620 C.3   147  ASN147      0.1181
     90  CG       -28.2120  -27.9850  -14.7510 C.2   147  ASN147      0.2629
     91  OD1      -28.0730  -26.7460  -14.8180 O.2   147  ASN147     -0.2716
     92  ND2      -27.2010  -28.8250  -14.6060 N.am  147  ASN147     -0.0877
     93  N        -38.5720  -23.5410  -18.4700 N.3   171  HIS171     -0.1241
     94  CA       -39.2850  -24.4160  -17.5350 C.3   171  HIS171      0.1621
     95  C        -40.7390  -23.9820  -17.4580 C.2   171  HIS171      0.2264
     96  O        -41.0310  -22.7860  -17.3710 O.2   171  HIS171     -0.2867
     97  CB       -38.6590  -24.3320  -16.1400 C.3   171  HIS171      0.0745
     98  CG       -37.7240  -25.4650  -15.8000 C.ar  171  HIS171      0.0817
     99  ND1      -36.4210  -25.2610  -15.3840 N.ar  171  HIS171     -0.2268
    100  CD2      -37.9170  -26.8070  -15.8040 C.ar  171  HIS171      0.1154
    101  CE1      -35.8620  -26.4350  -15.1290 C.ar  171  HIS171      0.1986
    102  NE2      -36.7460  -27.3900  -15.3710 N.ar  171  HIS171     -0.2212
@<TRIPOS>BOND
     1     1     2    1
     2     2     3    1
     3     2     5    1
     4     3     4    2
     5    26    25    2
     6     9     7   ar
     7     9    11   ar
     8     7     6   ar
     9    11    10   ar
    10     6     5    1
    11     6     8   ar
    12     8    10   ar
    13    38    39    1
    14    25    24    1
    15    31    32    1
    16    27    28    1
    17    27    24    1
    18    39    40    1
    19    29    28    2
    20    23    24    1
    21    28    30   am
    22    32    33    1
    23    32    35    1
    24    82    81    2
    25    93    94    1
    26    77    76    1
    27    37    35    1
    28    40    41    2
    29    40    42   am
    30    75    74    2
    31    33    34    2
    32    88    87    2
    33    35    36    1
    34    80    81    1
    35    80    83    1
    36    80    79    1
    37    81    85   am
    38    94    95    1
    39    94    97    1
    40    42    43    1
    41    95    96    2
    42    84    83    1
    43    74    79   am
    44    74    73    1
    45    87    86    1
    46    76    73    1
    47    76    78    1
    48    73    72    1
    49    85    86    1
    50    43    46    1
    51    43    44    1
    52    86    89    1
    53    97    98    1
    54    46    47    1
    55    12    13    1
    56   100    98   ar
    57   100   102   ar
    58    98    99   ar
    59    18    20   ar
    60    18    17   ar
    61    99   101   ar
    62   102   101   ar
    63    16    13    1
    64    16    17    1
    65    20    22   ar
    66    44    45    2
    67    44    50   am
    68    13    14    1
    69    72    62   am
    70    89    90    1
    71    59    56    1
    72    91    90    2
    73    48    47    1
    74    63    62    2
    75    47    49    1
    76    90    92   am
    77    17    19   ar
    78    50    51    1
    79    62    61    1
    80    22    21   ar
    81    14    15    2
    82    19    21   ar
    83    56    55    1
    84    56    57    1
    85    58    57    2
    86    51    54    1
    87    51    52    1
    88    69    67   ar
    89    69    70   ar
    90    67    65   ar
    91    61    64    1
    92    61    60    1
    93    71    70    1
    94    70    68   ar
    95    65    64    1
    96    65    66   ar
    97    52    53    2
    98    68    66   ar
