@<TRIPOS>MOLECULE
tmp/5z4fA00.pdb
 180 176 0 0 0
SMALL
GASTEIGER

@<TRIPOS>ATOM
      1  N        -12.8260    6.5570    1.1620 N.3     8  VAL8       -0.1245
      2  CA       -12.6140    7.5260    0.0470 C.3     8  VAL8        0.1561
      3  C        -12.2000    6.7600   -1.2120 C.2     8  VAL8        0.2260
      4  O        -11.4490    5.8070   -1.1430 O.2     8  VAL8       -0.2867
      5  CB       -11.5340    8.5490    0.4300 C.3     8  VAL8        0.0252
      6  CG1      -10.1900    7.8510    0.6520 C.3     8  VAL8        0.0019
      7  CG2      -11.3900    9.5760   -0.6940 C.3     8  VAL8        0.0019
      8  N        -10.4160    7.1050   -4.9930 N.3    10  LYS10      -0.1245
      9  CA        -9.6870    8.0070   -5.9310 C.3    10  LYS10       0.1561
     10  C         -9.0500    7.1810   -7.0510 C.2    10  LYS10       0.2260
     11  O         -8.6310    6.0590   -6.8460 O.2    10  LYS10      -0.2867
     12  CB        -8.5920    8.7600   -5.1720 C.3    10  LYS10       0.0271
     13  CG        -9.2300    9.6590   -4.1110 C.3    10  LYS10       0.0035
     14  CD        -8.1470   10.5050   -3.4410 C.3    10  LYS10       0.0206
     15  CE        -8.7680   11.3280   -2.3100 C.3    10  LYS10       0.1093
     16  NZ        -8.3290   12.7470   -2.4310 N.3    10  LYS10      -0.1314
     17  N         -1.3780    6.4530  -14.7170 N.3    14  VAL14      -0.1245
     18  CA         0.1010    6.6030  -14.6060 C.3    14  VAL14       0.1561
     19  C          0.7750    5.8700  -15.7680 C.2    14  VAL14       0.2260
     20  O          0.1710    5.0460  -16.4250 O.2    14  VAL14      -0.2867
     21  CB         0.5770    6.0050  -13.2820 C.3    14  VAL14       0.0252
     22  CG1       -0.0970    6.7350  -12.1190 C.3    14  VAL14       0.0019
     23  CG2        0.2040    4.5240  -13.2350 C.3    14  VAL14       0.0019
     24  N          3.0060   -2.8260  -12.3440 N.3    21  CYS21      -0.1235
     25  CA         2.5800   -2.3600  -11.0040 C.3    21  CYS21       0.1677
     26  C          2.8740   -3.4340   -9.9700 C.2    21  CYS21       0.2270
     27  O          3.3840   -3.1580   -8.9050 O.2    21  CYS21      -0.2867
     28  CB         1.0790   -2.0900  -11.0210 C.3    21  CYS21       0.0956
     29  SG         0.7530   -0.5320  -11.8800 S.3    21  CYS21      -0.0801
     30  N          5.9670   -4.0120   -7.0780 N.3    25  PHE25      -0.1241
     31  CA         5.5110   -4.2150   -5.6660 C.3    25  PHE25       0.1605
     32  C          6.3180   -5.3160   -4.9840 C.2    25  PHE25       0.2264
     33  O          6.7430   -5.1770   -3.8560 O.2    25  PHE25      -0.2867
     34  CB         4.0400   -4.6390   -5.6720 C.3    25  PHE25       0.0534
     35  CG         3.1190   -3.4790   -5.9990 C.ar   25  PHE25      -0.0203
     36  CD1        3.6080   -2.2720   -6.5380 C.ar   25  PHE25      -0.0042
     37  CD2        1.7450   -3.6200   -5.7530 C.ar   25  PHE25      -0.0042
     38  CE1        2.7250   -1.2310   -6.8220 C.ar   25  PHE25      -0.0003
     39  CE2        0.8700   -2.5750   -6.0410 C.ar   25  PHE25      -0.0003
     40  CZ         1.3590   -1.3830   -6.5740 C.ar   25  PHE25      -0.0000
     41  N         11.9920    2.9120   -4.3060 N.3    32  TRP32      -0.1241
     42  CA        11.5630    4.1120   -5.0920 C.3    32  TRP32       0.1605
     43  C         12.1900    5.3650   -4.4700 C.2    32  TRP32       0.2264
     44  O         12.4850    6.3270   -5.1500 O.2    32  TRP32      -0.2867
     45  CB        10.0410    4.2890   -5.0440 C.3    32  TRP32       0.0550
     46  CG         9.3130    3.2740   -5.8720 C.ar   32  TRP32       0.0003
     47  CD1        9.6520    2.8470   -7.1120 C.ar   32  TRP32       0.0946
     48  CD2        8.0850    2.5820   -5.5270 C.ar   32  TRP32       0.0152
     49  NE1        8.7000    1.9380   -7.5450 N.ar   32  TRP32      -0.2442
     50  CE2        7.7160    1.7410   -6.5980 C.ar   32  TRP32       0.0810
     51  CE3        7.2680    2.6080   -4.3900 C.ar   32  TRP32       0.0012
     52  CZ2        6.5650    0.9530   -6.5400 C.ar   32  TRP32       0.0191
     53  CZ3        6.1160    1.8160   -4.3260 C.ar   32  TRP32       0.0001
     54  CH2        5.7630    0.9920   -5.3960 C.ar   32  TRP32       0.0015
     55  N         -5.8220   -5.4500    4.3990 N.3    85  TRP85      -0.1241
     56  CA        -4.5870   -4.9470    5.0820 C.3    85  TRP85       0.1605
     57  C         -4.4040   -5.6290    6.4450 C.2    85  TRP85       0.2264
     58  O         -5.3110   -5.6660    7.2530 O.2    85  TRP85      -0.2867
     59  CB        -4.7040   -3.4350    5.2950 C.3    85  TRP85       0.0550
     60  CG        -4.3010   -2.7040    4.0510 C.ar   85  TRP85       0.0003
     61  CD1       -4.2790   -3.2300    2.8030 C.ar   85  TRP85       0.0946
     62  CD2       -3.8590   -1.3210    3.9180 C.ar   85  TRP85       0.0152
     63  NE1       -3.8530   -2.2570    1.9150 N.ar   85  TRP85      -0.2442
     64  CE2       -3.5820   -1.0650    2.5540 C.ar   85  TRP85       0.0810
     65  CE3       -3.6740   -0.2750    4.8400 C.ar   85  TRP85       0.0012
     66  CZ2       -3.1380    0.1850    2.1210 C.ar   85  TRP85       0.0191
     67  CZ3       -3.2270    0.9840    4.4070 C.ar   85  TRP85       0.0001
     68  CH2       -2.9590    1.2130    3.0500 C.ar   85  TRP85       0.0015
     69  N         -6.9060   -2.9160  -11.5760 N.3   107  PHE107     -0.1241
     70  CA        -5.7340   -2.5550  -12.4130 C.3   107  PHE107      0.1605
     71  C         -6.0330   -2.8960  -13.8740 C.2   107  PHE107      0.2264
     72  O         -6.3670   -4.0180  -14.1920 O.2   107  PHE107     -0.2867
     73  CB        -4.5310   -3.3780  -11.9620 C.3   107  PHE107      0.0534
     74  CG        -4.1050   -2.9810  -10.5700 C.ar  107  PHE107     -0.0203
     75  CD1       -4.8090   -3.4570   -9.4600 C.ar  107  PHE107     -0.0042
     76  CD2       -2.9820   -2.1660  -10.3890 C.ar  107  PHE107     -0.0042
     77  CE1       -4.3890   -3.1210   -8.1680 C.ar  107  PHE107     -0.0003
     78  CE2       -2.5650   -1.8230   -9.0980 C.ar  107  PHE107     -0.0003
     79  CZ        -3.2660   -2.3030   -7.9860 C.ar  107  PHE107     -0.0000
     80  N         -5.5680    2.9320  -12.4950 N.3   117  VAL117     -0.1245
     81  CA        -5.8600    2.1800  -11.2400 C.3   117  VAL117      0.1561
     82  C         -6.9700    2.8480  -10.4390 C.2   117  VAL117      0.2260
     83  O         -7.0130    4.0540  -10.2940 O.2   117  VAL117     -0.2867
     84  CB        -4.5980    2.1310  -10.3860 C.3   117  VAL117      0.0252
     85  CG1       -4.8690    1.3130   -9.1220 C.3   117  VAL117      0.0019
     86  CG2       -3.4690    1.4770  -11.1860 C.3   117  VAL117      0.0019
     87  N         -8.2870    2.7470   -6.7170 N.3   119  LEU119     -0.1245
     88  CA        -8.1200    2.2010   -5.3420 C.3   119  LEU119      0.1561
     89  C         -9.1880    2.7840   -4.4200 C.2   119  LEU119      0.2260
     90  O         -9.3430    3.9850   -4.3180 O.2   119  LEU119     -0.2867
     91  CB        -6.7300    2.5800   -4.8220 C.3   119  LEU119      0.0270
     92  CG        -6.4410    1.8540   -3.5020 C.3   119  LEU119      0.0019
     93  CD1       -4.9600    1.4700   -3.4460 C.3   119  LEU119      0.0001
     94  CD2       -6.7600    2.7780   -2.3220 C.3   119  LEU119      0.0001
     95  N        -10.5420    2.4540   -0.4340 N.3   121  HIS121     -0.1241
     96  CA       -10.4510    1.8210    0.9130 C.3   121  HIS121      0.1621
     97  C        -11.7330    2.1630    1.6680 C.2   121  HIS121      0.2264
     98  O        -12.2310    3.2670    1.5710 O.2   121  HIS121     -0.2867
     99  CB        -9.2310    2.3650    1.6640 C.3   121  HIS121      0.0745
    100  CG        -9.6200    3.5850    2.4510 C.ar  121  HIS121      0.0817
    101  ND1       -9.3690    3.7010    3.8120 N.ar  121  HIS121     -0.2268
    102  CD2      -10.2370    4.7540    2.0840 C.ar  121  HIS121      0.1154
    103  CE1       -9.8310    4.9020    4.2090 C.ar  121  HIS121      0.1986
    104  NE2      -10.3680    5.5790    3.1950 N.ar  121  HIS121     -0.2212
    105  N         -4.1440    6.9220   10.9980 N.3   132  TRP132     -0.1241
    106  CA        -3.2530    7.6030   10.0190 C.3   132  TRP132      0.1605
    107  C         -1.8010    7.3620   10.4300 C.2   132  TRP132      0.2264
    108  O         -0.9140    7.2950    9.6050 O.2   132  TRP132     -0.2867
    109  CB        -3.5470    9.1050    9.9790 C.3   132  TRP132      0.0550
    110  CG        -2.7800    9.7270    8.8560 C.ar  132  TRP132      0.0003
    111  CD1       -1.4920   10.1320    8.9290 C.ar  132  TRP132      0.0946
    112  CD2       -3.2280   10.0260    7.4990 C.ar  132  TRP132      0.0152
    113  NE1       -1.1170   10.6530    7.7050 N.ar  132  TRP132     -0.2442
    114  CE2       -2.1520   10.6110    6.7910 C.ar  132  TRP132      0.0810
    115  CE3       -4.4500    9.8470    6.8160 C.ar  132  TRP132      0.0012
    116  CZ2       -2.2790   11.0040    5.4590 C.ar  132  TRP132      0.0191
    117  CZ3       -4.5790   10.2440    5.4750 C.ar  132  TRP132      0.0001
    118  CH2       -3.4950   10.8200    4.7980 C.ar  132  TRP132      0.0015
    119  N         -0.6230    4.7960    8.5550 N.3   135  HIS135     -0.1241
    120  CA        -0.4020    5.3100    7.1850 C.3   135  HIS135      0.1621
    121  C          0.9030    6.1030    7.1750 C.2   135  HIS135      0.2264
    122  O          1.6220    6.1290    6.1970 O.2   135  HIS135     -0.2867
    123  CB        -1.5630    6.2170    6.7710 C.3   135  HIS135      0.0745
    124  CG        -1.2250    6.8690    5.4670 C.ar  135  HIS135      0.0817
    125  ND1       -0.1300    6.4750    4.7210 N.ar  135  HIS135     -0.2268
    126  CD2       -1.8160    7.8880    4.7660 C.ar  135  HIS135      0.1154
    127  CE1       -0.0860    7.2400    3.6210 C.ar  135  HIS135      0.1986
    128  NE2       -1.0930    8.1200    3.5980 N.ar  135  HIS135     -0.2212
    129  N          1.8920    9.1380    3.0890 N.3   140  GLY140     -0.1210
    130  CA         1.1020    9.6270    1.9210 C.3   140  GLY140      0.1940
    131  C          0.8290   11.1240    2.0910 C.2   140  GLY140      0.2454
    132  O         -0.2670   11.5270    2.4280 O.2   140  GLY140     -0.2732
    133  N          1.8230   11.9410    1.8650 N.am  141  PRO141     -0.2717
    134  CA         1.6970   13.4220    2.0000 C.3   141  PRO141      0.1535
    135  C          0.5560   13.9890    1.1500 C.2   141  PRO141      0.2599
    136  O          0.3150   13.5500    0.0450 O.2   141  PRO141     -0.2715
    137  CB         3.0430   13.9590    1.5040 C.3   141  PRO141      0.0310
    138  CG         3.9990   12.8180    1.6100 C.3   141  PRO141      0.0237
    139  CD         3.1760   11.5400    1.4570 C.3   141  PRO141      0.0939
    140  N         -0.1440   14.9650    1.6580 N.am  142  SER142     -0.1950
    141  CA        -1.2620   15.5610    0.8770 C.3   142  SER142      0.1924
    142  C         -0.7390   16.0650   -0.4730 C.2   142  SER142      0.2314
    143  O         -1.3370   15.8260   -1.5030 O.2   142  SER142     -0.2863
    144  CB        -1.8710   16.7260    1.6600 C.3   142  SER142      0.2116
    145  OG        -3.2600   16.4900    1.8470 O.3   142  SER142     -0.2180
    146  N          0.5590   11.8720   -3.5610 N.3   145  GLU145     -0.1231
    147  CA        -0.0410   10.5960   -3.0900 C.3   145  GLU145      0.1699
    148  C          0.8560    9.4290   -3.4970 C.2   145  GLU145      0.2593
    149  O          1.8190    9.5950   -4.2190 O.2   145  GLU145     -0.2718
    150  CB        -1.4220   10.4180   -3.7170 C.3   145  GLU145      0.0402
    151  CG        -2.3170   11.5980   -3.3350 C.3   145  GLU145      0.1161
    152  CD        -3.7320   11.3570   -3.8640 C.2   145  GLU145      0.3649
    153  OE1       -4.6080   12.1380   -3.5320 O.co2 145  GLU145     -0.2457
    154  OE2       -3.9160   10.3940   -4.5900 O.co2 145  GLU145     -0.2457
    155  N          0.5450    8.2470   -3.0450 N.am  146  THR146     -0.1939
    156  CA         1.3770    7.0710   -3.4130 C.3   146  THR146      0.2028
    157  C          1.4220    6.9450   -4.9320 C.2   146  THR146      0.2642
    158  O          2.4180    6.5570   -5.5080 O.2   146  THR146     -0.2714
    159  CB         0.7610    5.8070   -2.8220 C.3   146  THR146      0.1808
    160  OG1        0.9240    5.8100   -1.4110 O.3   146  THR146     -0.2208
    161  CG2        1.4370    4.5810   -3.4310 C.3   146  THR146      0.0379
    162  N          0.3490    7.2680   -5.5860 N.am  147  LEU147     -0.1977
    163  CA         0.3240    7.1730   -7.0620 C.3   147  LEU147      0.1596
    164  C          1.3500    8.1430   -7.6510 C.2   147  LEU147      0.2287
    165  O          1.9430    7.8870   -8.6760 O.2   147  LEU147     -0.2864
    166  CB        -1.0680    7.5410   -7.5660 C.3   147  LEU147      0.0297
    167  CG        -2.0900    6.5610   -6.9770 C.3   147  LEU147      0.0022
    168  CD1       -2.6330    7.0700   -5.6320 C.3   147  LEU147      0.0001
    169  CD2       -3.2490    6.3980   -7.9630 C.3   147  LEU147      0.0001
    170  N          5.2940    6.8460   -6.5600 N.3   150  PHE150     -0.1241
    171  CA         5.6660    5.5760   -7.2460 C.3   150  PHE150      0.1605
    172  C          5.5280    5.7200   -8.7700 C.2   150  PHE150      0.2264
    173  O          6.2710    5.1270   -9.5210 O.2   150  PHE150     -0.2867
    174  CB         4.7720    4.4440   -6.7400 C.3   150  PHE150      0.0534
    175  CG         3.7830    4.0670   -7.8060 C.ar  150  PHE150     -0.0203
    176  CD1        2.7840    4.9680   -8.1710 C.ar  150  PHE150     -0.0042
    177  CD2        3.8600    2.8140   -8.4210 C.ar  150  PHE150     -0.0042
    178  CE1        1.8560    4.6220   -9.1570 C.ar  150  PHE150     -0.0003
    179  CE2        2.9340    2.4650   -9.4090 C.ar  150  PHE150     -0.0003
    180  CZ         1.9320    3.3690   -9.7780 C.ar  150  PHE150     -0.0000
@<TRIPOS>BOND
     1    20    19    2
     2    19    18    1
     3    17    18    1
     4    18    21    1
     5    72    71    2
     6    71    70    1
     7    21    23    1
     8    21    22    1
     9    80    81    1
    10    70    73    1
    11    70    69    1
    12    24    25    1
    13    73    74    1
    14    29    28    1
    15    81    82    1
    16    81    84    1
    17    86    84    1
    18    28    25    1
    19    25    26    1
    20    74    76   ar
    21    74    75   ar
    22    82    83    2
    23    76    78   ar
    24    84    85    1
    25    26    27    2
    26   180   179   ar
    27   180   178   ar
    28   173   172    2
    29    75    77   ar
    30   179   177   ar
    31   178   176   ar
    32    78    79   ar
    33   172   171    1
    34   165   164    2
    35   177   175   ar
    36   176   175   ar
    37    77    79   ar
    38   169   167    1
    39   175   174    1
    40   164   163    1
    41   166   163    1
    42   166   167    1
    43    49    47   ar
    44    49    50   ar
    45   171   174    1
    46   171   170    1
    47    47    46   ar
    48    30    31    1
    49   163   162    1
    50    10    11    2
    51    10     9    1
    52   167   168    1
    53    38    40   ar
    54    38    36   ar
    55    87    88    1
    56    50    52   ar
    57    50    48   ar
    58    40    39   ar
    59    52    54   ar
    60    36    35   ar
    61    39    37   ar
    62    35    37   ar
    63    35    34    1
    64     9    12    1
    65     9     8    1
    66    46    48   ar
    67    46    45    1
    68    34    31    1
    69    31    32    1
    70   162   157   am
    71    48    51   ar
    72   158   157    2
    73    54    53   ar
    74    88    91    1
    75    88    89    1
    76    12    13    1
    77    44    43    2
    78    42    45    1
    79    42    43    1
    80    42    41    1
    81    32    33    2
    82   157   156    1
    83    91    92    1
    84   154   152   ar
    85    89    90    2
    86    51    53   ar
    87   149   148    2
    88    13    14    1
    89   152   153   ar
    90   152   151    1
    91   150   151    1
    92   150   147    1
    93   146   147    1
    94    92    93    1
    95    92    94    1
    96   148   147    1
    97   148   155   am
    98    14    15    1
    99   161   159    1
   100   156   155    1
   101   156   159    1
   102   159   160    1
   103    16    15    1
   104   143   142    2
   105     3     4    2
   106     3     2    1
   107     7     5    1
   108   142   141    1
   109    95    96    1
   110   136   135    2
   111     2     5    1
   112     2     1    1
   113     5     6    1
   114   141   140    1
   115   141   144    1
   116    96    99    1
   117    96    97    1
   118   135   140   am
   119   135   134    1
   120   139   138    1
   121   139   133    1
   122   137   138    1
   123   137   134    1
   124    98    97    2
   125   144   145    1
   126    99   100    1
   127   133   134    1
   128   133   131   am
   129    63    64   ar
   130    63    61   ar
   131   130   131    1
   132   130   129    1
   133   102   100   ar
   134   102   104   ar
   135   131   132    2
   136    66    64   ar
   137    66    68   ar
   138   100   101   ar
   139    64    62   ar
   140    61    60   ar
   141    68    67   ar
   142   104   103   ar
   143   128   127   ar
   144   128   126   ar
   145   127   125   ar
   146   101   103   ar
   147    62    60   ar
   148    62    65   ar
   149    60    59    1
   150    55    56    1
   151    67    65   ar
   152   125   124   ar
   153   126   124   ar
   154   118   116   ar
   155   118   117   ar
   156    56    59    1
   157    56    57    1
   158   116   114   ar
   159   124   123    1
   160   117   115   ar
   161   122   121    2
   162    57    58    2
   163   123   120    1
   164   114   112   ar
   165   114   113   ar
   166   115   112   ar
   167   121   120    1
   168   120   119    1
   169   112   110   ar
   170   113   111   ar
   171   110   111   ar
   172   110   109    1
   173   108   107    2
   174   109   106    1
   175   106   107    1
   176   106   105    1
