@<TRIPOS>MOLECULE
tmp/5z4gB00.pdb
 126 117 0 0 0
SMALL
GASTEIGER

@<TRIPOS>ATOM
      1  N          8.4730   29.4980   24.1000 N.3    39  TYR39      -0.1241
      2  CA         9.0390   29.1920   25.4250 C.3    39  TYR39       0.1605
      3  C          9.3370   30.4460   26.2600 C.2    39  TYR39       0.2264
      4  O         10.2180   30.4310   27.1240 O.2    39  TYR39      -0.2867
      5  CB        10.3130   28.3440   25.2620 C.3    39  TYR39       0.0534
      6  CG        10.1230   27.0950   24.4320 C.ar   39  TYR39      -0.0201
      7  CD1        9.4990   25.9660   24.9700 C.ar   39  TYR39      -0.0009
      8  CD2       10.5500   27.0440   23.1010 C.ar   39  TYR39      -0.0009
      9  CE1        9.3090   24.8190   24.2110 C.ar   39  TYR39       0.0417
     10  CE2       10.3710   25.8990   22.3320 C.ar   39  TYR39       0.0417
     11  CZ         9.7480   24.7920   22.8920 C.ar   39  TYR39       0.1957
     12  OH         9.5620   23.6580   22.1450 O.3    39  TYR39      -0.2866
     13  N          2.8830   11.7430   27.9160 N.3    49  TYR49      -0.1241
     14  CA         3.4090   10.4330   27.4970 C.3    49  TYR49       0.1605
     15  C          2.5030    9.3610   28.0470 C.2    49  TYR49       0.2264
     16  O          2.1480    9.4070   29.2240 O.2    49  TYR49      -0.2867
     17  CB         4.8130   10.1830   28.0670 C.3    49  TYR49       0.0534
     18  CG         5.9010   10.9820   27.4100 C.ar   49  TYR49      -0.0201
     19  CD1        6.4610   10.5600   26.2040 C.ar   49  TYR49      -0.0009
     20  CD2        6.4060   12.1380   28.0090 C.ar   49  TYR49      -0.0009
     21  CE1        7.4720   11.2770   25.5890 C.ar   49  TYR49       0.0417
     22  CE2        7.4270   12.8660   27.4080 C.ar   49  TYR49       0.0417
     23  CZ         7.9520   12.4390   26.1900 C.ar   49  TYR49       0.1957
     24  OH         8.9360   13.1400   25.5850 O.3    49  TYR49      -0.2866
     25  N          3.1530   10.0320   22.5370 N.3    60  VAL60      -0.1245
     26  CA         3.4700   11.3780   23.0360 C.3    60  VAL60       0.1561
     27  C          2.5630   12.4070   22.3560 C.2    60  VAL60       0.2260
     28  O          2.2790   12.2920   21.1680 O.2    60  VAL60      -0.2867
     29  CB         4.9770   11.7340   22.8860 C.3    60  VAL60       0.0252
     30  CG1        5.4470   11.6520   21.4300 C.3    60  VAL60       0.0019
     31  CG2        5.2950   13.1010   23.4940 C.3    60  VAL60       0.0019
     32  N          2.2160   16.7650   22.5270 N.3    62  THR62      -0.1218
     33  CA         2.6050   18.0660   23.0600 C.3    62  THR62       0.1862
     34  C          1.6720   19.1300   22.5100 C.2    62  THR62       0.2287
     35  O          1.2730   19.0780   21.3370 O.2    62  THR62      -0.2866
     36  CB         4.0670   18.4510   22.7320 C.3    62  THR62       0.1770
     37  OG1        4.2200   18.6040   21.3190 O.3    62  THR62      -0.2211
     38  CG2        5.0290   17.3980   23.2080 C.3    62  THR62       0.0375
     39  N          2.2020   18.5290   18.4810 N.3    71  MET71      -0.1245
     40  CA         2.7970   17.3020   17.9970 C.3    71  MET71       0.1570
     41  C          2.0780   16.1280   18.6540 C.2    71  MET71       0.2261
     42  O          1.7620   16.1730   19.8400 O.2    71  MET71      -0.2867
     43  CB         4.2960   17.3070   18.3220 C.3    71  MET71       0.0387
     44  CG         5.0950   16.1460   17.7590 C.3    71  MET71       0.0595
     45  SD         5.1240   14.7650   18.9050 S.3    71  MET71      -0.1393
     46  CE         6.3220   15.3440   20.1070 C.3    71  MET71       0.0692
     47  N          6.1270    6.0570   19.2220 N.3    75  PHE75      -0.1241
     48  CA         7.5120    5.6110   19.0520 C.3    75  PHE75       0.1605
     49  C          7.7560    4.2760   19.7380 C.2    75  PHE75       0.2264
     50  O          7.0390    3.9060   20.6800 O.2    75  PHE75      -0.2867
     51  CB         8.5160    6.6860   19.5360 C.3    75  PHE75       0.0534
     52  CG         8.4280    7.0070   21.0040 C.ar   75  PHE75      -0.0203
     53  CD1        7.5800    8.0190   21.4570 C.ar   75  PHE75      -0.0042
     54  CD2        9.2080    6.3160   21.9350 C.ar   75  PHE75      -0.0042
     55  CE1        7.4910    8.3150   22.8070 C.ar   75  PHE75      -0.0003
     56  CE2        9.1270    6.6130   23.2880 C.ar   75  PHE75      -0.0003
     57  CZ         8.2760    7.6280   23.7200 C.ar   75  PHE75      -0.0000
     58  N         10.1130   13.4460   12.2330 N.3    83  LEU83      -0.1245
     59  CA         9.0630   14.4480   12.2540 C.3    83  LEU83       0.1561
     60  C          9.4840   15.6420   11.4090 C.2    83  LEU83       0.2260
     61  O         10.6780   15.8860   11.2170 O.2    83  LEU83      -0.2867
     62  CB         8.7880   14.9020   13.6830 C.3    83  LEU83       0.0270
     63  CG         8.1560   13.8800   14.6240 C.3    83  LEU83       0.0019
     64  CD1        8.4260   14.3170   16.0440 C.3    83  LEU83       0.0001
     65  CD2        6.6580   13.7390   14.3740 C.3    83  LEU83       0.0001
     66  N         13.3830   16.2830   11.2650 N.3    90  LEU90      -0.1245
     67  CA        14.0400   15.9520   12.5170 C.3    90  LEU90       0.1561
     68  C         13.9890   14.4420   12.6360 C.2    90  LEU90       0.2260
     69  O         12.9280   13.8430   12.4670 O.2    90  LEU90      -0.2867
     70  CB        13.2670   16.6060   13.6640 C.3    90  LEU90       0.0270
     71  CG        13.6410   16.5000   15.1320 C.3    90  LEU90       0.0019
     72  CD1       13.2130   17.7860   15.8180 C.3    90  LEU90       0.0001
     73  CD2       13.0070   15.2820   15.7940 C.3    90  LEU90       0.0001
     74  N         14.7440   11.2640   15.2980 N.3    92  TYR92      -0.1241
     75  CA        14.9050   11.0120   16.7280 C.3    92  TYR92       0.1605
     76  C         14.9070    9.5340   17.0570 C.2    92  TYR92       0.2264
     77  O         14.3040    8.7190   16.3390 O.2    92  TYR92      -0.2867
     78  CB        13.8370   11.7510   17.5490 C.3    92  TYR92       0.0534
     79  CG        12.4620   11.1500   17.4500 C.ar   92  TYR92      -0.0201
     80  CD1       11.6000   11.4890   16.4000 C.ar   92  TYR92      -0.0009
     81  CD2       12.0200   10.2220   18.4100 C.ar   92  TYR92      -0.0009
     82  CE1       10.3370   10.9190   16.3080 C.ar   92  TYR92       0.0417
     83  CE2       10.7560    9.6510   18.3300 C.ar   92  TYR92       0.0417
     84  CZ         9.9240   10.0020   17.2790 C.ar   92  TYR92       0.1957
     85  OH         8.6810    9.4420   17.2080 O.3    92  TYR92      -0.2866
     86  N         14.4150    7.3050   20.7880 N.3    94  CYS94      -0.1235
     87  CA        14.1800    7.2820   22.2190 C.3    94  CYS94       0.1677
     88  C         14.7530    6.0140   22.8380 C.2    94  CYS94       0.2270
     89  O         14.5690    4.9220   22.3090 O.2    94  CYS94      -0.2867
     90  CB        12.6820    7.3550   22.5200 C.3    94  CYS94       0.0956
     91  SG        11.9190    8.9330   22.0870 S.3    94  CYS94      -0.0801
     92  N         14.0420    8.8180   30.5160 N.3   101  LEU101     -0.1245
     93  CA        13.7920    8.7440   29.0780 C.3   101  LEU101      0.1561
     94  C         14.8180    9.6340   28.3980 C.2   101  LEU101      0.2260
     95  O         15.0230   10.7670   28.8220 O.2   101  LEU101     -0.2867
     96  CB        12.3700    9.2070   28.7450 C.3   101  LEU101      0.0270
     97  CG        11.9590    9.2600   27.2670 C.3   101  LEU101      0.0019
     98  CD1       11.8860    7.8690   26.6500 C.3   101  LEU101      0.0001
     99  CD2       10.6390    9.9980   27.1280 C.3   101  LEU101      0.0001
    100  N         16.0230   11.1510   24.5950 N.3   103  THR103     -0.1218
    101  CA        15.6830   11.3580   23.1900 C.3   103  THR103      0.1862
    102  C         16.8610   12.0090   22.4930 C.2   103  THR103      0.2287
    103  O         17.2570   13.1370   22.8420 O.2   103  THR103     -0.2866
    104  CB        14.3980   12.2080   23.0110 C.3   103  THR103      0.1770
    105  OG1       13.3370   11.6380   23.7900 O.3   103  THR103     -0.2211
    106  CG2       13.9840   12.2580   21.5380 C.3   103  THR103      0.0375
    107  N         18.1360   13.6420   19.1830 N.3   105  ILE105     -0.1245
    108  CA        17.5290   14.3600   18.0510 C.3   105  ILE105      0.1561
    109  C         18.6230   14.8200   17.0990 C.2   105  ILE105      0.2260
    110  O         19.6460   15.3580   17.5320 O.2   105  ILE105     -0.2867
    111  CB        16.7180   15.5870   18.5470 C.3   105  ILE105      0.0252
    112  CG1       15.5310   15.1360   19.4150 C.3   105  ILE105      0.0019
    113  CG2       16.2620   16.4580   17.3810 C.3   105  ILE105      0.0019
    114  CD1       14.8750   16.2530   20.2020 C.3   105  ILE105      0.0001
    115  N         14.5580   13.1510   30.2070 N.3   118  TYR118     -0.1241
    116  CA        13.3560   13.3510   31.0270 C.3   118  TYR118      0.1605
    117  C         13.5420   12.5640   32.3160 C.2   118  TYR118      0.2264
    118  O         13.6100   11.3350   32.3000 O.2   118  TYR118     -0.2867
    119  CB        12.0840   12.8990   30.2830 C.3   118  TYR118      0.0534
    120  CG        11.8330   13.6810   29.0230 C.ar  118  TYR118     -0.0201
    121  CD1       12.4420   13.3070   27.8160 C.ar  118  TYR118     -0.0009
    122  CD2       11.0120   14.8140   29.0280 C.ar  118  TYR118     -0.0009
    123  CE1       12.2530   14.0410   26.6560 C.ar  118  TYR118      0.0417
    124  CE2       10.8100   15.5520   27.8690 C.ar  118  TYR118      0.0417
    125  CZ        11.4280   15.1610   26.6870 C.ar  118  TYR118      0.1957
    126  OH        11.2370   15.8980   25.5400 O.3   118  TYR118     -0.2866
@<TRIPOS>BOND
     1    61    60    2
     2    66    67    1
     3    60    59    1
     4    58    59    1
     5    59    62    1
     6    69    68    2
     7    67    68    1
     8    67    70    1
     9    70    71    1
    10    62    63    1
    11    65    63    1
    12    63    64    1
    13    71    73    1
    14    71    72    1
    15    74    75    1
    16    82    80   ar
    17    82    84   ar
    18    77    76    2
    19    80    79   ar
    20    75    76    1
    21    75    78    1
    22   109   110    2
    23   109   108    1
    24    85    84    1
    25    84    83   ar
    26   113   111    1
    27    79    78    1
    28    79    81   ar
    29    44    43    1
    30    44    45    1
    31    40    43    1
    32    40    39    1
    33    40    41    1
    34   108   111    1
    35   108   107    1
    36    83    81   ar
    37   111   112    1
    38    41    42    2
    39    45    46    1
    40    48    47    1
    41    48    51    1
    42    48    49    1
    43   112   114    1
    44    51    52    1
    45    49    50    2
    46    86    87    1
    47    52    53   ar
    48    52    54   ar
    49    28    27    2
    50    37    36    1
    51    35    34    2
    52    30    29    1
    53    53    55   ar
    54   106   104    1
    55    54    56   ar
    56    91    90    1
    57    12    11    1
    58    87    90    1
    59    87    88    1
    60    89    88    2
    61    10    11   ar
    62    10     8   ar
    63    27    26    1
    64   102   103    2
    65   102   101    1
    66    34    33    1
    67    32    33    1
    68    25    26    1
    69    36    33    1
    70    36    38    1
    71    55    57   ar
    72    29    26    1
    73    29    31    1
    74    11     9   ar
    75   104   101    1
    76   104   105    1
    77     8     6   ar
    78   101   100    1
    79    56    57   ar
    80     1     2    1
    81     9     7   ar
    82     6     7   ar
    83     6     5    1
    84     5     2    1
    85     2     3    1
    86   126   125    1
    87    24    23    1
    88    21    23   ar
    89    21    19   ar
    90    23    22   ar
    91    19    18   ar
    92     3     4    2
    93    98    97    1
    94   123   125   ar
    95   123   121   ar
    96   125   124   ar
    97    99    97    1
    98    97    96    1
    99    22    20   ar
   100    18    20   ar
   101    18    17    1
   102    14    13    1
   103    14    15    1
   104    14    17    1
   105   121   120   ar
   106   124   122   ar
   107    15    16    2
   108    94    95    2
   109    94    93    1
   110    96    93    1
   111   120   122   ar
   112   120   119    1
   113    93    92    1
   114   115   116    1
   115   119   116    1
   116   116   117    1
   117   118   117    2
