@<TRIPOS>MOLECULE
tmp/5z4gA00.pdb
 160 148 0 0 0
SMALL
GASTEIGER

@<TRIPOS>ATOM
      1  N          1.7970  -13.7020   -3.4540 N.3    39  TYR39      -0.1241
      2  CA         1.7140  -13.5590   -1.9990 C.3    39  TYR39       0.1605
      3  C          1.7750  -14.9020   -1.2670 C.2    39  TYR39       0.2264
      4  O          1.8440  -14.9440   -0.0380 O.2    39  TYR39      -0.2867
      5  CB         0.4680  -12.7430   -1.6150 C.3    39  TYR39       0.0534
      6  CG         0.3960  -11.4130   -2.3410 C.ar   39  TYR39      -0.0201
      7  CD1        1.1560  -10.3170   -1.9120 C.ar   39  TYR39      -0.0009
      8  CD2       -0.4080  -11.2570   -3.4760 C.ar   39  TYR39      -0.0009
      9  CE1        1.1060   -9.1010   -2.5830 C.ar   39  TYR39       0.0417
     10  CE2       -0.4670  -10.0450   -4.1550 C.ar   39  TYR39       0.0417
     11  CZ         0.2900   -8.9710   -3.7050 C.ar   39  TYR39       0.1957
     12  OH         0.2350   -7.7690   -4.3740 O.3    39  TYR39      -0.2866
     13  N          7.6120   -9.2710   -0.9890 N.3    45  THR45      -0.1218
     14  CA         7.2460   -7.9880   -1.5560 C.3    45  THR45       0.1862
     15  C          8.1280   -6.9330   -0.9130 C.2    45  THR45       0.2287
     16  O          8.2610   -6.8890    0.3180 O.2    45  THR45      -0.2866
     17  CB         5.7680   -7.6370   -1.2440 C.3    45  THR45       0.1770
     18  OG1        4.9020   -8.6530   -1.7580 O.3    45  THR45      -0.2211
     19  CG2        5.3550   -6.2830   -1.8280 C.3    45  THR45       0.0375
     20  N          8.2780    3.9600   -0.3060 N.3    49  TYR49      -0.1241
     21  CA         7.6300    5.2730   -0.4420 C.3    49  TYR49       0.1605
     22  C          8.6620    6.3330   -0.1340 C.2    49  TYR49       0.2264
     23  O          9.3820    6.2140    0.8610 O.2    49  TYR49      -0.2867
     24  CB         6.4710    5.4160    0.5630 C.3    49  TYR49       0.0534
     25  CG         5.2340    4.6360    0.2150 C.ar   49  TYR49      -0.0201
     26  CD1        4.3270    5.1270   -0.7260 C.ar   49  TYR49      -0.0009
     27  CD2        4.9370    3.4320    0.8600 C.ar   49  TYR49      -0.0009
     28  CE1        3.1670    4.4300   -1.0420 C.ar   49  TYR49       0.0417
     29  CE2        3.7790    2.7250    0.5490 C.ar   49  TYR49       0.0417
     30  CZ         2.9080    3.2240   -0.4070 C.ar   49  TYR49       0.1957
     31  OH         1.7830    2.5150   -0.7300 O.3    49  TYR49      -0.2866
     32  N          6.3300    5.9160   -5.2430 N.3    60  VAL60      -0.1245
     33  CA         6.1400    4.5630   -4.7290 C.3    60  VAL60       0.1561
     34  C          6.7480    3.5800   -5.7160 C.2    60  VAL60       0.2260
     35  O          6.6500    3.7630   -6.9330 O.2    60  VAL60      -0.2867
     36  CB         4.6470    4.2300   -4.4200 C.3    60  VAL60       0.0252
     37  CG1        3.7570    4.4290   -5.6500 C.3    60  VAL60       0.0019
     38  CG2        4.4870    2.8170   -3.8460 C.3    60  VAL60       0.0019
     39  N          7.1330   -0.8130   -5.9530 N.3    62  THR62      -0.1218
     40  CA         6.8700   -2.1410   -5.4180 C.3    62  THR62       0.1862
     41  C          7.5270   -3.1800   -6.3140 C.2    62  THR62       0.2287
     42  O          7.3790   -3.1230   -7.5360 O.2    62  THR62      -0.2866
     43  CB         5.3610   -2.4220   -5.3370 C.3    62  THR62       0.1770
     44  OG1        4.6910   -1.2830   -4.7850 O.3    62  THR62      -0.2211
     45  CG2        5.0960   -3.6380   -4.4660 C.3    62  THR62       0.0375
     46  N          8.7120   -7.5590   -6.5730 N.3    64  PHE64      -0.1241
     47  CA         8.5870   -8.9090   -6.0840 C.3    64  PHE64       0.1605
     48  C          9.8550   -9.6200   -6.5680 C.2    64  PHE64       0.2264
     49  O          9.8390  -10.2280   -7.6430 O.2    64  PHE64      -0.2867
     50  CB         7.3000   -9.5560   -6.6320 C.3    64  PHE64       0.0534
     51  CG         6.0230   -8.9270   -6.1210 C.ar   64  PHE64      -0.0203
     52  CD1        5.5350   -7.7300   -6.6630 C.ar   64  PHE64      -0.0042
     53  CD2        5.2890   -9.5450   -5.1110 C.ar   64  PHE64      -0.0042
     54  CE1        4.3600   -7.1590   -6.1900 C.ar   64  PHE64      -0.0003
     55  CE2        4.1060   -8.9840   -4.6450 C.ar   64  PHE64      -0.0003
     56  CZ         3.6440   -7.7900   -5.1790 C.ar   64  PHE64      -0.0000
     57  N          6.0910   -2.2820   -9.9700 N.3    71  MET71      -0.1245
     58  CA         5.3260   -1.0580  -10.1480 C.3    71  MET71       0.1570
     59  C          6.1830    0.1060   -9.6760 C.2    71  MET71       0.2261
     60  O          6.8790   -0.0050   -8.6690 O.2    71  MET71      -0.2867
     61  CB         4.0090   -1.1290   -9.3640 C.3    71  MET71       0.0387
     62  CG         3.0840    0.0730   -9.5300 C.3    71  MET71       0.0595
     63  SD         3.4220    1.4160   -8.3720 S.3    71  MET71      -0.1393
     64  CE         2.6040    0.7940   -6.9020 C.3    71  MET71       0.0692
     65  N          5.6100    4.4700   -9.6700 N.3    73  THR73      -0.1218
     66  CA         4.7950    5.6140  -10.0460 C.3    73  THR73       0.1862
     67  C          4.9620    6.7750   -9.0650 C.2    73  THR73       0.2287
     68  O          5.7090    6.6830   -8.0850 O.2    73  THR73      -0.2866
     69  CB         3.3050    5.2120  -10.2820 C.3    73  THR73       0.1770
     70  OG1        2.6540    6.2070  -11.0810 O.3    73  THR73      -0.2211
     71  CG2        2.5260    5.0050   -8.9810 C.3    73  THR73       0.0375
     72  N          2.5220   10.0970   -7.1860 N.3    75  PHE75      -0.1241
     73  CA         1.1620   10.5390   -6.8860 C.3    75  PHE75       0.1605
     74  C          1.1720   11.8110   -6.0570 C.2    75  PHE75       0.2264
     75  O          2.1460   12.1170   -5.3650 O.2    75  PHE75      -0.2867
     76  CB         0.3460    9.4170   -6.1960 C.3    75  PHE75       0.0534
     77  CG         0.8810    8.9890   -4.8430 C.ar   75  PHE75      -0.0203
     78  CD1        0.4500    9.6130   -3.6620 C.ar   75  PHE75      -0.0042
     79  CD2        1.8090    7.9470   -4.7430 C.ar   75  PHE75      -0.0042
     80  CE1        0.9400    9.2060   -2.4170 C.ar   75  PHE75      -0.0003
     81  CE2        2.3100    7.5550   -3.5050 C.ar   75  PHE75      -0.0003
     82  CZ         1.8670    8.1740   -2.3390 C.ar   75  PHE75      -0.0000
     83  N         -3.4560    3.0770  -12.9660 N.3    83  LEU83      -0.1245
     84  CA        -2.4500    2.0820  -13.3150 C.3    83  LEU83       0.1561
     85  C         -3.1110    0.9350  -14.0550 C.2    83  LEU83       0.2260
     86  O         -4.3170    0.7180  -13.9240 O.2    83  LEU83      -0.2867
     87  CB        -1.7300    1.5580  -12.0700 C.3    83  LEU83       0.0270
     88  CG        -0.8170    2.5640  -11.3600 C.3    83  LEU83       0.0019
     89  CD1       -0.5320    2.1060   -9.9420 C.3    83  LEU83       0.0001
     90  CD2        0.4920    2.7900  -12.1150 C.3    83  LEU83       0.0001
     91  N         -6.8780    0.2880  -13.0690 N.3    90  LEU90      -0.1245
     92  CA        -7.0920    0.5190  -11.6600 C.3    90  LEU90       0.1561
     93  C         -7.0050    2.0310  -11.4650 C.2    90  LEU90       0.2260
     94  O         -6.0210    2.6500  -11.8690 O.2    90  LEU90      -0.2867
     95  CB        -5.9960   -0.2140  -10.8800 C.3    90  LEU90       0.0270
     96  CG        -5.8820   -0.2150   -9.3610 C.3    90  LEU90       0.0019
     97  CD1       -5.2510   -1.5200   -8.8960 C.3    90  LEU90       0.0001
     98  CD2       -5.0970    0.9890   -8.8570 C.3    90  LEU90       0.0001
     99  N         -6.9810    5.0890   -8.5930 N.3    92  TYR92      -0.1241
    100  CA        -6.7200    5.2490   -7.1620 C.3    92  TYR92       0.1605
    101  C         -6.5420    6.7000   -6.7310 C.2    92  TYR92       0.2264
    102  O         -6.1680    7.5490   -7.5380 O.2    92  TYR92      -0.2867
    103  CB        -5.4870    4.4250   -6.7380 C.3    92  TYR92       0.0534
    104  CG        -4.1820    5.0300   -7.1950 C.ar   92  TYR92      -0.0201
    105  CD1       -3.6700    4.7520   -8.4650 C.ar   92  TYR92      -0.0009
    106  CD2       -3.4730    5.9200   -6.3660 C.ar   92  TYR92      -0.0009
    107  CE1       -2.4880    5.3240   -8.8960 C.ar   92  TYR92       0.0417
    108  CE2       -2.2920    6.5030   -6.7890 C.ar   92  TYR92       0.0417
    109  CZ        -1.8030    6.1980   -8.0500 C.ar   92  TYR92       0.1957
    110  OH        -0.6310    6.7690   -8.4650 O.3    92  TYR92      -0.2866
    111  N         -4.7850    8.6740   -3.1900 N.3    94  CYS94      -0.1235
    112  CA        -4.1140    8.5920   -1.8900 C.3    94  CYS94       0.1677
    113  C         -4.4400    9.8040   -1.0470 C.2    94  CYS94       0.2270
    114  O         -4.4340   10.9250   -1.5410 O.2    94  CYS94      -0.2867
    115  CB        -2.6060    8.5120   -2.0630 C.3    94  CYS94       0.0956
    116  SG        -2.0780    6.9890   -2.8460 S.3    94  CYS94      -0.0801
    117  N         -1.4090    6.5450    5.8390 N.3   101  LEU101     -0.1245
    118  CA        -1.6170    6.6970    4.4010 C.3   101  LEU101      0.1561
    119  C         -2.8150    5.8350    4.0170 C.2   101  LEU101      0.2260
    120  O         -2.8820    4.6630    4.4000 O.2   101  LEU101     -0.2867
    121  CB        -0.3660    6.2470    3.6290 C.3   101  LEU101      0.0270
    122  CG        -0.4720    6.2650    2.1020 C.3   101  LEU101      0.0019
    123  CD1       -0.6160    7.6780    1.5560 C.3   101  LEU101      0.0001
    124  CD2        0.7420    5.5880    1.4810 C.3   101  LEU101      0.0001
    125  N         -5.1550    4.5280    0.6680 N.3   103  THR103     -0.1218
    126  CA        -5.2550    4.4200   -0.7750 C.3   103  THR103      0.1862
    127  C         -6.6170    3.8290   -1.0930 C.2   103  THR103      0.2287
    128  O         -6.9330    2.7140   -0.6670 O.2   103  THR103     -0.2866
    129  CB        -4.1160    3.5600   -1.3730 C.3   103  THR103      0.1770
    130  OG1       -2.8620    4.1010   -0.9500 O.3   103  THR103     -0.2211
    131  CG2       -4.1850    3.5480   -2.9060 C.3   103  THR103      0.0375
    132  N         -9.0340    2.5040   -4.0000 N.3   105  ILE105     -0.1245
    133  CA        -8.8530    1.8930   -5.3090 C.3   105  ILE105      0.1561
    134  C        -10.2090    1.4960   -5.9020 C.2   105  ILE105      0.2260
    135  O        -11.0600    0.9520   -5.2050 O.2   105  ILE105     -0.2867
    136  CB        -7.9490    0.6430   -5.1950 C.3   105  ILE105      0.0252
    137  CG1       -6.5530    1.0450   -4.7040 C.3   105  ILE105      0.0019
    138  CG2       -7.8780   -0.1140   -6.5170 C.3   105  ILE105      0.0019
    139  CD1       -5.7150   -0.1020   -4.1870 C.3   105  ILE105      0.0001
    140  N         -2.0230    2.2140    5.4570 N.3   118  TYR118     -0.1241
    141  CA        -0.6420    1.9510    5.8430 C.3   118  TYR118      0.1605
    142  C         -0.4210    2.6420    7.1700 C.2   118  TYR118      0.2264
    143  O         -0.4750    3.8710    7.2480 O.2   118  TYR118     -0.2867
    144  CB         0.3320    2.4800    4.7700 C.3   118  TYR118      0.0534
    145  CG         0.1520    1.7880    3.4420 C.ar  118  TYR118     -0.0201
    146  CD1       -0.8330    2.2100    2.5280 C.ar  118  TYR118     -0.0009
    147  CD2        0.9370    0.6740    3.1040 C.ar  118  TYR118     -0.0009
    148  CE1       -1.0140    1.5510    1.3140 C.ar  118  TYR118      0.0417
    149  CE2        0.7650    0.0140    1.8920 C.ar  118  TYR118      0.0417
    150  CZ        -0.2100    0.4490    1.0080 C.ar  118  TYR118      0.1957
    151  OH        -0.3750   -0.2170   -0.1770 O.3   118  TYR118     -0.2866
    152  N         -0.2190   -3.1030    6.7890 N.3   127  GLN127     -0.1245
    153  CA        -0.9970   -2.7800    5.5930 C.3   127  GLN127      0.1566
    154  C         -2.3350   -3.5090    5.7010 C.2   127  GLN127      0.2260
    155  O         -2.3850   -4.7330    5.6830 O.2   127  GLN127     -0.2867
    156  CB        -0.2250   -3.2100    4.3410 C.3   127  GLN127      0.0367
    157  CG        -0.9450   -2.9840    3.0140 C.3   127  GLN127      0.0905
    158  CD        -0.2830   -3.7140    1.8510 C.2   127  GLN127      0.2608
    159  OE1        0.2070   -4.8350    2.0030 O.2   127  GLN127     -0.2717
    160  NE2       -0.2930   -3.0960    0.6770 N.am  127  GLN127     -0.0878
@<TRIPOS>BOND
     1    85    86    2
     2    85    84    1
     3    84    83    1
     4    84    87    1
     5    91    92    1
     6    90    88    1
     7    87    88    1
     8    94    93    2
     9    92    93    1
    10    92    95    1
    11    88    89    1
    12    70    69    1
    13    95    96    1
    14    69    66    1
    15    69    71    1
    16    58    57    1
    17    58    59    1
    18    58    61    1
    19    66    65    1
    20    66    67    1
    21    59    60    2
    22    62    61    1
    23    62    63    1
    24    96    97    1
    25    96    98    1
    26    67    68    2
    27   107   105   ar
    28   107   109   ar
    29    99   100    1
    30   110   109    1
    31   105   104   ar
    32    63    64    1
    33   109   108   ar
    34    49    48    2
    35   102   101    2
    36    42    41    2
    37   104   103    1
    38   104   106   ar
    39    72    73    1
    40   100   103    1
    41   100   101    1
    42    35    34    2
    43    73    76    1
    44    73    74    1
    45   108   106   ar
    46    52    54   ar
    47    52    51   ar
    48    50    51    1
    49    50    47    1
    50    46    47    1
    51    48    47    1
    52   138   136    1
    53    41    40    1
    54    76    77    1
    55    54    56   ar
    56    51    53   ar
    57    74    75    2
    58    39    40    1
    59   134   133    1
    60   134   135    2
    61    34    33    1
    62    37    36    1
    63    40    43    1
    64    43    44    1
    65    43    45    1
    66   133   136    1
    67   133   132    1
    68    32    33    1
    69   136   137    1
    70    56    55   ar
    71    53    55   ar
    72    77    79   ar
    73    77    78   ar
    74    79    81   ar
    75    33    36    1
    76   137   139    1
    77    36    38    1
    78    12    11    1
    79    10    11   ar
    80    10     8   ar
    81    11     9   ar
    82    78    80   ar
    83    81    82   ar
    84     8     6   ar
    85     1     2    1
    86   111   112    1
    87   131   129    1
    88   116   115    1
    89     9     7   ar
    90    80    82   ar
    91     6     7   ar
    92     6     5    1
    93   115   112    1
    94     2     5    1
    95     2     3    1
    96   112   113    1
    97    19    17    1
    98    18    17    1
    99    14    17    1
   100    14    13    1
   101    14    15    1
   102   114   113    2
   103   129   130    1
   104   129   126    1
   105     3     4    2
   106   127   126    1
   107   127   128    2
   108    28    26   ar
   109    28    30   ar
   110    15    16    2
   111   126   125    1
   112    31    30    1
   113    26    25   ar
   114    21    20    1
   115    21    22    1
   116    21    24    1
   117    30    29   ar
   118   151   150    1
   119    22    23    2
   120    25    24    1
   121    25    27   ar
   122    29    27   ar
   123   160   158   am
   124   150   148   ar
   125   150   149   ar
   126   148   146   ar
   127   124   122    1
   128   123   122    1
   129   158   159    2
   130   158   157    1
   131   149   147   ar
   132   122   121    1
   133   146   145   ar
   134   157   156    1
   135   147   145   ar
   136   145   144    1
   137   121   118    1
   138   119   120    2
   139   119   118    1
   140   156   153    1
   141   118   117    1
   142   144   141    1
   143   140   141    1
   144   153   154    1
   145   153   152    1
   146   155   154    2
   147   141   142    1
   148   142   143    2
