@<TRIPOS>MOLECULE
tmp/5z4hA00.pdb
 119 107 0 0 0
SMALL
GASTEIGER

@<TRIPOS>ATOM
      1  N        -26.8110   18.7540  -12.7660 N.3    28  VAL28      -0.1245
      2  CA       -27.0200   18.8390  -14.2140 C.3    28  VAL28       0.1561
      3  C        -27.8880   20.0730  -14.5440 C.2    28  VAL28       0.2260
      4  O        -27.5680   20.8380  -15.4590 O.2    28  VAL28      -0.2867
      5  CB       -27.6600   17.5500  -14.7760 C.3    28  VAL28       0.0252
      6  CG1      -27.9340   17.6960  -16.2580 C.3    28  VAL28       0.0019
      7  CG2      -26.7420   16.3400  -14.5510 C.3    28  VAL28       0.0019
      8  N        -26.1030   23.5170  -14.6970 N.3    31  ASN31      -0.1225
      9  CA       -25.4020   23.7110  -15.9690 C.3    31  ASN31       0.1785
     10  C        -26.3850   24.0560  -17.0780 C.2    31  ASN31       0.2597
     11  O        -26.1340   24.9770  -17.8440 O.2    31  ASN31      -0.2718
     12  CB       -24.5780   22.4790  -16.3430 C.3    31  ASN31       0.1169
     13  CG       -23.4190   22.2550  -15.3980 C.2    31  ASN31       0.2627
     14  OD1      -23.5450   21.5690  -14.3820 O.2    31  ASN31      -0.2716
     15  ND2      -22.2890   22.8150  -15.7280 N.am   31  ASN31      -0.0877
     16  N        -27.5130   23.3410  -17.1180 N.am   32  ALA32      -0.1979
     17  CA       -28.5690   23.5960  -18.0730 C.3    32  ALA32       0.1597
     18  C        -29.1540   25.0160  -17.9270 C.2    32  ALA32       0.2287
     19  O        -29.3860   25.6780  -18.9160 O.2    32  ALA32      -0.2864
     20  CB       -29.6640   22.5630  -17.9360 C.3    32  ALA32       0.0319
     21  N        -26.7210   27.5040  -19.4140 N.3    35  GLU35      -0.1245
     22  CA       -26.8450   27.4470  -20.8630 C.3    35  GLU35       0.1567
     23  C        -28.1020   28.1290  -21.3720 C.2    35  GLU35       0.2260
     24  O        -28.0410   28.9030  -22.3350 O.2    35  GLU35      -0.2867
     25  CB       -26.7880   25.9940  -21.3580 C.3    35  GLU35       0.0388
     26  CG       -25.4050   25.3710  -21.2050 C.3    35  GLU35       0.1160
     27  CD       -24.3860   26.0210  -22.1270 C.2    35  GLU35       0.3649
     28  OE1      -23.3700   26.5100  -21.6210 O.co2  35  GLU35      -0.2457
     29  OE2      -24.6250   26.0610  -23.3530 O.co2  35  GLU35      -0.2457
     30  N        -31.9470   16.0860  -18.9860 N.3    56  VAL56      -0.1231
     31  CA       -32.0530   17.5290  -18.8340 C.3    56  VAL56       0.1692
     32  C        -31.6170   18.1150  -20.1480 C.2    56  VAL56       0.2592
     33  O        -30.5470   17.7530  -20.6490 O.2    56  VAL56      -0.2718
     34  CB       -31.1330   18.0710  -17.7150 C.3    56  VAL56       0.0266
     35  CG1      -31.3740   19.5640  -17.4920 C.3    56  VAL56       0.0020
     36  CG2      -31.3620   17.3060  -16.4140 C.3    56  VAL56       0.0020
     37  N        -32.4360   19.0080  -20.7070 N.am   57  GLN57      -0.1966
     38  CA       -32.1250   19.6380  -21.9910 C.3    57  GLN57       0.1733
     39  C        -32.3600   21.1200  -21.9110 C.2    57  GLN57       0.2616
     40  O        -33.1970   21.5660  -21.1430 O.2    57  GLN57      -0.2715
     41  CB       -32.9690   19.0440  -23.1190 C.3    57  GLN57       0.0408
     42  CG       -34.4610   19.1210  -22.9000 C.3    57  GLN57       0.0908
     43  CD       -35.2270   18.2610  -23.8800 C.2    57  GLN57       0.2608
     44  OE1      -35.7720   17.2110  -23.5180 O.2    57  GLN57      -0.2717
     45  NE2      -35.2550   18.6910  -25.1280 N.am   57  GLN57      -0.0878
     46  N        -31.6300   21.8690  -22.7250 N.am   58  ASP58      -0.1971
     47  CA       -31.8220   23.3020  -22.8410 C.3    58  ASP58       0.1709
     48  C        -31.8300   23.6800  -24.3180 C.2    58  ASP58       0.2293
     49  O        -31.3400   22.9270  -25.1580 O.2    58  ASP58      -0.2864
     50  CB       -30.7320   24.0790  -22.0930 C.3    58  ASP58       0.1436
     51  CG       -29.3970   24.0280  -22.7900 C.2    58  ASP58       0.3671
     52  OD1      -28.6240   23.1000  -22.4950 O.co2  58  ASP58      -0.2456
     53  OD2      -29.1050   24.9200  -23.6270 O.co2  58  ASP58      -0.2456
     54  N        -23.0950   23.4700  -25.6770 N.3    63  ILE63      -0.1245
     55  CA       -21.7720   23.3300  -25.0670 C.3    63  ILE63       0.1561
     56  C        -20.6840   23.3470  -26.1770 C.2    63  ILE63       0.2260
     57  O        -20.8780   22.7220  -27.2280 O.2    63  ILE63      -0.2867
     58  CB       -21.6920   22.0160  -24.2210 C.3    63  ILE63       0.0252
     59  CG1      -22.4850   22.1400  -22.9030 C.3    63  ILE63       0.0019
     60  CG2      -20.2590   21.6100  -23.9290 C.3    63  ILE63       0.0019
     61  CD1      -21.9330   23.1390  -21.8920 C.3    63  ILE63       0.0001
     62  N        -16.2180   19.6770  -24.7260 N.3    76  ALA76      -0.1245
     63  CA       -17.3210   18.9120  -24.1500 C.3    76  ALA76       0.1562
     64  C        -16.8580   17.7460  -23.2740 C.2    76  ALA76       0.2260
     65  O        -17.4140   17.5410  -22.1900 O.2    76  ALA76      -0.2867
     66  CB       -18.2620   18.4210  -25.2490 C.3    76  ALA76       0.0290
     67  N        -14.9820   18.9820  -19.8930 N.3    79  ILE79      -0.1231
     68  CA       -15.9360   19.3420  -18.8620 C.3    79  ILE79       0.1692
     69  C        -16.5350   18.0890  -18.2110 C.2    79  ILE79       0.2591
     70  O        -16.8370   18.0940  -17.0160 O.2    79  ILE79      -0.2718
     71  CB       -17.0540   20.2310  -19.4380 C.3    79  ILE79       0.0266
     72  CG1      -16.4620   21.5520  -19.9680 C.3    79  ILE79       0.0019
     73  CG2      -18.1450   20.4850  -18.3900 C.3    79  ILE79       0.0020
     74  CD1      -17.3950   22.2840  -20.9130 C.3    79  ILE79       0.0001
     75  N        -16.7160   17.0280  -18.9980 N.am   80  MET80      -0.1979
     76  CA       -17.2650   15.7810  -18.4800 C.3    80  MET80       0.1605
     77  C        -16.2770   14.9300  -17.6940 C.2    80  MET80       0.2287
     78  O        -16.6950   14.0330  -16.9740 O.2    80  MET80      -0.2864
     79  CB       -17.8580   14.9450  -19.6260 C.3    80  MET80       0.0413
     80  CG       -19.2480   15.3930  -20.0060 C.3    80  MET80       0.0598
     81  SD       -20.4480   14.9260  -18.7550 S.3    80  MET80      -0.1393
     82  CE       -21.8790   15.8510  -19.3160 C.3    80  MET80       0.0692
     83  N        -20.4460   18.8180  -13.3710 N.3    88  VAL88      -0.1245
     84  CA       -21.1270   17.6860  -13.9960 C.3    88  VAL88       0.1561
     85  C        -20.2060   16.4620  -14.1780 C.2    88  VAL88       0.2260
     86  O        -20.6940   15.3420  -14.3220 O.2    88  VAL88      -0.2867
     87  CB       -21.7890   18.0970  -15.3330 C.3    88  VAL88       0.0252
     88  CG1      -20.7630   18.3500  -16.4230 C.3    88  VAL88       0.0019
     89  CG2      -22.8080   17.0720  -15.7860 C.3    88  VAL88       0.0019
     90  N        -24.8540   12.2310  -24.1440 N.3   100  LEU100     -0.1245
     91  CA       -25.0780   13.6380  -24.4200 C.3   100  LEU100      0.1561
     92  C        -25.2560   13.8930  -25.8990 C.2   100  LEU100      0.2260
     93  O        -24.7550   13.1150  -26.7410 O.2   100  LEU100     -0.2867
     94  CB       -23.9380   14.4690  -23.8400 C.3   100  LEU100      0.0270
     95  CG       -22.5390   14.2880  -24.4270 C.3   100  LEU100      0.0019
     96  CD1      -22.2850   15.2190  -25.6050 C.3   100  LEU100      0.0001
     97  CD2      -21.4970   14.5680  -23.3600 C.3   100  LEU100      0.0001
     98  N        -25.1890   17.5470  -28.3680 N.3   102  ILE102     -0.1245
     99  CA       -24.9910   18.9860  -28.5100 C.3   102  ILE102      0.1561
    100  C        -25.3740   19.3580  -29.9230 C.2   102  ILE102      0.2260
    101  O        -24.8580   18.7720  -30.8670 O.2   102  ILE102     -0.2867
    102  CB       -23.5290   19.3890  -28.2540 C.3   102  ILE102      0.0252
    103  CG1      -23.1450   19.0890  -26.8100 C.3   102  ILE102      0.0019
    104  CG2      -23.2910   20.8750  -28.5590 C.3   102  ILE102      0.0019
    105  CD1      -21.6540   19.0620  -26.5670 C.3   102  ILE102      0.0001
    106  N        -28.3090   21.7170  -25.7680 N.3   133  THR133     -0.1218
    107  CA       -27.6090   20.5910  -25.1750 C.3   133  THR133      0.1862
    108  C        -28.6210   19.6990  -24.4810 C.2   133  THR133      0.2287
    109  O        -29.6630   20.1740  -24.0270 O.2   133  THR133     -0.2866
    110  CB       -26.5170   21.0720  -24.1900 C.3   133  THR133      0.1770
    111  OG1      -25.6510   21.9970  -24.8470 O.3   133  THR133     -0.2211
    112  CG2      -25.6760   19.9090  -23.6690 C.3   133  THR133      0.0375
    113  N        -28.4640   16.0440  -21.8060 N.3   135  VAL135     -0.1245
    114  CA       -27.7460   14.9590  -21.1270 C.3   135  VAL135      0.1561
    115  C        -28.7880   14.0410  -20.5410 C.2   135  VAL135      0.2260
    116  O        -29.7350   14.5050  -19.8880 O.2   135  VAL135     -0.2867
    117  CB       -26.8000   15.4840  -20.0170 C.3   135  VAL135      0.0252
    118  CG1      -26.2840   14.3550  -19.1100 C.3   135  VAL135      0.0019
    119  CG2      -25.6230   16.2530  -20.6270 C.3   135  VAL135      0.0019
@<TRIPOS>BOND
     1   101   100    2
     2   100    99    1
     3   104   102    1
     4    99    98    1
     5    99   102    1
     6   102   103    1
     7    57    56    2
     8   103   105    1
     9    93    92    2
    10    56    55    1
    11    92    91    1
    12   106   107    1
    13    54    55    1
    14    96    95    1
    15    66    63    1
    16   107   108    1
    17   107   110    1
    18    49    48    2
    19    45    43   am
    20    55    58    1
    21   111   110    1
    22    62    63    1
    23   108   109    2
    24    95    94    1
    25    95    97    1
    26    91    90    1
    27    91    94    1
    28    48    47    1
    29    58    60    1
    30    58    59    1
    31   110   112    1
    32    63    64    1
    33    43    44    2
    34    43    42    1
    35    53    51   ar
    36    29    27   ar
    37    64    65    2
    38    41    42    1
    39    41    38    1
    40    59    61    1
    41    47    46    1
    42    47    50    1
    43    51    52   ar
    44    51    50    1
    45    46    39   am
    46    24    23    2
    47    27    28   ar
    48    27    26    1
    49    38    39    1
    50    38    37    1
    51    39    40    2
    52   113   114    1
    53    23    22    1
    54    25    26    1
    55    25    22    1
    56   114   115    1
    57   114   117    1
    58    74    72    1
    59    22    21    1
    60    37    32   am
    61    33    32    2
    62   119   117    1
    63   115   116    2
    64    32    31    1
    65   117   118    1
    66    80    79    1
    67    80    81    1
    68    72    71    1
    69    67    68    1
    70    79    76    1
    71    71    68    1
    72    71    73    1
    73    82    81    1
    74    75    76    1
    75    75    69   am
    76    30    31    1
    77    19    18    2
    78    68    69    1
    79    31    34    1
    80    76    77    1
    81    69    70    2
    82    17    20    1
    83    17    18    1
    84    17    16    1
    85    11    10    2
    86    34    35    1
    87    34    36    1
    88    77    78    2
    89    16    10   am
    90    10     9    1
    91    88    87    1
    92    12     9    1
    93    12    13    1
    94     6     5    1
    95     9     8    1
    96    89    87    1
    97    15    13   am
    98     4     3    2
    99    13    14    2
   100    87    84    1
   101     5     7    1
   102     5     2    1
   103     3     2    1
   104    86    85    2
   105     2     1    1
   106    85    84    1
   107    84    83    1
