@<TRIPOS>MOLECULE
tmp/5z4mA00.pdb
 160 147 0 0 0
SMALL
GASTEIGER

@<TRIPOS>ATOM
      1  N        -12.9460  -23.6670   23.1610 N.3    65  PHE65      -0.1241
      2  CA       -11.6440  -23.4170   22.5590 C.3    65  PHE65       0.1605
      3  C        -11.7960  -23.2590   21.0480 C.2    65  PHE65       0.2264
      4  O        -12.9160  -23.1580   20.5230 O.2    65  PHE65      -0.2867
      5  CB       -10.6220  -24.4990   22.9770 C.3    65  PHE65       0.0534
      6  CG       -10.8380  -25.9130   22.4400 C.ar   65  PHE65      -0.0203
      7  CD1      -11.8140  -26.7510   22.9410 C.ar   65  PHE65      -0.0042
      8  CD2       -9.9240  -26.4430   21.5090 C.ar   65  PHE65      -0.0042
      9  CE1      -11.9270  -28.0590   22.4890 C.ar   65  PHE65      -0.0003
     10  CE2      -10.0360  -27.7400   21.0290 C.ar   65  PHE65      -0.0003
     11  CZ       -11.0480  -28.5620   21.5290 C.ar   65  PHE65      -0.0000
     12  N        -17.0560  -23.6870   13.3740 N.3    78  ASP78      -0.1239
     13  CA       -17.5320  -24.4770   14.4960 C.3    78  ASP78       0.1674
     14  C        -17.0890  -23.8290   15.8160 C.2    78  ASP78       0.2266
     15  O        -16.2940  -22.8710   15.8540 O.2    78  ASP78      -0.2867
     16  CB       -17.0570  -25.9490   14.4270 C.3    78  ASP78       0.1410
     17  CG       -15.5340  -26.1580   14.4800 C.2    78  ASP78       0.3668
     18  OD1      -14.7350  -25.2590   14.7770 O.co2  78  ASP78      -0.2456
     19  OD2      -15.1070  -27.3230   14.2180 O.co2  78  ASP78      -0.2456
     20  N        -15.4920  -25.2500   19.1730 N.3    80  ASP80      -0.1239
     21  CA       -14.8250  -26.4090   19.7370 C.3    80  ASP80       0.1674
     22  C        -15.0060  -26.4380   21.2480 C.2    80  ASP80       0.2266
     23  O        -14.8310  -25.4170   21.9300 O.2    80  ASP80      -0.2867
     24  CB       -13.3680  -26.3690   19.3440 C.3    80  ASP80       0.1410
     25  CG       -13.1980  -26.3950   17.8510 C.2    80  ASP80       0.3668
     26  OD1      -13.4080  -27.4800   17.3020 O.co2  80  ASP80      -0.2456
     27  OD2      -12.8760  -25.3650   17.2340 O.co2  80  ASP80      -0.2456
     28  N         -3.5150  -41.4780   21.9540 N.3    95  ARG95      -0.1245
     29  CA        -4.7500  -41.9320   21.3280 C.3    95  ARG95       0.1563
     30  C         -5.7640  -42.2480   22.4230 C.2    95  ARG95       0.2260
     31  O         -5.4030  -42.6840   23.5240 O.2    95  ARG95      -0.2867
     32  CB        -4.5060  -43.1930   20.4700 C.3    95  ARG95       0.0307
     33  CG        -3.5800  -42.9320   19.2860 C.3    95  ARG95       0.0489
     34  CD        -4.1040  -41.9220   18.2710 C.3    95  ARG95       0.2205
     35  NE        -5.4340  -42.3270   17.7920 N.pl3  95  ARG95      -0.0865
     36  CZ        -5.6500  -43.1760   16.8240 C.cat  95  ARG95       0.5346
     37  NH1       -4.6470  -43.7000   16.1260 N.pl3  95  ARG95       0.1354
     38  NH2       -6.8660  -43.5450   16.4940 N.pl3  95  ARG95       0.1354
     39  N        -17.1660  -39.2880   15.1330 N.3   123  ILE123     -0.1245
     40  CA       -15.8770  -39.6710   14.5680 C.3   123  ILE123      0.1561
     41  C        -15.0600  -40.3270   15.6730 C.2   123  ILE123      0.2260
     42  O        -14.5330  -39.6430   16.5550 O.2   123  ILE123     -0.2867
     43  CB       -15.1320  -38.4670   13.9770 C.3   123  ILE123      0.0252
     44  CG1      -16.0200  -37.7420   12.9600 C.3   123  ILE123      0.0019
     45  CG2      -13.8210  -38.9200   13.3430 C.3   123  ILE123      0.0019
     46  CD1      -15.4570  -36.4280   12.4710 C.3   123  ILE123      0.0001
     47  N        -12.4600  -42.9620   15.0610 N.3   125  GLN125     -0.1231
     48  CA       -11.1440  -43.4850   14.7000 C.3   125  GLN125      0.1698
     49  C        -10.0290  -42.4510   14.7980 C.2   125  GLN125      0.2592
     50  O         -8.8530  -42.8260   14.7450 O.2   125  GLN125     -0.2718
     51  CB       -11.1790  -44.0500   13.2780 C.3   125  GLN125      0.0381
     52  CG       -12.2540  -45.0850   13.0220 C.3   125  GLN125      0.0905
     53  CD       -12.2220  -46.2490   13.9920 C.2   125  GLN125      0.2608
     54  OE1      -11.1750  -46.8930   14.1550 O.2   125  GLN125     -0.2717
     55  NE2      -13.3410  -46.5080   14.6360 N.am  125  GLN125     -0.0878
     56  N        -10.3640  -41.1780   14.9540 N.am  126  ALA126     -0.1966
     57  CA        -9.3990  -40.0910   14.9130 C.3   126  ALA126      0.1728
     58  C         -8.4700  -40.0750   16.1380 C.2   126  ALA126      0.2616
     59  O         -8.7830  -40.6150   17.1960 O.2   126  ALA126     -0.2715
     60  CB       -10.1480  -38.7700   14.8370 C.3   126  ALA126      0.0334
     61  N         -7.3260  -39.3940   15.9900 N.am  127  ARG127     -0.1963
     62  CA        -6.4640  -39.1240   17.1380 C.3   127  ARG127      0.1729
     63  C         -7.2820  -38.5760   18.3000 C.2   127  ARG127      0.2616
     64  O         -7.1910  -39.0650   19.4340 O.2   127  ARG127     -0.2715
     65  CB        -5.3610  -38.1340   16.7330 C.3   127  ARG127      0.0348
     66  CG        -4.3590  -37.7770   17.8290 C.3   127  ARG127      0.0492
     67  CD        -3.3410  -36.7080   17.3740 C.3   127  ARG127      0.2205
     68  NE        -3.9230  -35.3780   17.2000 N.pl3 127  ARG127     -0.0865
     69  CZ        -4.0700  -34.4810   18.1710 C.cat 127  ARG127      0.5346
     70  NH1       -3.7020  -34.7600   19.4070 N.pl3 127  ARG127      0.1354
     71  NH2       -4.6250  -33.2980   17.9110 N.pl3 127  ARG127      0.1354
     72  N         -8.0760  -37.5410   18.0300 N.am  128  VAL128     -0.1977
     73  CA        -8.9810  -36.9520   19.0080 C.3   128  VAL128      0.1596
     74  C        -10.4020  -37.2540   18.5520 C.2   128  VAL128      0.2287
     75  O        -10.9200  -36.6030   17.6240 O.2   128  VAL128     -0.2864
     76  CB        -8.7310  -35.4370   19.1490 C.3   128  VAL128      0.0276
     77  CG1       -9.6570  -34.8290   20.1990 C.3   128  VAL128      0.0022
     78  CG2       -7.2770  -35.1800   19.5330 C.3   128  VAL128      0.0022
     79  N        -14.3000  -37.0830   18.1810 N.3   130  ILE130     -0.1245
     80  CA       -15.1680  -35.9370   18.4050 C.3   130  ILE130      0.1561
     81  C        -16.5790  -36.2720   18.0020 C.2   130  ILE130      0.2260
     82  O        -16.8300  -37.1770   17.1970 O.2   130  ILE130     -0.2867
     83  CB       -14.7060  -34.6500   17.6670 C.3   130  ILE130      0.0252
     84  CG1      -14.7140  -34.8330   16.1570 C.3   130  ILE130      0.0019
     85  CG2      -13.3640  -34.2020   18.1730 C.3   130  ILE130      0.0019
     86  CD1      -14.4330  -33.5250   15.4130 C.3   130  ILE130      0.0001
     87  N        -19.6540  -34.2480   16.3520 N.3   132  LYS132     -0.1245
     88  CA       -20.0570  -33.0250   15.6670 C.3   132  LYS132      0.1561
     89  C        -21.5690  -32.9370   15.7630 C.2   132  LYS132      0.2260
     90  O        -22.2750  -33.9000   15.4330 O.2   132  LYS132     -0.2867
     91  CB       -19.5900  -33.0220   14.2080 C.3   132  LYS132      0.0271
     92  CG       -18.0680  -32.8880   14.0620 C.3   132  LYS132      0.0035
     93  CD       -17.6520  -32.7990   12.5920 C.3   132  LYS132      0.0206
     94  CE       -16.2350  -32.2300   12.4200 C.3   132  LYS132      0.1093
     95  NZ       -15.2730  -33.1910   11.7970 N.3   132  LYS132     -0.1314
     96  N        -18.1210  -29.0140   18.0520 N.3   143  ALA143     -0.1245
     97  CA       -17.1810  -30.1090   17.8680 C.3   143  ALA143      0.1562
     98  C        -16.7170  -30.4480   19.2870 C.2   143  ALA143      0.2260
     99  O        -15.9580  -29.6870   19.8940 O.2   143  ALA143     -0.2867
    100  CB       -16.0190  -29.7200   16.9600 C.3   143  ALA143      0.0290
    101  N        -15.0990  -32.7660   22.2870 N.3   145  CYS145     -0.1235
    102  CA       -14.0970  -33.7850   22.5470 C.3   145  CYS145      0.1677
    103  C        -13.8540  -33.9140   24.0360 C.2   145  CYS145      0.2270
    104  O        -14.4120  -33.1690   24.8390 O.2   145  CYS145     -0.2867
    105  CB       -12.7910  -33.4710   21.8510 C.3   145  CYS145      0.0956
    106  SG       -11.9420  -32.0840   22.5900 S.3   145  CYS145     -0.0801
    107  N        -10.5980  -34.2390   25.3780 N.3   147  ASN147     -0.1240
    108  CA        -9.1400  -34.0860   25.3740 C.3   147  ASN147      0.1653
    109  C         -8.8380  -32.6130   25.6220 C.2   147  ASN147      0.2266
    110  O         -9.2820  -31.7760   24.8420 O.2   147  ASN147     -0.2867
    111  CB        -8.5870  -34.5430   24.0090 C.3   147  ASN147      0.1155
    112  CG        -7.0760  -34.4470   23.8920 C.2   147  ASN147      0.2627
    113  OD1       -6.4750  -33.4670   24.2870 O.2   147  ASN147     -0.2716
    114  ND2       -6.4530  -35.4800   23.3030 N.am  147  ASN147     -0.0877
    115  N         -6.2910  -29.0940   23.3010 N.3   150  GLY150     -0.1225
    116  CA        -6.6150  -27.9650   22.4290 C.3   150  GLY150      0.1811
    117  C         -6.9970  -26.7260   23.2160 C.2   150  GLY150      0.2280
    118  O         -6.6770  -25.5760   22.8350 O.2   150  GLY150     -0.2866
    119  N         -3.9980  -27.7440    8.3620 N.3   188  SER188     -0.1217
    120  CA        -5.1330  -27.2830    9.1560 C.3   188  SER188      0.1889
    121  C         -4.9790  -25.8030    9.5060 C.2   188  SER188      0.2288
    122  O         -3.9040  -25.2160    9.3900 O.2   188  SER188     -0.2866
    123  CB        -5.2510  -28.1040   10.4500 C.3   188  SER188      0.2089
    124  OG        -4.1040  -27.8770   11.2460 O.3   188  SER188     -0.2183
    125  N         -4.9580  -24.6720   12.4850 N.3   190  TYR190     -0.1241
    126  CA        -4.0400  -24.6210   13.6120 C.3   190  TYR190      0.1605
    127  C         -2.5960  -24.7790   13.1520 C.2   190  TYR190      0.2264
    128  O         -1.7110  -24.0850   13.6600 O.2   190  TYR190     -0.2867
    129  CB        -4.4460  -25.6880   14.6250 C.3   190  TYR190      0.0534
    130  CG        -3.5590  -25.7440   15.8300 C.ar  190  TYR190     -0.0201
    131  CD1       -3.4880  -24.6760   16.7300 C.ar  190  TYR190     -0.0009
    132  CD2       -2.7650  -26.8540   16.0590 C.ar  190  TYR190     -0.0009
    133  CE1       -2.6890  -24.7240   17.8350 C.ar  190  TYR190      0.0417
    134  CE2       -1.9670  -26.9240   17.1770 C.ar  190  TYR190      0.0417
    135  CZ        -1.9050  -25.8520   18.0490 C.ar  190  TYR190      0.1957
    136  OH        -1.1060  -25.8870   19.1720 O.3   190  TYR190     -0.2866
    137  N          3.8770  -34.1710   18.9280 N.3   322  HIS322     -0.1241
    138  CA         2.9160  -34.0690   17.8380 C.3   322  HIS322      0.1621
    139  C          3.4610  -33.2080   16.7050 C.2   322  HIS322      0.2264
    140  O          3.5840  -31.9820   16.8360 O.2   322  HIS322     -0.2867
    141  CB         1.5810  -33.5120   18.3260 C.3   322  HIS322      0.0745
    142  CG         0.5000  -33.6330   17.3020 C.ar  322  HIS322      0.0817
    143  ND1       -0.5800  -32.7810   17.2430 N.ar  322  HIS322     -0.2268
    144  CD2        0.3270  -34.5220   16.2940 C.ar  322  HIS322      0.1154
    145  CE1       -1.3510  -33.1120   16.2340 C.ar  322  HIS322      0.1986
    146  NE2       -0.8340  -34.1760   15.6450 N.ar  322  HIS322     -0.2212
    147  N          1.8200  -33.8870    9.9100 N.3   326  LYS326     -0.1231
    148  CA         2.2570  -35.2340    9.5470 C.3   326  LYS326      0.1693
    149  C          1.4860  -35.8070    8.3590 C.2   326  LYS326      0.2591
    150  O          1.9290  -36.8040    7.7780 O.2   326  LYS326     -0.2718
    151  CB         2.1440  -36.1700   10.7630 C.3   326  LYS326      0.0285
    152  CG         0.7250  -36.4380   11.2160 C.3   326  LYS326      0.0035
    153  CD         0.6870  -37.3080   12.4590 C.3   326  LYS326      0.0206
    154  CE        -0.7340  -37.3970   13.0370 C.3   326  LYS326      0.1093
    155  NZ        -1.4360  -36.0670   13.1810 N.3   326  LYS326     -0.1314
    156  N          0.3420  -35.2220    7.9900 N.am  327  ALA327     -0.1980
    157  CA        -0.4360  -35.6700    6.8390 C.3   327  ALA327      0.1597
    158  C         -0.0290  -35.0030    5.5270 C.2   327  ALA327      0.2287
    159  O         -0.6010  -35.3140    4.4720 O.2   327  ALA327     -0.2864
    160  CB        -1.9170  -35.3900    7.0760 C.3   327  ALA327      0.0319
@<TRIPOS>BOND
     1   159   158    2
     2   158   157    1
     3   157   160    1
     4   157   156    1
     5   150   149    2
     6   156   149   am
     7   149   148    1
     8   119   120    1
     9   120   121    1
    10   120   123    1
    11   122   121    2
    12   148   147    1
    13   148   151    1
    14   123   124    1
    15   151   152    1
    16   152   153    1
    17    95    94    1
    18    94    93    1
    19   153   154    1
    20    46    44    1
    21   125   126    1
    22    93    92    1
    23    44    43    1
    24    52    51    1
    25    52    53    1
    26   154   155    1
    27   127   126    1
    28   127   128    2
    29    51    48    1
    30    45    43    1
    31    12    13    1
    32   126   129    1
    33    43    40    1
    34    53    54    2
    35    53    55   am
    36    92    91    1
    37    91    88    1
    38    19    17   ar
    39    16    17    1
    40    16    13    1
    41    17    18   ar
    42    13    14    1
    43    40    39    1
    44    40    41    1
    45   129   130    1
    46    48    49    1
    47    48    47    1
    48    50    49    2
    49    49    56   am
    50    60    57    1
    51    57    56    1
    52    57    58    1
    53    86    84    1
    54    90    89    2
    55   146   145   ar
    56   146   144   ar
    57    88    89    1
    58    88    87    1
    59    41    42    2
    60    14    15    2
    61   130   132   ar
    62   130   131   ar
    63    61    58   am
    64    61    62    1
    65   132   134   ar
    66    37    36    1
    67    58    59    2
    68    84    83    1
    69   145   143   ar
    70   144   142   ar
    71    38    36    1
    72   139   140    2
    73   139   138    1
    74   131   133   ar
    75    65    62    1
    76    65    66    1
    77    36    35    2
    78   100    97    1
    79    62    63    1
    80   134   135   ar
    81    82    81    2
    82    68    67    1
    83    68    69    2
    84    27    25   ar
    85   143   142   ar
    86    26    25   ar
    87   142   141    1
    88    67    66    1
    89    75    74    2
    90    83    85    1
    91    83    80    1
    92    35    34    1
    93   133   135   ar
    94   138   141    1
    95   138   137    1
    96    25    24    1
    97    97    96    1
    98    97    98    1
    99    71    69    1
   100    81    80    1
   101    72    63   am
   102    72    73    1
   103   135   136    1
   104    69    70    1
   105    79    80    1
   106    34    33    1
   107    63    64    2
   108    74    73    1
   109    73    76    1
   110    76    78    1
   111    76    77    1
   112    20    21    1
   113    33    32    1
   114    98    99    2
   115    24    21    1
   116    21    22    1
   117    32    29    1
   118     4     3    2
   119    10     8   ar
   120    10    11   ar
   121     3     2    1
   122    22    23    2
   123    29    28    1
   124    29    30    1
   125     8     6   ar
   126    11     9   ar
   127   105   102    1
   128   105   106    1
   129   101   102    1
   130    30    31    2
   131   116   117    1
   132   116   115    1
   133     6     7   ar
   134     6     5    1
   135     9     7   ar
   136   102   103    1
   137     2     5    1
   138     2     1    1
   139   118   117    2
   140   114   112   am
   141   112   111    1
   142   112   113    2
   143   111   108    1
   144   103   104    2
   145   110   109    2
   146   108   107    1
   147   108   109    1
