@<TRIPOS>MOLECULE
tmp/5z4mA01.pdb
 172 160 0 0 0
SMALL
GASTEIGER

@<TRIPOS>ATOM
      1  N        -12.9460  -23.6670   23.1610 N.3    65  PHE65      -0.1227
      2  CA       -11.6440  -23.4170   22.5590 C.3    65  PHE65       0.1736
      3  C        -11.7960  -23.2590   21.0480 C.2    65  PHE65       0.2596
      4  O        -12.9160  -23.1580   20.5230 O.2    65  PHE65      -0.2718
      5  CB       -10.6220  -24.4990   22.9770 C.3    65  PHE65       0.0547
      6  CG       -10.8380  -25.9130   22.4400 C.ar   65  PHE65      -0.0202
      7  CD1      -11.8140  -26.7510   22.9410 C.ar   65  PHE65      -0.0042
      8  CD2       -9.9240  -26.4430   21.5090 C.ar   65  PHE65      -0.0042
      9  CE1      -11.9270  -28.0590   22.4890 C.ar   65  PHE65      -0.0003
     10  CE2      -10.0360  -27.7400   21.0290 C.ar   65  PHE65      -0.0003
     11  CZ       -11.0480  -28.5620   21.5290 C.ar   65  PHE65      -0.0000
     12  N        -10.6480  -23.1870   20.3540 N.am   66  GLY66      -0.1942
     13  CA       -10.6260  -23.1260   18.9000 C.3    66  GLY66       0.2014
     14  C        -10.7480  -21.7070   18.3940 C.2    66  GLY66       0.2639
     15  O        -10.6970  -20.7500   19.1630 O.2    66  GLY66      -0.2714
     16  N        -10.9770  -21.5730   17.0750 N.am   67  SER67      -0.1949
     17  CA       -10.7840  -20.2720   16.4150 C.3    67  SER67       0.1924
     18  C        -11.7490  -19.1940   16.9110 C.2    67  SER67       0.2314
     19  O        -11.3830  -18.0050   16.9320 O.2    67  SER67      -0.2863
     20  CB       -10.9240  -20.4300   14.9010 C.3    67  SER67       0.2116
     21  OG       -12.2360  -20.8720   14.5980 O.3    67  SER67      -0.2180
     22  N        -10.0940  -17.8440   20.1490 N.3    70  THR70      -0.1218
     23  CA        -8.8300  -17.1310   19.9570 C.3    70  THR70       0.1862
     24  C         -8.9940  -15.8310   19.1730 C.2    70  THR70       0.2287
     25  O         -8.1450  -14.9470   19.2820 O.2    70  THR70      -0.2866
     26  CB        -7.7990  -18.0130   19.2450 C.3    70  THR70       0.1770
     27  OG1       -8.2650  -18.3890   17.9470 O.3    70  THR70      -0.2211
     28  CG2       -7.5200  -19.2640   20.0270 C.3    70  THR70       0.0375
     29  N         -9.9540  -15.7640   15.5050 N.3    72  ILE72      -0.1245
     30  CA        -9.7800  -15.8640   14.0670 C.3    72  ILE72       0.1561
     31  C        -10.9540  -16.6000   13.4000 C.2    72  ILE72       0.2260
     32  O        -10.8430  -17.0470   12.2560 O.2    72  ILE72      -0.2867
     33  CB        -8.4200  -16.4930   13.6930 C.3    72  ILE72       0.0252
     34  CG1       -8.3110  -17.9620   14.1350 C.3    72  ILE72       0.0019
     35  CG2       -7.2760  -15.7560   14.3430 C.3    72  ILE72       0.0019
     36  CD1       -7.0080  -18.6540   13.6350 C.3    72  ILE72       0.0001
     37  N        -17.7760  -20.7960   11.3800 N.3    77  SER77      -0.1202
     38  CA       -16.8430  -21.6090   12.1410 C.3    77  SER77       0.2020
     39  C        -17.5830  -22.4770   13.1560 C.2    77  SER77       0.2618
     40  O        -18.5890  -22.0710   13.7370 O.2    77  SER77      -0.2717
     41  CB       -15.8370  -20.7100   12.8900 C.3    77  SER77       0.2103
     42  OG       -15.1140  -19.8590   12.0000 O.3    77  SER77      -0.2182
     43  N        -17.0560  -23.6870   13.3740 N.am   78  ASP78      -0.1973
     44  CA       -17.5320  -24.4770   14.4960 C.3    78  ASP78       0.1709
     45  C        -17.0890  -23.8290   15.8160 C.2    78  ASP78       0.2293
     46  O        -16.2940  -22.8710   15.8540 O.2    78  ASP78      -0.2864
     47  CB       -17.0570  -25.9490   14.4270 C.3    78  ASP78       0.1436
     48  CG       -15.5340  -26.1580   14.4800 C.2    78  ASP78       0.3671
     49  OD1      -14.7350  -25.2590   14.7770 O.co2  78  ASP78      -0.2456
     50  OD2      -15.1070  -27.3230   14.2180 O.co2  78  ASP78      -0.2456
     51  N        -15.4920  -25.2500   19.1730 N.3    80  ASP80      -0.1239
     52  CA       -14.8250  -26.4090   19.7370 C.3    80  ASP80       0.1674
     53  C        -15.0060  -26.4380   21.2480 C.2    80  ASP80       0.2266
     54  O        -14.8310  -25.4170   21.9300 O.2    80  ASP80      -0.2867
     55  CB       -13.3680  -26.3690   19.3440 C.3    80  ASP80       0.1410
     56  CG       -13.1980  -26.3950   17.8510 C.2    80  ASP80       0.3668
     57  OD1      -13.4080  -27.4800   17.3020 O.co2  80  ASP80      -0.2456
     58  OD2      -12.8760  -25.3650   17.2340 O.co2  80  ASP80      -0.2456
     59  N         -7.3260  -39.3940   15.9900 N.3   127  ARG127     -0.1245
     60  CA        -6.4640  -39.1240   17.1380 C.3   127  ARG127      0.1563
     61  C         -7.2820  -38.5760   18.3000 C.2   127  ARG127      0.2260
     62  O         -7.1910  -39.0650   19.4340 O.2   127  ARG127     -0.2867
     63  CB        -5.3610  -38.1340   16.7330 C.3   127  ARG127      0.0307
     64  CG        -4.3590  -37.7770   17.8290 C.3   127  ARG127      0.0489
     65  CD        -3.3410  -36.7080   17.3740 C.3   127  ARG127      0.2205
     66  NE        -3.9230  -35.3780   17.2000 N.pl3 127  ARG127     -0.0865
     67  CZ        -4.0700  -34.4810   18.1710 C.cat 127  ARG127      0.5346
     68  NH1       -3.7020  -34.7600   19.4070 N.pl3 127  ARG127      0.1354
     69  NH2       -4.6250  -33.2980   17.9110 N.pl3 127  ARG127      0.1354
     70  N         -6.0430  -30.8320   25.5020 N.3   149  MET149     -0.1230
     71  CA        -4.8450  -30.1700   24.9890 C.3   149  MET149      0.1702
     72  C         -5.2110  -28.9960   24.0850 C.2   149  MET149      0.2592
     73  O         -4.5420  -27.9640   24.1140 O.2   149  MET149     -0.2718
     74  CB        -3.9550  -31.1820   24.2420 C.3   149  MET149      0.0401
     75  CG        -3.3310  -32.2910   25.1630 C.3   149  MET149      0.0596
     76  SD        -2.2940  -31.5700   26.4130 S.3   149  MET149     -0.1393
     77  CE        -0.9640  -30.9550   25.3870 C.3   149  MET149      0.0692
     78  N         -6.2910  -29.0940   23.3010 N.am  150  GLY150     -0.1957
     79  CA        -6.6150  -27.9650   22.4290 C.3   150  GLY150      0.1869
     80  C         -6.9970  -26.7260   23.2160 C.2   150  GLY150      0.2309
     81  O         -6.6770  -25.5760   22.8350 O.2   150  GLY150     -0.2863
     82  N         -3.7370  -25.1010   24.2730 N.3   153  ASN153     -0.1225
     83  CA        -3.0290  -24.2710   23.2920 C.3   153  ASN153      0.1785
     84  C         -3.8710  -23.0850   22.8410 C.2   153  ASN153      0.2597
     85  O         -3.3100  -22.0330   22.4830 O.2   153  ASN153     -0.2718
     86  CB        -2.5000  -25.1040   22.1040 C.3   153  ASN153      0.1169
     87  CG        -3.5790  -25.6800   21.2130 C.2   153  ASN153      0.2627
     88  OD1       -4.3970  -24.9660   20.6580 O.2   153  ASN153     -0.2716
     89  ND2       -3.4920  -26.9810   20.9770 N.am  153  ASN153     -0.0877
     90  N         -5.1950  -23.1720   22.9620 N.am  154  THR154     -0.1953
     91  CA        -6.0580  -22.0160   22.7080 C.3   154  THR154      0.1897
     92  C         -5.7380  -20.8610   23.6600 C.2   154  THR154      0.2313
     93  O         -5.6680  -19.6810   23.2510 O.2   154  THR154     -0.2863
     94  CB        -7.5280  -22.4530   22.8480 C.3   154  THR154      0.1794
     95  OG1       -7.9420  -23.1400   21.6710 O.3   154  THR154     -0.2208
     96  CG2       -8.4320  -21.2480   23.0410 C.3   154  THR154      0.0378
     97  N         -2.5920  -19.2860   22.4060 N.3   157  LEU157     -0.1245
     98  CA        -2.8120  -18.4080   21.2410 C.3   157  LEU157      0.1561
     99  C         -3.5160  -17.1240   21.6200 C.2   157  LEU157      0.2260
    100  O         -3.2190  -16.0600   21.0660 O.2   157  LEU157     -0.2867
    101  CB        -3.6480  -19.1000   20.1650 C.3   157  LEU157      0.0270
    102  CG        -3.0110  -20.3750   19.6240 C.3   157  LEU157      0.0019
    103  CD1       -3.8510  -20.9670   18.4600 C.3   157  LEU157      0.0001
    104  CD2       -1.6620  -20.1720   19.1690 C.3   157  LEU157      0.0001
    105  N         -5.4610  -18.2230    7.0480 N.3   175  LYS175     -0.1245
    106  CA        -6.5850  -19.1560    7.1080 C.3   175  LYS175      0.1561
    107  C         -7.4460  -19.0730    5.8510 C.2   175  LYS175      0.2260
    108  O         -7.7980  -20.0970    5.2510 O.2   175  LYS175     -0.2867
    109  CB        -7.4220  -18.8620    8.3700 C.3   175  LYS175      0.0271
    110  CG        -8.6450  -19.7260    8.5110 C.3   175  LYS175      0.0035
    111  CD        -9.4090  -19.3440    9.7630 C.3   175  LYS175      0.0206
    112  CE       -10.6290  -20.2000    9.9600 C.3   175  LYS175      0.1093
    113  NZ       -11.7310  -19.8450    9.0380 N.3   175  LYS175     -0.1314
    114  N         -7.9050  -21.7980    2.5650 N.3   179  GLU179     -0.1245
    115  CA        -9.1850  -22.2420    2.0580 C.3   179  GLU179      0.1567
    116  C         -9.2860  -21.9820    0.5630 C.2   179  GLU179      0.2260
    117  O         -9.6770  -22.8670   -0.2050 O.2   179  GLU179     -0.2867
    118  CB       -10.3030  -21.5590    2.8580 C.3   179  GLU179      0.0388
    119  CG       -10.4170  -22.1460    4.2930 C.3   179  GLU179      0.1160
    120  CD       -11.0110  -21.1950    5.3290 C.2   179  GLU179      0.3649
    121  OE1      -11.4800  -20.1090    4.9370 O.co2 179  GLU179     -0.2457
    122  OE2      -10.9940  -21.5390    6.5470 O.co2 179  GLU179     -0.2457
    123  N         -3.9980  -27.7440    8.3620 N.3   188  SER188     -0.1202
    124  CA        -5.1330  -27.2830    9.1560 C.3   188  SER188      0.2020
    125  C         -4.9790  -25.8030    9.5060 C.2   188  SER188      0.2619
    126  O         -3.9040  -25.2160    9.3900 O.2   188  SER188     -0.2717
    127  CB        -5.2510  -28.1040   10.4500 C.3   188  SER188      0.2103
    128  OG        -4.1040  -27.8770   11.2460 O.3   188  SER188     -0.2182
    129  N         -6.0740  -25.1920    9.9440 N.am  189  THR189     -0.1938
    130  CA        -5.9970  -23.8300   10.4800 C.3   189  THR189      0.2028
    131  C         -4.9590  -23.7200   11.5870 C.2   189  THR189      0.2642
    132  O         -4.1720  -22.7660   11.6410 O.2   189  THR189     -0.2714
    133  CB        -7.3590  -23.4150   11.0360 C.3   189  THR189      0.1808
    134  OG1       -8.3320  -23.5030    9.9960 O.3   189  THR189     -0.2208
    135  CG2       -7.3050  -21.9940   11.5740 C.3   189  THR189      0.0379
    136  N         -4.9580  -24.6720   12.4850 N.am  190  TYR190     -0.1973
    137  CA        -4.0400  -24.6210   13.6120 C.3   190  TYR190      0.1639
    138  C         -2.5960  -24.7790   13.1520 C.2   190  TYR190      0.2290
    139  O         -1.7110  -24.0850   13.6600 O.2   190  TYR190     -0.2864
    140  CB        -4.4460  -25.6880   14.6250 C.3   190  TYR190      0.0560
    141  CG        -3.5590  -25.7440   15.8300 C.ar  190  TYR190     -0.0198
    142  CD1       -3.4880  -24.6760   16.7300 C.ar  190  TYR190     -0.0009
    143  CD2       -2.7650  -26.8540   16.0590 C.ar  190  TYR190     -0.0009
    144  CE1       -2.6890  -24.7240   17.8350 C.ar  190  TYR190      0.0417
    145  CE2       -1.9670  -26.9240   17.1770 C.ar  190  TYR190      0.0417
    146  CZ        -1.9050  -25.8520   18.0490 C.ar  190  TYR190      0.1957
    147  OH        -1.1060  -25.8870   19.1720 O.3   190  TYR190     -0.2866
    148  N          3.9140  -29.0670   17.5820 N.3   316  ASP316     -0.1239
    149  CA         3.0730  -28.3910   18.5780 C.3   316  ASP316      0.1674
    150  C          3.9260  -27.8660   19.7350 C.2   316  ASP316      0.2266
    151  O          4.7800  -28.5880   20.2430 O.2   316  ASP316     -0.2867
    152  CB         2.0250  -29.3530   19.1030 C.3   316  ASP316      0.1410
    153  CG         0.9460  -28.6330   19.8930 C.2   316  ASP316      0.3668
    154  OD1        1.1930  -28.3210   21.0860 O.co2 316  ASP316     -0.2456
    155  OD2       -0.1210  -28.3940   19.2860 O.co2 316  ASP316     -0.2456
    156  N          3.8770  -34.1710   18.9280 N.3   322  HIS322     -0.1241
    157  CA         2.9160  -34.0690   17.8380 C.3   322  HIS322      0.1621
    158  C          3.4610  -33.2080   16.7050 C.2   322  HIS322      0.2264
    159  O          3.5840  -31.9820   16.8360 O.2   322  HIS322     -0.2867
    160  CB         1.5810  -33.5120   18.3260 C.3   322  HIS322      0.0745
    161  CG         0.5000  -33.6330   17.3020 C.ar  322  HIS322      0.0817
    162  ND1       -0.5800  -32.7810   17.2430 N.ar  322  HIS322     -0.2268
    163  CD2        0.3270  -34.5220   16.2940 C.ar  322  HIS322      0.1154
    164  CE1       -1.3510  -33.1120   16.2340 C.ar  322  HIS322      0.1986
    165  NE2       -0.8340  -34.1760   15.6450 N.ar  322  HIS322     -0.2212
    166  N          2.1090  -31.5890   13.7650 N.3   324  VAL324     -0.1245
    167  CA         0.7430  -31.2580   13.3260 C.3   324  VAL324      0.1561
    168  C          0.5460  -31.3170   11.8140 C.2   324  VAL324      0.2260
    169  O         -0.6010  -31.3280   11.3650 O.2   324  VAL324     -0.2867
    170  CB         0.3100  -29.8660   13.8360 C.3   324  VAL324      0.0252
    171  CG1        0.4000  -29.8030   15.3910 C.3   324  VAL324      0.0019
    172  CG2        1.1460  -28.7700   13.2190 C.3   324  VAL324      0.0019
@<TRIPOS>BOND
     1   117   116    2
     2   116   115    1
     3   115   114    1
     4   115   118    1
     5   118   119    1
     6   119   120    1
     7   121   120   ar
     8   108   107    2
     9   120   122   ar
    10   107   106    1
    11   105   106    1
    12   106   109    1
    13   123   124    1
    14   109   110    1
    15   110   111    1
    16   113   112    1
    17   124   125    1
    18   124   127    1
    19   126   125    2
    20   125   129   am
    21   111   112    1
    22   129   130    1
    23   134   133    1
    24   127   128    1
    25   130   133    1
    26   130   131    1
    27   133   135    1
    28   169   168    2
    29    37    38    1
    30   131   132    2
    31   131   136   am
    32   168   167    1
    33    42    41    1
    34    38    41    1
    35    38    39    1
    36    32    31    2
    37   136   137    1
    38   138   137    1
    39   138   139    2
    40    39    43   am
    41    39    40    2
    42   172   170    1
    43   167   166    1
    44   167   170    1
    45    43    44    1
    46    31    30    1
    47   137   140    1
    48    36    34    1
    49    33    30    1
    50    33    34    1
    51    33    35    1
    52   170   171    1
    53    30    29    1
    54    50    48   ar
    55    47    48    1
    56    47    44    1
    57    48    49   ar
    58    44    45    1
    59    21    20    1
    60   140   141    1
    61    20    17    1
    62   165   164   ar
    63   165   163   ar
    64    45    46    2
    65   141   143   ar
    66   141   142   ar
    67    59    60    1
    68   143   145   ar
    69   164   162   ar
    70   163   161   ar
    71    17    18    1
    72    17    16    1
    73   158   159    2
    74   158   157    1
    75   142   144   ar
    76    63    60    1
    77    63    64    1
    78    18    19    2
    79    16    14   am
    80    60    61    1
    81   145   146   ar
    82    66    65    1
    83    66    67    2
    84    58    56   ar
    85   162   161   ar
    86    57    56   ar
    87   161   160    1
    88    65    64    1
    89   148   149    1
    90   144   146   ar
    91   157   160    1
    92   157   156    1
    93    56    55    1
    94    69    67    1
    95    27    26    1
    96   146   147    1
    97    67    68    1
    98    61    62    2
    99    14    13    1
   100    14    15    2
   101   103   102    1
   102   149   152    1
   103   149   150    1
   104    13    12    1
   105   152   153    1
   106   104   102    1
   107    51    52    1
   108    24    25    2
   109    24    23    1
   110    26    23    1
   111    26    28    1
   112   155   153   ar
   113    55    52    1
   114   102   101    1
   115   150   151    2
   116    52    53    1
   117   153   154   ar
   118    23    22    1
   119   101    98    1
   120    12     3   am
   121     4     3    2
   122    88    87    2
   123    89    87   am
   124    10     8   ar
   125    10    11   ar
   126     3     2    1
   127   100    99    2
   128    87    86    1
   129    98    99    1
   130    98    97    1
   131    53    54    2
   132     8     6   ar
   133    11     9   ar
   134    95    94    1
   135    86    83    1
   136    79    80    1
   137    79    78    1
   138     6     7   ar
   139     6     5    1
   140    85    84    2
   141     9     7   ar
   142     2     5    1
   143     2     1    1
   144    91    94    1
   145    91    90    1
   146    91    92    1
   147    81    80    2
   148    84    90   am
   149    84    83    1
   150    94    96    1
   151    93    92    2
   152    83    82    1
   153    78    72   am
   154    72    73    2
   155    72    71    1
   156    74    71    1
   157    74    75    1
   158    71    70    1
   159    75    76    1
   160    77    76    1
