@<TRIPOS>MOLECULE
tmp/5z4oA00.pdb
 119 107 0 0 0
SMALL
GASTEIGER

@<TRIPOS>ATOM
      1  N         -3.8460  -18.5420  -12.9200 N.3    28  VAL28      -0.1245
      2  CA        -3.6280  -18.6770  -14.3570 C.3    28  VAL28       0.1561
      3  C         -2.7610  -19.8990  -14.6430 C.2    28  VAL28       0.2260
      4  O         -3.0330  -20.6710  -15.5740 O.2    28  VAL28      -0.2867
      5  CB        -3.0170  -17.3910  -14.9490 C.3    28  VAL28       0.0252
      6  CG1       -2.8570  -17.5400  -16.4750 C.3    28  VAL28       0.0019
      7  CG2       -3.9160  -16.1700  -14.6450 C.3    28  VAL28       0.0019
      8  N         -4.5470  -23.2170  -14.8920 N.3    31  ASN31      -0.1225
      9  CA        -5.2260  -23.4560  -16.1490 C.3    31  ASN31       0.1785
     10  C         -4.2120  -23.8140  -17.2250 C.2    31  ASN31       0.2597
     11  O         -4.4680  -24.6800  -17.9940 O.2    31  ASN31      -0.2718
     12  CB        -6.0750  -22.2650  -16.5700 C.3    31  ASN31       0.1169
     13  CG        -7.3790  -22.6690  -17.1750 C.2    31  ASN31       0.2627
     14  OD1       -7.4310  -23.5670  -18.0100 O.2    31  ASN31      -0.2716
     15  ND2       -8.4360  -22.0540  -16.7360 N.am   31  ASN31      -0.0877
     16  N         -3.0650  -23.1660  -17.2300 N.am   32  ALA32      -0.1979
     17  CA        -1.9900  -23.4810  -18.1700 C.3    32  ALA32       0.1597
     18  C         -1.4630  -24.9060  -17.9920 C.2    32  ALA32       0.2287
     19  O         -1.1670  -25.5940  -18.9790 O.2    32  ALA32      -0.2864
     20  CB        -0.8480  -22.4760  -18.0080 C.3    32  ALA32       0.0319
     21  N         -3.8740  -27.3520  -19.4910 N.3    35  GLU35      -0.1245
     22  CA        -3.7690  -27.3540  -20.9500 C.3    35  GLU35       0.1567
     23  C         -2.5020  -28.0480  -21.4270 C.2    35  GLU35       0.2260
     24  O         -2.5290  -28.7820  -22.4280 O.2    35  GLU35      -0.2867
     25  CB        -3.8090  -25.9180  -21.4880 C.3    35  GLU35       0.0388
     26  CG        -5.1960  -25.3060  -21.4580 C.3    35  GLU35       0.1160
     27  CD        -6.1600  -26.0540  -22.3550 C.2    35  GLU35       0.3649
     28  OE1       -7.1750  -26.5800  -21.8430 O.co2  35  GLU35      -0.2457
     29  OE2       -5.8790  -26.1290  -23.5740 O.co2  35  GLU35      -0.2457
     30  N          1.3710  -15.9330  -19.0770 N.3    56  VAL56      -0.1231
     31  CA         1.4520  -17.3770  -18.8990 C.3    56  VAL56       0.1692
     32  C          1.0330  -17.9940  -20.2220 C.2    56  VAL56       0.2592
     33  O         -0.0320  -17.6560  -20.7460 O.2    56  VAL56      -0.2718
     34  CB         0.5250  -17.8790  -17.7750 C.3    56  VAL56       0.0266
     35  CG1        0.6890  -19.3940  -17.6020 C.3    56  VAL56       0.0020
     36  CG2        0.7800  -17.1040  -16.4420 C.3    56  VAL56       0.0020
     37  N          1.8600  -18.8780  -20.7670 N.am   57  GLN57      -0.1966
     38  CA         1.5440  -19.5070  -22.0390 C.3    57  GLN57       0.1733
     39  C          1.7880  -21.0020  -21.9670 C.2    57  GLN57       0.2616
     40  O          2.6220  -21.4690  -21.1940 O.2    57  GLN57      -0.2715
     41  CB         2.3750  -18.9060  -23.1760 C.3    57  GLN57       0.0408
     42  CG         3.8760  -19.0220  -23.0020 C.3    57  GLN57       0.0908
     43  CD         4.6120  -18.1700  -24.0190 C.2    57  GLN57       0.2608
     44  OE1        4.6470  -18.4930  -25.2150 O.2    57  GLN57      -0.2717
     45  NE2        5.1780  -17.0620  -23.5600 N.am   57  GLN57      -0.0878
     46  N          1.0470  -21.7550  -22.7820 N.am   58  ASP58      -0.1971
     47  CA         1.2580  -23.1930  -22.8820 C.3    58  ASP58       0.1709
     48  C          1.2560  -23.5960  -24.3430 C.2    58  ASP58       0.2293
     49  O          0.7040  -22.9030  -25.1970 O.2    58  ASP58      -0.2864
     50  CB         0.1880  -24.0100  -22.1470 C.3    58  ASP58       0.1436
     51  CG        -1.1700  -23.9460  -22.8450 C.2    58  ASP58       0.3671
     52  OD1       -1.4670  -24.7860  -23.7290 O.co2  58  ASP58      -0.2456
     53  OD2       -1.9500  -23.0420  -22.5060 O.co2  58  ASP58      -0.2456
     54  N         -7.4840  -23.4500  -25.8430 N.3    63  ILE63      -0.1245
     55  CA        -8.8060  -23.3940  -25.2060 C.3    63  ILE63       0.1561
     56  C         -9.8870  -23.3950  -26.2870 C.2    63  ILE63       0.2260
     57  O         -9.6930  -22.7800  -27.3530 O.2    63  ILE63      -0.2867
     58  CB        -8.9020  -22.1400  -24.3090 C.3    63  ILE63       0.0252
     59  CG1       -8.0680  -22.3380  -23.0420 C.3    63  ILE63       0.0019
     60  CG2      -10.3360  -21.7960  -23.9420 C.3    63  ILE63       0.0019
     61  CD1       -8.6330  -23.4010  -22.1060 C.3    63  ILE63       0.0001
     62  N        -14.3960  -19.7120  -24.6360 N.3    76  ALA76      -0.1245
     63  CA       -13.3380  -18.9750  -23.9480 C.3    76  ALA76       0.1562
     64  C        -13.9200  -17.8440  -23.1190 C.2    76  ALA76       0.2260
     65  O        -13.5170  -17.6390  -21.9720 O.2    76  ALA76      -0.2867
     66  CB       -12.3280  -18.4150  -24.9600 C.3    76  ALA76       0.0290
     67  N        -15.6370  -19.0950  -19.9160 N.3    79  ILE79      -0.1231
     68  CA       -14.6690  -19.3990  -18.8580 C.3    79  ILE79       0.1692
     69  C        -14.1530  -18.1150  -18.2130 C.2    79  ILE79       0.2591
     70  O        -13.9130  -18.0580  -16.9970 O.2    79  ILE79      -0.2718
     71  CB       -13.5180  -20.2510  -19.4270 C.3    79  ILE79       0.0266
     72  CG1      -14.0700  -21.5610  -20.0050 C.3    79  ILE79       0.0019
     73  CG2      -12.4280  -20.5130  -18.3710 C.3    79  ILE79       0.0020
     74  CD1      -13.0160  -22.3970  -20.6970 C.3    79  ILE79       0.0001
     75  N        -13.9880  -17.0600  -19.0110 N.am   80  MET80      -0.1979
     76  CA       -13.4270  -15.8140  -18.5030 C.3    80  MET80       0.1605
     77  C        -14.4370  -14.9420  -17.7770 C.2    80  MET80       0.2287
     78  O        -14.0230  -14.0210  -17.0640 O.2    80  MET80      -0.2864
     79  CB       -12.8250  -15.0000  -19.6560 C.3    80  MET80       0.0413
     80  CG       -11.4530  -15.4610  -20.0860 C.3    80  MET80       0.0598
     81  SD       -10.2360  -14.9720  -18.8300 S.3    80  MET80      -0.1393
     82  CE        -8.7740  -15.8400  -19.4220 C.3    80  MET80       0.0692
     83  N         -9.8570  -18.6050  -13.6420 N.3    86  VAL86      -0.1245
     84  CA        -9.3570  -17.4120  -14.3070 C.3    86  VAL86       0.1561
     85  C        -10.4040  -16.3120  -14.4070 C.2    86  VAL86       0.2260
     86  O        -10.0320  -15.1650  -14.6550 O.2    86  VAL86      -0.2867
     87  CB        -8.8160  -17.7380  -15.7080 C.3    86  VAL86       0.0252
     88  CG1       -7.6010  -18.6520  -15.6120 C.3    86  VAL86       0.0019
     89  CG2       -9.9020  -18.3560  -16.5770 C.3    86  VAL86       0.0019
     90  N         -5.7950  -12.1930  -24.2790 N.3    98  LEU98      -0.1245
     91  CA        -5.6030  -13.6170  -24.4930 C.3    98  LEU98       0.1561
     92  C         -5.4360  -13.9100  -25.9660 C.2    98  LEU98       0.2260
     93  O         -5.9230  -13.1650  -26.8200 O.2    98  LEU98      -0.2867
     94  CB        -6.7600  -14.4400  -23.9120 C.3    98  LEU98       0.0270
     95  CG        -8.1460  -14.3280  -24.5340 C.3    98  LEU98       0.0019
     96  CD1       -8.2900  -15.2790  -25.7220 C.3    98  LEU98       0.0001
     97  CD2       -9.2000  -14.6350  -23.4570 C.3    98  LEU98       0.0001
     98  N         -5.3920  -17.5570  -28.4930 N.3   100  ILE100     -0.1245
     99  CA        -5.6130  -18.9910  -28.5990 C.3   100  ILE100      0.1561
    100  C         -5.2570  -19.3960  -30.0120 C.2   100  ILE100      0.2260
    101  O         -5.7690  -18.8000  -30.9670 O.2   100  ILE100     -0.2867
    102  CB        -7.0720  -19.3730  -28.3020 C.3   100  ILE100      0.0252
    103  CG1       -7.4170  -19.0610  -26.8370 C.3   100  ILE100      0.0019
    104  CG2       -7.3190  -20.8380  -28.6650 C.3   100  ILE100      0.0019
    105  CD1       -8.9200  -19.1000  -26.5430 C.3   100  ILE100      0.0001
    106  N         -2.2070  -21.6500  -25.8210 N.3   131  THR131     -0.1218
    107  CA        -2.9500  -20.5360  -25.2460 C.3   131  THR131      0.1862
    108  C         -1.9720  -19.6220  -24.5210 C.2   131  THR131      0.2287
    109  O         -0.9580  -20.0910  -23.9940 O.2   131  THR131     -0.2866
    110  CB        -4.0280  -21.0490  -24.2860 C.3   131  THR131      0.1770
    111  OG1       -4.8850  -21.9910  -24.9600 O.3   131  THR131     -0.2211
    112  CG2       -4.8800  -19.9010  -23.7430 C.3   131  THR131      0.0375
    113  N         -2.1600  -15.9610  -21.8760 N.3   133  VAL133     -0.1245
    114  CA        -2.8830  -14.9000  -21.1840 C.3   133  VAL133      0.1561
    115  C         -1.8560  -13.9490  -20.5900 C.2   133  VAL133      0.2260
    116  O         -0.8930  -14.4010  -19.9640 O.2   133  VAL133     -0.2867
    117  CB        -3.7900  -15.4540  -20.0620 C.3   133  VAL133      0.0252
    118  CG1       -4.3130  -14.3300  -19.2110 C.3   133  VAL133      0.0019
    119  CG2       -4.9680  -16.2620  -20.6720 C.3   133  VAL133      0.0019
@<TRIPOS>BOND
     1   101   100    2
     2   100    99    1
     3   104   102    1
     4    99    98    1
     5    99   102    1
     6   102   103    1
     7    57    56    2
     8   103   105    1
     9    93    92    2
    10    56    55    1
    11    92    91    1
    12    54    55    1
    13   106   107    1
    14    96    95    1
    15   107   108    1
    16   107   110    1
    17    44    43    2
    18    55    58    1
    19    49    48    2
    20   111   110    1
    21    66    63    1
    22    62    63    1
    23    95    94    1
    24    95    97    1
    25   108   109    2
    26    91    90    1
    27    91    94    1
    28    48    47    1
    29    58    60    1
    30    58    59    1
    31   110   112    1
    32    43    45   am
    33    43    42    1
    34    63    64    1
    35    52    51   ar
    36    29    27   ar
    37    41    42    1
    38    41    38    1
    39    64    65    2
    40    59    61    1
    41    47    46    1
    42    47    50    1
    43    51    53   ar
    44    51    50    1
    45    46    39   am
    46    24    23    2
    47    27    28   ar
    48    27    26    1
    49    38    39    1
    50    38    37    1
    51    39    40    2
    52   113   114    1
    53    25    26    1
    54    25    22    1
    55    23    22    1
    56   114   115    1
    57   114   117    1
    58    22    21    1
    59    37    32   am
    60    33    32    2
    61    74    72    1
    62   119   117    1
    63   115   116    2
    64    32    31    1
    65    80    79    1
    66    80    81    1
    67   117   118    1
    68    72    71    1
    69    67    68    1
    70    79    76    1
    71    71    68    1
    72    71    73    1
    73    82    81    1
    74    30    31    1
    75    75    76    1
    76    75    69   am
    77    19    18    2
    78    31    34    1
    79    68    69    1
    80    76    77    1
    81    69    70    2
    82    17    20    1
    83    17    18    1
    84    17    16    1
    85    14    13    2
    86    11    10    2
    87    77    78    2
    88    34    35    1
    89    34    36    1
    90    16    10   am
    91    10     9    1
    92    13    15   am
    93    13    12    1
    94    89    87    1
    95    12     9    1
    96     6     5    1
    97     9     8    1
    98    87    88    1
    99    87    84    1
   100     4     3    2
   101     5     7    1
   102     5     2    1
   103    86    85    2
   104     3     2    1
   105    85    84    1
   106     2     1    1
   107    84    83    1
