@<TRIPOS>MOLECULE
tmp/5z4pB02.pdb
 179 169 0 0 0
SMALL
GASTEIGER

@<TRIPOS>ATOM
      1  N         17.3890  -54.7280  -32.6940 N.3   200  TYR200     -0.1241
      2  CA        15.9560  -54.5290  -32.8680 C.3   200  TYR200      0.1605
      3  C         15.5180  -53.3040  -32.0660 C.2   200  TYR200      0.2264
      4  O         15.6570  -53.2760  -30.8370 O.2   200  TYR200     -0.2867
      5  CB        15.1960  -55.7810  -32.4300 C.3   200  TYR200      0.0534
      6  CG        15.7030  -57.0430  -33.1110 C.ar  200  TYR200     -0.0201
      7  CD1       16.7170  -57.7980  -32.5430 C.ar  200  TYR200     -0.0009
      8  CD2       15.1810  -57.4710  -34.3290 C.ar  200  TYR200     -0.0009
      9  CE1       17.1940  -58.9330  -33.1570 C.ar  200  TYR200      0.0417
     10  CE2       15.6580  -58.6150  -34.9520 C.ar  200  TYR200      0.0417
     11  CZ        16.6670  -59.3460  -34.3580 C.ar  200  TYR200      0.1957
     12  OH        17.1660  -60.4960  -34.9480 O.3   200  TYR200     -0.2866
     13  N         10.7800  -63.0600  -32.9580 N.3   236  VAL236     -0.1245
     14  CA        12.0290  -62.7740  -33.6650 C.3   236  VAL236      0.1561
     15  C         13.0060  -63.9400  -33.5570 C.2   236  VAL236      0.2260
     16  O         13.7930  -64.1870  -34.4800 O.2   236  VAL236     -0.2867
     17  CB        12.6420  -61.4490  -33.1310 C.3   236  VAL236      0.0252
     18  CG1       14.0960  -61.3360  -33.4750 C.3   236  VAL236      0.0019
     19  CG2       11.9230  -60.2530  -33.6980 C.3   236  VAL236      0.0019
     20  N         13.2360  -68.9150  -35.0610 N.3   239  CYS239     -0.1221
     21  CA        14.1250  -69.6720  -35.9360 C.3   239  CYS239      0.1808
     22  C         15.3460  -70.1860  -35.1920 C.2   239  CYS239      0.2601
     23  O         15.8510  -71.2680  -35.5020 O.2   239  CYS239     -0.2717
     24  CB        14.5570  -68.8320  -37.1230 C.3   239  CYS239      0.0970
     25  SG        13.2020  -68.4700  -38.2550 S.3   239  CYS239     -0.0800
     26  N         15.8420  -69.4260  -34.2160 N.am  240  LEU240     -0.1979
     27  CA        16.9970  -69.8830  -33.4600 C.3   240  LEU240      0.1596
     28  C         16.6370  -70.9780  -32.4650 C.2   240  LEU240      0.2287
     29  O         17.5260  -71.7100  -32.0150 O.2   240  LEU240     -0.2864
     30  CB        17.6250  -68.7000  -32.7230 C.3   240  LEU240      0.0297
     31  CG        17.8920  -67.4380  -33.5320 C.3   240  LEU240      0.0022
     32  CD1       18.0810  -66.2580  -32.5860 C.3   240  LEU240      0.0001
     33  CD2       19.1090  -67.6320  -34.4170 C.3   240  LEU240      0.0001
     34  N         15.2010  -73.6130  -42.6930 N.3   246  LEU246     -0.1231
     35  CA        16.1320  -72.5690  -42.2940 C.3   246  LEU246      0.1693
     36  C         17.0840  -73.0920  -41.2240 C.2   246  LEU246      0.2592
     37  O         16.6550  -73.5480  -40.1580 O.2   246  LEU246     -0.2718
     38  CB        15.3830  -71.3410  -41.7870 C.3   246  LEU246      0.0284
     39  CG        15.5600  -70.1000  -42.6670 C.3   246  LEU246      0.0019
     40  CD1       15.2110  -68.8530  -41.8630 C.3   246  LEU246      0.0001
     41  CD2       16.9730  -70.0300  -43.2830 C.3   246  LEU246      0.0001
     42  N         18.3800  -73.0440  -41.5310 N.am  247  ASN247     -0.1960
     43  CA        19.4410  -73.2470  -40.5490 C.3   247  ASN247      0.1819
     44  C         19.8470  -71.8620  -40.0580 C.2   247  ASN247      0.2621
     45  O         20.8470  -71.2810  -40.5010 O.2   247  ASN247     -0.2715
     46  CB        20.6130  -74.0070  -41.1770 C.3   247  ASN247      0.1195
     47  CG        21.5980  -74.5140  -40.1470 C.2   247  ASN247      0.2630
     48  OD1       22.7650  -74.1180  -40.1540 O.2   247  ASN247     -0.2716
     49  ND2       21.1370  -75.3930  -39.2510 N.am  247  ASN247     -0.0877
     50  N         19.0510  -71.3200  -39.1310 N.am  248  ALA248     -0.1963
     51  CA        19.1710  -69.9070  -38.7840 C.3   248  ALA248      0.1728
     52  C         20.0890  -69.7090  -37.5810 C.2   248  ALA248      0.2616
     53  O         19.8540  -70.2580  -36.4900 O.2   248  ALA248     -0.2715
     54  CB        17.8020  -69.2670  -38.5380 C.3   248  ALA248      0.0334
     55  N         21.1420  -68.9270  -37.8090 N.am  249  ASP249     -0.1971
     56  CA        22.0710  -68.4640  -36.8030 C.3   249  ASP249      0.1709
     57  C         22.2540  -66.9640  -36.9710 C.2   249  ASP249      0.2293
     58  O         21.8380  -66.3620  -37.9660 O.2   249  ASP249     -0.2864
     59  CB        23.4100  -69.1900  -36.9150 C.3   249  ASP249      0.1436
     60  CG        24.0240  -69.0580  -38.2930 C.2   249  ASP249      0.3671
     61  OD1       24.4830  -67.9510  -38.6640 O.co2 249  ASP249     -0.2456
     62  OD2       24.0260  -70.0760  -39.0150 O.co2 249  ASP249     -0.2456
     63  N         24.3870  -65.6720  -40.2580 N.3   252  LYS252     -0.1231
     64  CA        23.6380  -65.7270  -41.5080 C.3   252  LYS252      0.1693
     65  C         22.5250  -64.6870  -41.5130 C.2   252  LYS252      0.2591
     66  O         22.2800  -64.0210  -42.5340 O.2   252  LYS252     -0.2718
     67  CB        23.0780  -67.1340  -41.7210 C.3   252  LYS252      0.0285
     68  CG        24.1140  -68.1220  -42.2560 C.3   252  LYS252      0.0035
     69  CD        23.5770  -69.5180  -42.5850 C.3   252  LYS252      0.0206
     70  CE        24.6110  -70.3110  -43.3920 C.3   252  LYS252      0.1093
     71  NZ        24.2660  -71.7540  -43.6080 N.3   252  LYS252     -0.1314
     72  N         21.8620  -64.5070  -40.3650 N.am  253  LEU253     -0.1980
     73  CA        20.8200  -63.4980  -40.2890 C.3   253  LEU253      0.1596
     74  C         21.3970  -62.1220  -40.5800 C.2   253  LEU253      0.2287
     75  O         20.8760  -61.3920  -41.4280 O.2   253  LEU253     -0.2864
     76  CB        20.1250  -63.5500  -38.9270 C.3   253  LEU253      0.0297
     77  CG        19.0620  -62.4730  -38.6430 C.3   253  LEU253      0.0022
     78  CD1       17.8960  -62.4540  -39.6270 C.3   253  LEU253      0.0001
     79  CD2       18.5440  -62.6220  -37.2470 C.3   253  LEU253      0.0001
     80  N         22.3960  -61.3570  -44.2780 N.3   256  ASN256     -0.1225
     81  CA        21.3470  -61.0810  -45.2430 C.3   256  ASN256      0.1785
     82  C         20.5070  -59.8800  -44.8730 C.2   256  ASN256      0.2597
     83  O         19.8900  -59.2690  -45.7570 O.2   256  ASN256     -0.2718
     84  CB        20.4810  -62.3200  -45.3860 C.3   256  ASN256      0.1169
     85  CG        21.2820  -63.4990  -45.8860 C.2   256  ASN256      0.2627
     86  OD1       21.8430  -63.4480  -46.9770 O.2   256  ASN256     -0.2716
     87  ND2       21.4260  -64.5220  -45.0540 N.am  256  ASN256     -0.0877
     88  N         20.4930  -59.5010  -43.6010 N.am  257  MET257     -0.1979
     89  CA        19.7350  -58.3270  -43.2160 C.3   257  MET257      0.1605
     90  C         20.5190  -57.0320  -43.3950 C.2   257  MET257      0.2287
     91  O         19.9230  -56.0050  -43.7410 O.2   257  MET257     -0.2864
     92  CB        19.2490  -58.4870  -41.7760 C.3   257  MET257      0.0413
     93  CG        18.1730  -59.5680  -41.6630 C.3   257  MET257      0.0598
     94  SD        16.7300  -59.1870  -42.6940 S.3   257  MET257     -0.1393
     95  CE        16.0440  -57.8130  -41.7800 C.3   257  MET257      0.0692
     96  N         15.8400  -54.6340  -46.5310 N.3   308  THR308     -0.1203
     97  CA        15.7180  -56.0770  -46.3800 C.3   308  THR308      0.1994
     98  C         14.6140  -56.3300  -45.3750 C.2   308  THR308      0.2618
     99  O         14.3360  -55.4810  -44.5230 O.2   308  THR308     -0.2717
    100  CB        16.9870  -56.7730  -45.8550 C.3   308  THR308      0.1784
    101  OG1       17.3560  -56.1980  -44.5960 O.3   308  THR308     -0.2211
    102  CG2       18.1610  -56.6750  -46.8330 C.3   308  THR308      0.0376
    103  N         14.0090  -57.5190  -45.4720 N.am  309  VAL309     -0.1965
    104  CA        12.8940  -57.9340  -44.6290 C.3   309  VAL309      0.1727
    105  C         13.0520  -59.4180  -44.3140 C.2   309  VAL309      0.2616
    106  O         13.4810  -60.1900  -45.1740 O.2   309  VAL309     -0.2715
    107  CB        11.5460  -57.6570  -45.3290 C.3   309  VAL309      0.0290
    108  CG1       10.4100  -58.1250  -44.4940 C.3   309  VAL309      0.0023
    109  CG2       11.3840  -56.1920  -45.6320 C.3   309  VAL309      0.0023
    110  N         12.7190  -59.8130  -43.0790 N.am  310  ALA310     -0.1963
    111  CA        12.6470  -61.2180  -42.6690 C.3   310  ALA310      0.1728
    112  C         11.3670  -61.4560  -41.8730 C.2   310  ALA310      0.2616
    113  O         11.2090  -60.9030  -40.7790 O.2   310  ALA310     -0.2715
    114  CB        13.8540  -61.6250  -41.8170 C.3   310  ALA310      0.0334
    115  N         10.4800  -62.3110  -42.3920 N.am  311  ALA311     -0.1963
    116  CA         9.1880  -62.6300  -41.7890 C.3   311  ALA311      0.1728
    117  C          9.1600  -64.0930  -41.3530 C.2   311  ALA311      0.2616
    118  O          9.7700  -64.9470  -41.9990 O.2   311  ALA311     -0.2715
    119  CB         8.0550  -62.3660  -42.7910 C.3   311  ALA311      0.0334
    120  N          8.4650  -64.4020  -40.2550 N.am  312  ILE312     -0.1977
    121  CA         8.2170  -65.8060  -39.9120 C.3   312  ILE312      0.1596
    122  C          6.8010  -65.9930  -39.4080 C.2   312  ILE312      0.2287
    123  O          6.2930  -65.1990  -38.6090 O.2   312  ILE312     -0.2864
    124  CB         9.1910  -66.3890  -38.8730 C.3   312  ILE312      0.0276
    125  CG1        9.0700  -65.6770  -37.5550 C.3   312  ILE312      0.0022
    126  CG2       10.6160  -66.2970  -39.3600 C.3   312  ILE312      0.0022
    127  CD1       10.3050  -65.8640  -36.7420 C.3   312  ILE312      0.0001
    128  N         15.1810  -59.7380  -54.3390 N.3   343  ASN343     -0.1225
    129  CA        14.7270  -60.7940  -53.4580 C.3   343  ASN343      0.1785
    130  C         15.0220  -60.4560  -52.0060 C.2   343  ASN343      0.2597
    131  O         15.4540  -61.3010  -51.2210 O.2   343  ASN343     -0.2718
    132  CB        15.3580  -62.1150  -53.8880 C.3   343  ASN343      0.1169
    133  CG        15.0660  -62.4230  -55.3590 C.2   343  ASN343      0.2627
    134  OD1       15.9630  -62.6530  -56.1690 O.2   343  ASN343     -0.2716
    135  ND2       13.7860  -62.3710  -55.7130 N.am  343  ASN343     -0.0877
    136  N         14.7790  -59.1970  -51.6450 N.am  344  ASN344     -0.1974
    137  CA        15.2070  -58.7480  -50.3280 C.3   344  ASN344      0.1688
    138  C         14.2600  -59.1730  -49.2000 C.2   344  ASN344      0.2292
    139  O         14.5520  -58.8950  -48.0360 O.2   344  ASN344     -0.2864
    140  CB        15.4310  -57.2290  -50.3440 C.3   344  ASN344      0.1181
    141  CG        14.1750  -56.4420  -50.6310 C.2   344  ASN344      0.2629
    142  OD1       13.0980  -57.0020  -50.7700 O.2   344  ASN344     -0.2716
    143  ND2       14.3140  -55.1240  -50.7260 N.am  344  ASN344     -0.0877
    144  N         12.5260  -62.3540  -47.1670 N.3   346  LYS346     -0.1231
    145  CA        12.6850  -63.7720  -46.8910 C.3   346  LYS346      0.1693
    146  C         11.7480  -64.1860  -45.7650 C.2   346  LYS346      0.2593
    147  O         11.5630  -63.4600  -44.7820 O.2   346  LYS346     -0.2718
    148  CB        14.1180  -64.1100  -46.5200 C.3   346  LYS346      0.0285
    149  CG        14.2830  -65.5110  -45.9390 C.3   346  LYS346      0.0035
    150  CD        15.1170  -66.4230  -46.8340 C.3   346  LYS346      0.0206
    151  CE        15.0700  -67.8570  -46.3210 C.3   346  LYS346      0.1093
    152  NZ        16.2960  -68.6260  -46.6540 N.3   346  LYS346     -0.1314
    153  N         11.1830  -65.3770  -45.9120 N.am  347  THR347     -0.1939
    154  CA        10.0510  -65.8240  -45.1270 C.3   347  THR347      0.2028
    155  C         10.3210  -67.2290  -44.6310 C.2   347  THR347      0.2642
    156  O         10.7800  -68.0770  -45.3940 O.2   347  THR347     -0.2714
    157  CB         8.7760  -65.7720  -45.9560 C.3   347  THR347      0.1808
    158  OG1        8.7470  -64.5560  -46.7190 O.3   347  THR347     -0.2208
    159  CG2        7.5720  -65.8700  -45.0520 C.3   347  THR347      0.0379
    160  N         10.0890  -67.4590  -43.3480 N.am  348  ALA348     -0.1977
    161  CA        10.1930  -68.7800  -42.7530 C.3   348  ALA348      0.1597
    162  C          8.8480  -69.1170  -42.1480 C.2   348  ALA348      0.2287
    163  O          7.9790  -68.2540  -42.0120 O.2   348  ALA348     -0.2864
    164  CB        11.2990  -68.8490  -41.6930 C.3   348  ALA348      0.0319
    165  N          5.5830  -62.8800  -37.0970 N.3   362  THR362     -0.1218
    166  CA         6.5230  -61.8610  -36.6380 C.3   362  THR362      0.1862
    167  C          7.3840  -61.3650  -37.7960 C.2   362  THR362      0.2287
    168  O          7.8230  -62.1560  -38.6420 O.2   362  THR362     -0.2866
    169  CB         7.4120  -62.4110  -35.5250 C.3   362  THR362      0.1770
    170  OG1        6.5830  -63.0130  -34.5210 O.3   362  THR362     -0.2211
    171  CG2        8.2090  -61.3130  -34.8980 C.3   362  THR362      0.0375
    172  N         10.5260  -58.5660  -39.2490 N.3   364  ILE364     -0.1245
    173  CA        11.7980  -57.8950  -38.9580 C.3   364  ILE364      0.1561
    174  C         12.1740  -57.0540  -40.1710 C.2   364  ILE364      0.2260
    175  O         12.5500  -57.6070  -41.2130 O.2   364  ILE364     -0.2867
    176  CB        12.9200  -58.8810  -38.6500 C.3   364  ILE364      0.0252
    177  CG1       12.5540  -59.7380  -37.4580 C.3   364  ILE364      0.0019
    178  CG2       14.2250  -58.1360  -38.3980 C.3   364  ILE364      0.0019
    179  CD1       13.6800  -60.6290  -36.9760 C.3   364  ILE364      0.0001
@<TRIPOS>BOND
     1   134   133    2
     2   135   133   am
     3   133   132    1
     4   128   129    1
     5   132   129    1
     6   129   130    1
     7   130   136   am
     8   130   131    2
     9   136   137    1
    10   142   141    2
    11   143   141   am
    12   141   140    1
    13   140   137    1
    14   137   138    1
    15   138   139    2
    16   144   145    1
    17    86    85    2
    18   145   148    1
    19   145   146    1
    20   150   151    1
    21   150   149    1
    22   102   100    1
    23   158   157    1
    24   152   151    1
    25    96    97    1
    26   148   149    1
    27    97   100    1
    28    97    98    1
    29   157   154    1
    30   157   159    1
    31   153   146   am
    32   153   154    1
    33    85    84    1
    34    85    87   am
    35   100   101    1
    36   146   147    2
    37    83    82    2
    38   109   107    1
    39   103    98   am
    40   103   104    1
    41   156   155    2
    42    84    81    1
    43    98    99    2
    44   107   104    1
    45   107   108    1
    46    81    82    1
    47    81    80    1
    48   106   105    2
    49   154   155    1
    50    82    88   am
    51   155   160   am
    52   104   105    1
    53   105   110   am
    54    91    90    2
    55    71    70    1
    56    88    89    1
    57    90    89    1
    58    70    69    1
    59   160   161    1
    60    41    39    1
    61    89    92    1
    62   110   111    1
    63   119   116    1
    64   161   162    1
    65   161   164    1
    66    94    95    1
    67    94    93    1
    68    34    35    1
    69   111   112    1
    70   111   114    1
    71    39    40    1
    72    39    38    1
    73    69    68    1
    74    66    65    2
    75   115   112   am
    76   115   116    1
    77    35    38    1
    78    35    36    1
    79    68    67    1
    80   162   163    2
    81   118   117    2
    82   112   113    2
    83   116   117    1
    84    92    93    1
    85    67    64    1
    86    42    36   am
    87    42    43    1
    88    65    64    1
    89    65    72   am
    90    64    63    1
    91    75    74    2
    92   117   120   am
    93    36    37    2
    94   175   174    2
    95    46    43    1
    96    46    47    1
    97    74    73    1
    98    43    44    1
    99    45    44    2
   100    72    73    1
   101    73    76    1
   102   120   121    1
   103   174   173    1
   104    48    47    2
   105    47    49   am
   106    44    50   am
   107   121   122    1
   108   121   124    1
   109    78    77    1
   110   122   123    2
   111   126   124    1
   112   172   173    1
   113    50    51    1
   114    62    60   ar
   115   173   176    1
   116    76    77    1
   117   124   125    1
   118    51    54    1
   119    51    52    1
   120    61    60   ar
   121   176   178    1
   122   176   177    1
   123    77    79    1
   124   168   167    2
   125    60    59    1
   126    25    24    1
   127    58    57    2
   128    55    52   am
   129    55    56    1
   130   167   166    1
   131    52    53    2
   132   125   127    1
   133   177   179    1
   134    24    21    1
   135   165   166    1
   136    57    56    1
   137    59    56    1
   138   166   169    1
   139    21    22    1
   140    21    20    1
   141   169   171    1
   142   169   170    1
   143    23    22    2
   144    22    26   am
   145    10    11   ar
   146    10     8   ar
   147    12    11    1
   148    16    15    2
   149    33    31    1
   150    11     9   ar
   151     8     6   ar
   152    26    27    1
   153    19    17    1
   154    14    15    1
   155    14    17    1
   156    14    13    1
   157    31    30    1
   158    31    32    1
   159    18    17    1
   160    27    30    1
   161    27    28    1
   162     9     7   ar
   163     6     7   ar
   164     6     5    1
   165     2     1    1
   166     2     5    1
   167     2     3    1
   168    28    29    2
   169     3     4    2
