@<TRIPOS>MOLECULE
tmp/5z4uD01.pdb
 167 158 0 0 0
SMALL
GASTEIGER

@<TRIPOS>ATOM
      1  N        -10.7530   -4.3100  -30.4070 N.3   236  VAL236     -0.1245
      2  CA       -11.8070   -4.6430  -29.4310 C.3   236  VAL236      0.1561
      3  C        -12.5830   -5.9140  -29.7770 C.2   236  VAL236      0.2260
      4  O        -13.2190   -6.4970  -28.9010 O.2   236  VAL236     -0.2867
      5  CB       -12.7900   -3.4740  -29.1770 C.3   236  VAL236      0.0252
      6  CG1      -12.0260   -2.2070  -28.8130 C.3   236  VAL236      0.0019
      7  CG2      -13.7180   -3.2390  -30.3650 C.3   236  VAL236      0.0019
      8  N        -10.6690  -10.5430  -29.1350 N.3   239  CYS239     -0.1221
      9  CA       -11.0270  -11.6220  -28.2150 C.3   239  CYS239      0.1808
     10  C        -12.2400  -12.4360  -28.6770 C.2   239  CYS239      0.2601
     11  O        -12.2870  -13.6480  -28.4610 O.2   239  CYS239     -0.2717
     12  CB       -11.2640  -11.0480  -26.8290 C.3   239  CYS239      0.0970
     13  SG        -9.8450  -10.0910  -26.2690 S.3   239  CYS239     -0.0800
     14  N        -13.2050  -11.7750  -29.3130 N.am  240  LEU240     -0.1979
     15  CA       -14.3500  -12.4580  -29.9310 C.3   240  LEU240      0.1596
     16  C        -13.9360  -13.3000  -31.1460 C.2   240  LEU240      0.2287
     17  O        -14.4940  -14.3670  -31.3980 O.2   240  LEU240     -0.2864
     18  CB       -15.3910  -11.4330  -30.3880 C.3   240  LEU240      0.0297
     19  CG       -16.0010  -10.5350  -29.3170 C.3   240  LEU240      0.0022
     20  CD1      -16.9220   -9.4860  -29.9250 C.3   240  LEU240      0.0001
     21  CD2      -16.7410  -11.3850  -28.2990 C.3   240  LEU240      0.0001
     22  N         -9.1190  -17.0000  -22.5280 N.3   246  LEU246     -0.1231
     23  CA       -10.3890  -16.3300  -22.2780 C.3   246  LEU246      0.1693
     24  C        -11.3540  -16.7530  -23.3900 C.2   246  LEU246      0.2592
     25  O        -10.9310  -16.9590  -24.5290 O.2   246  LEU246     -0.2718
     26  CB       -10.1810  -14.8080  -22.2710 C.3   246  LEU246      0.0284
     27  CG       -11.2710  -13.8930  -21.7000 C.3   246  LEU246      0.0019
     28  CD1      -11.5810  -14.2270  -20.2480 C.3   246  LEU246      0.0001
     29  CD2      -10.8270  -12.4430  -21.8240 C.3   246  LEU246      0.0001
     30  N        -12.6360  -16.9060  -23.0560 N.am  247  ASN247     -0.1960
     31  CA       -13.6720  -17.2620  -24.0490 C.3   247  ASN247      0.1819
     32  C        -14.1200  -16.0320  -24.8550 C.2   247  ASN247      0.2621
     33  O        -14.0650  -16.0330  -26.0850 O.2   247  ASN247     -0.2715
     34  CB       -14.8950  -17.9480  -23.3840 C.3   247  ASN247      0.1195
     35  CG       -15.0190  -19.4290  -23.7400 C.2   247  ASN247      0.2630
     36  OD1      -14.8680  -19.8190  -24.9010 O.2   247  ASN247     -0.2716
     37  ND2      -15.3240  -20.2560  -22.7410 N.am  247  ASN247     -0.0877
     38  N        -14.5790  -15.0070  -24.1410 N.am  248  ALA248     -0.1963
     39  CA       -14.9500  -13.7010  -24.6970 C.3   248  ALA248      0.1728
     40  C        -16.2140  -13.7030  -25.5400 C.2   248  ALA248      0.2616
     41  O        -16.1860  -14.1250  -26.6940 O.2   248  ALA248     -0.2715
     42  CB       -13.7860  -13.0850  -25.4710 C.3   248  ALA248      0.0334
     43  N        -17.3150  -13.2380  -24.9480 N.am  249  ASP249     -0.1957
     44  CA       -18.5530  -12.9320  -25.6850 C.3   249  ASP249      0.1840
     45  C        -19.0500  -11.5480  -25.2740 C.2   249  ASP249      0.2621
     46  O        -18.5080  -10.9460  -24.3470 O.2   249  ASP249     -0.2715
     47  CB       -19.6320  -14.0170  -25.4890 C.3   249  ASP249      0.1450
     48  CG       -20.0190  -14.2310  -24.0390 C.2   249  ASP249      0.3671
     49  OD1      -20.9970  -14.9640  -23.8020 O.co2 249  ASP249     -0.2456
     50  OD2      -19.3590  -13.6870  -23.1390 O.co2 249  ASP249     -0.2456
     51  N        -20.0770  -11.0470  -25.9510 N.am  250  LEU250     -0.1977
     52  CA       -20.5020   -9.6630  -25.7420 C.3   250  LEU250      0.1596
     53  C        -21.1280   -9.4680  -24.3680 C.2   250  LEU250      0.2287
     54  O        -20.9670   -8.3990  -23.7700 O.2   250  LEU250     -0.2864
     55  CB       -21.4850   -9.1840  -26.8180 C.3   250  LEU250      0.0297
     56  CG       -20.9470   -9.0330  -28.2460 C.3   250  LEU250      0.0022
     57  CD1      -20.9890  -10.3650  -28.9590 C.3   250  LEU250      0.0001
     58  CD2      -21.7200   -7.9910  -29.0490 C.3   250  LEU250      0.0001
     59  N        -20.5320  -11.1630  -21.4110 N.3   252  LYS252     -0.1231
     60  CA       -19.5570  -11.1100  -20.3130 C.3   252  LYS252      0.1693
     61  C        -18.7770   -9.7970  -20.2950 C.2   252  LYS252      0.2591
     62  O        -18.4950   -9.2700  -19.2180 O.2   252  LYS252     -0.2718
     63  CB       -18.6130  -12.3200  -20.3190 C.3   252  LYS252      0.0285
     64  CG       -19.2890  -13.6090  -19.8600 C.3   252  LYS252      0.0035
     65  CD       -18.3290  -14.7860  -19.7940 C.3   252  LYS252      0.0206
     66  CE       -19.0080  -16.0470  -19.2880 C.3   252  LYS252      0.1093
     67  NZ       -18.1090  -17.2350  -19.2940 N.3   252  LYS252     -0.1314
     68  N        -18.4650   -9.2600  -21.4770 N.am  253  LEU253     -0.1980
     69  CA       -17.8200   -7.9430  -21.5960 C.3   253  LEU253      0.1596
     70  C        -18.7490   -6.8580  -21.0600 C.2   253  LEU253      0.2287
     71  O        -18.3520   -6.0610  -20.2130 O.2   253  LEU253     -0.2864
     72  CB       -17.4550   -7.6330  -23.0630 C.3   253  LEU253      0.0297
     73  CG       -16.3810   -6.5860  -23.4640 C.3   253  LEU253      0.0022
     74  CD1      -16.7960   -5.7700  -24.6930 C.3   253  LEU253      0.0001
     75  CD2      -15.9950   -5.6330  -22.3650 C.3   253  LEU253      0.0001
     76  N        -19.3290   -6.9870  -17.2680 N.3   256  ASN256     -0.1225
     77  CA       -18.1850   -6.5160  -16.5130 C.3   256  ASN256      0.1785
     78  C        -17.8230   -5.0500  -16.7250 C.2   256  ASN256      0.2597
     79  O        -17.3040   -4.4240  -15.8040 O.2   256  ASN256     -0.2718
     80  CB       -16.9920   -7.4270  -16.7810 C.3   256  ASN256      0.1169
     81  CG       -17.2000   -8.8170  -16.2330 C.2   256  ASN256      0.2627
     82  OD1      -17.6570   -8.9850  -15.1000 O.2   256  ASN256     -0.2716
     83  ND2      -16.8600   -9.8220  -17.0240 N.am  256  ASN256     -0.0877
     84  N        -18.1020   -4.4940  -17.9060 N.am  257  MET257     -0.1979
     85  CA       -17.7940   -3.0760  -18.1790 C.3   257  MET257      0.1605
     86  C        -18.8700   -2.0920  -17.7410 C.2   257  MET257      0.2287
     87  O        -18.5470   -0.9320  -17.5000 O.2   257  MET257     -0.2864
     88  CB       -17.5110   -2.8390  -19.6630 C.3   257  MET257      0.0413
     89  CG       -16.2210   -3.4510  -20.1620 C.3   257  MET257      0.0598
     90  SD       -14.6910   -2.9130  -19.3960 S.3   257  MET257     -0.1393
     91  CE       -14.7010   -1.1730  -19.8000 C.3   257  MET257      0.0692
     92  N        -14.5980    1.1630  -15.0340 N.3   302  THR302     -0.1203
     93  CA       -14.0740   -0.1170  -15.5120 C.3   302  THR302      0.1994
     94  C        -13.1770    0.0790  -16.7240 C.2   302  THR302      0.2618
     95  O        -13.3660    1.0150  -17.4870 O.2   302  THR302     -0.2717
     96  CB       -15.2000   -1.0980  -15.9080 C.3   302  THR302      0.1784
     97  OG1      -16.1250   -0.4490  -16.7870 O.3   302  THR302     -0.2211
     98  CG2      -15.9390   -1.6080  -14.6750 C.3   302  THR302      0.0376
     99  N        -12.2000   -0.8080  -16.8800 N.am  303  VAL303     -0.1965
    100  CA       -11.2930   -0.8050  -18.0250 C.3   303  VAL303      0.1727
    101  C        -11.0590   -2.2390  -18.5240 C.2   303  VAL303      0.2616
    102  O        -11.0290   -3.1910  -17.7450 O.2   303  VAL303     -0.2715
    103  CB        -9.9420   -0.1300  -17.6790 C.3   303  VAL303      0.0290
    104  CG1       -8.9350   -0.2590  -18.8250 C.3   303  VAL303      0.0023
    105  CG2      -10.1610    1.3320  -17.3230 C.3   303  VAL303      0.0023
    106  N        -10.9160   -2.3670  -19.8380 N.am  304  ALA304     -0.1963
    107  CA       -10.4990   -3.5950  -20.4850 C.3   304  ALA304      0.1728
    108  C         -9.3200   -3.2600  -21.3970 C.2   304  ALA304      0.2616
    109  O         -9.3690   -2.2810  -22.1430 O.2   304  ALA304     -0.2715
    110  CB       -11.6500   -4.1740  -21.2840 C.3   304  ALA304      0.0334
    111  N         -8.2630   -4.0650  -21.3240 N.am  305  ALA305     -0.1963
    112  CA        -7.0430   -3.8470  -22.1010 C.3   305  ALA305      0.1728
    113  C         -6.7350   -5.1130  -22.8920 C.2   305  ALA305      0.2616
    114  O         -6.7880   -6.2080  -22.3330 O.2   305  ALA305     -0.2715
    115  CB        -5.8900   -3.5060  -21.1650 C.3   305  ALA305      0.0334
    116  N         -6.4160   -4.9720  -24.1800 N.am  306  VAL306     -0.1977
    117  CA        -6.0870   -6.1260  -25.0330 C.3   306  VAL306      0.1596
    118  C         -4.7120   -5.9510  -25.6730 C.2   306  VAL306      0.2287
    119  O         -4.5280   -5.0660  -26.5120 O.2   306  VAL306     -0.2864
    120  CB        -7.1350   -6.3500  -26.1520 C.3   306  VAL306      0.0276
    121  CG1       -6.9080   -7.7010  -26.8290 C.3   306  VAL306      0.0022
    122  CG2       -8.5500   -6.2530  -25.5930 C.3   306  VAL306      0.0022
    123  N        -10.8210   -4.7870   -8.4950 N.3   337  ASN337     -0.1225
    124  CA       -10.3450   -5.5520   -9.6530 C.3   337  ASN337      0.1785
    125  C        -11.0820   -5.1520  -10.9200 C.2   337  ASN337      0.2597
    126  O        -11.6340   -5.9860  -11.6390 O.2   337  ASN337     -0.2718
    127  CB       -10.4870   -7.0440   -9.3680 C.3   337  ASN337      0.1169
    128  CG       -10.0080   -7.4020   -7.9820 C.2   337  ASN337      0.2627
    129  OD1      -10.8150   -7.6810   -7.0950 O.2   337  ASN337     -0.2716
    130  ND2       -8.6950   -7.3370   -7.7680 N.am  337  ASN337     -0.0877
    131  N        -11.0910   -3.8470  -11.1670 N.am  338  ASN338     -0.1974
    132  CA       -11.9110   -3.2500  -12.2170 C.3   338  ASN338      0.1688
    133  C        -11.1540   -2.9680  -13.5060 C.2   338  ASN338      0.2292
    134  O        -11.6740   -2.2700  -14.3670 O.2   338  ASN338     -0.2864
    135  CB       -12.6080   -1.9830  -11.6990 C.3   338  ASN338      0.1181
    136  CG       -11.6410   -0.8740  -11.3160 C.2   338  ASN338      0.2629
    137  OD1      -10.4240   -1.0260  -11.3890 O.2   338  ASN338     -0.2716
    138  ND2      -12.1900    0.2510  -10.8850 N.am  338  ASN338     -0.0877
    139  N         -9.3230   -5.3340  -16.4040 N.3   340  LYS340     -0.1231
    140  CA        -9.0030   -6.6820  -16.8820 C.3   340  LYS340      0.1693
    141  C         -8.2000   -6.6460  -18.1480 C.2   340  LYS340      0.2593
    142  O         -8.3030   -5.7080  -18.9360 O.2   340  LYS340     -0.2718
    143  CB       -10.2640   -7.5050  -17.1130 C.3   340  LYS340      0.0285
    144  CG       -11.1070   -7.6910  -15.8630 C.3   340  LYS340      0.0035
    145  CD       -10.3520   -8.2320  -14.6670 C.3   340  LYS340      0.0206
    146  CE       -11.2980   -8.5410  -13.5310 C.3   340  LYS340      0.1093
    147  NZ       -10.5110   -9.1100  -12.4050 N.3   340  LYS340     -0.1314
    148  N         -7.4170   -7.7030  -18.3380 N.am  341  THR341     -0.1939
    149  CA        -6.4100   -7.7620  -19.3810 C.3   341  THR341      0.2028
    150  C         -6.3690   -9.1410  -20.0310 C.2   341  THR341      0.2642
    151  O         -6.1240  -10.1390  -19.3520 O.2   341  THR341     -0.2714
    152  CB        -5.0350   -7.4400  -18.7810 C.3   341  THR341      0.1808
    153  OG1       -5.0640   -6.1200  -18.2200 O.3   341  THR341     -0.2208
    154  CG2       -3.9330   -7.5240  -19.8380 C.3   341  THR341      0.0379
    155  N         -6.6150   -9.1780  -21.3420 N.am  342  ALA342     -0.1977
    156  CA        -6.4490  -10.3840  -22.1580 C.3   342  ALA342      0.1597
    157  C         -5.2540  -10.2210  -23.0980 C.2   342  ALA342      0.2287
    158  O         -4.8680   -9.0960  -23.4370 O.2   342  ALA342     -0.2864
    159  CB        -7.7090  -10.6570  -22.9600 C.3   342  ALA342      0.0319
    160  N        -10.0690   -0.2150  -23.8310 N.3   358  ILE358     -0.1245
    161  CA       -11.4870    0.1440  -23.7140 C.3   358  ILE358      0.1561
    162  C        -11.7390    0.5600  -22.2700 C.2   358  ILE358      0.2260
    163  O        -11.5620   -0.2470  -21.3630 O.2   358  ILE358     -0.2867
    164  CB       -12.4420   -1.0240  -24.0620 C.3   358  ILE358      0.0252
    165  CG1      -12.0150   -1.7360  -25.3520 C.3   358  ILE358      0.0019
    166  CG2      -13.8770   -0.5110  -24.1950 C.3   358  ILE358      0.0019
    167  CD1      -12.6830   -3.0810  -25.5660 C.3   358  ILE358      0.0001
@<TRIPOS>BOND
     1    17    16    2
     2    16    15    1
     3     1     2    1
     4    18    15    1
     5    18    19    1
     6     7     5    1
     7    15    14    1
     8    20    19    1
     9     3     2    1
    10     3     4    2
    11     2     5    1
    12    19    21    1
    13    14    10   am
    14     5     6    1
    15     8     9    1
    16    58    56    1
    17    57    56    1
    18    10    11    2
    19    10     9    1
    20    56    55    1
    21     9    12    1
    22   121   120    1
    23    12    13    1
    24    55    52    1
    25    41    40    2
    26   119   118    2
    27   120   122    1
    28   120   117    1
    29    33    32    2
    30    51    52    1
    31    51    45   am
    32    52    53    1
    33    44    47    1
    34    44    45    1
    35    44    43    1
    36   118   117    1
    37   167   165    1
    38    40    43   am
    39    40    39    1
    40    47    48    1
    41    42    39    1
    42   165   164    1
    43    45    46    2
    44   117   116    1
    45    36    35    2
    46    32    38   am
    47    32    31    1
    48    39    38    1
    49    74    73    1
    50    25    24    2
    51    53    54    2
    52   166   164    1
    53   116   113   am
    54   164   161    1
    55    31    34    1
    56    31    30    1
    57    48    49   ar
    58    48    50   ar
    59   160   161    1
    60    35    34    1
    61    35    37   am
    62   161   162    1
    63    73    72    1
    64    73    75    1
    65   158   157    2
    66    24    30   am
    67    24    23    1
    68   157   156    1
    69    72    69    1
    70   159   156    1
    71   113   114    2
    72   113   112    1
    73    22    23    1
    74    23    26    1
    75    26    27    1
    76   162   163    2
    77   156   155    1
    78   109   108    2
    79   112   111    1
    80   112   115    1
    81    29    27    1
    82    27    28    1
    83    69    68    1
    84    69    70    1
    85    68    61   am
    86    59    60    1
    87   108   111   am
    88   108   107    1
    89   155   150   am
    90   110   107    1
    91    70    71    2
    92   107   106    1
    93    63    60    1
    94    63    64    1
    95    60    61    1
    96    61    62    2
    97    89    88    1
    98    89    90    1
    99   150   149    1
   100   150   151    2
   101    64    65    1
   102   106   101   am
   103   154   152    1
   104    91    90    1
   105    65    66    1
   106    88    85    1
   107   149   152    1
   108   149   148    1
   109    67    66    1
   110   142   141    2
   111   104   103    1
   112   152   153    1
   113   101   100    1
   114   101   102    2
   115   148   141   am
   116    85    84    1
   117    85    86    1
   118   141   140    1
   119   100   103    1
   120   100    99    1
   121    84    78   am
   122    86    87    2
   123   103   105    1
   124    95    94    2
   125    76    77    1
   126   143   140    1
   127   143   144    1
   128    83    81   am
   129   140   139    1
   130    99    94   am
   131    97    96    1
   132    80    77    1
   133    80    81    1
   134    78    77    1
   135    78    79    2
   136    94    93    1
   137    81    82    2
   138    96    93    1
   139    96    98    1
   140   144   145    1
   141    93    92    1
   142   145   146    1
   143   134   133    2
   144   146   147    1
   145   133   132    1
   146   132   135    1
   147   132   131    1
   148   135   136    1
   149   126   125    2
   150   137   136    2
   151   136   138   am
   152   131   125   am
   153   125   124    1
   154   124   127    1
   155   124   123    1
   156   127   128    1
   157   128   130   am
   158   128   129    2
