@<TRIPOS>MOLECULE
tmp/5z4vA02.pdb
 139 136 0 0 0
SMALL
GASTEIGER

@<TRIPOS>ATOM
      1  N        -15.5110   -3.4780    6.5600 N.3     6  TYR6       -0.1241
      2  CA       -15.3980   -2.0760    6.9740 C.3     6  TYR6        0.1605
      3  C        -14.4110   -1.8690    8.0780 C.2     6  TYR6        0.2264
      4  O        -14.3450   -2.6940    9.0330 O.2     6  TYR6       -0.2867
      5  CB       -16.7540   -1.4890    7.3830 C.3     6  TYR6        0.0534
      6  CG       -17.6610   -1.1760    6.2410 C.ar    6  TYR6       -0.0201
      7  CD1      -18.5310   -2.1410    5.6890 C.ar    6  TYR6       -0.0009
      8  CD2      -17.6970    0.0840    5.6940 C.ar    6  TYR6       -0.0009
      9  CE1      -19.3960   -1.8470    4.6410 C.ar    6  TYR6        0.0417
     10  CE2      -18.5990    0.4190    4.6560 C.ar    6  TYR6        0.0417
     11  CZ       -19.4340   -0.5370    4.1540 C.ar    6  TYR6        0.1957
     12  OH       -20.3100   -0.2480    3.1040 O.3     6  TYR6       -0.2866
     13  N        -15.7230    7.0280    7.8120 N.3    37  PHE37      -0.1241
     14  CA       -16.3890    7.6440    6.6430 C.3    37  PHE37       0.1605
     15  C        -15.7280    8.8680    6.2150 C.2    37  PHE37       0.2264
     16  O        -15.0650    9.5560    7.0580 O.2    37  PHE37      -0.2867
     17  CB       -17.8600    7.9780    7.0000 C.3    37  PHE37       0.0534
     18  CG       -18.7260    6.8310    7.2640 C.ar   37  PHE37      -0.0203
     19  CD1      -19.2300    6.0290    6.1670 C.ar   37  PHE37      -0.0042
     20  CD2      -19.0750    6.4970    8.5090 C.ar   37  PHE37      -0.0042
     21  CE1      -20.0080    4.8430    6.4240 C.ar   37  PHE37      -0.0003
     22  CE2      -19.9150    5.3360    8.7340 C.ar   37  PHE37      -0.0003
     23  CZ       -20.3620    4.5500    7.7100 C.ar   37  PHE37      -0.0000
     24  N        -23.9730    7.6990    9.5850 N.3    78  TRP78      -0.1298
     25  CA       -25.0390    8.3960   10.4240 C.3    78  TRP78       0.1291
     26  C        -24.6580    9.7970   11.0270 C.3    78  TRP78       0.2013
     27  O        -25.5530   10.7270   11.2590 O.3    78  TRP78      -0.2188
     28  CB       -25.6850    7.5140   11.5680 C.3    78  TRP78       0.0497
     29  CG       -24.5270    7.1160   12.4640 C.ar   78  TRP78      -0.0001
     30  CD1      -24.1420    7.7490   13.6250 C.ar   78  TRP78       0.0946
     31  CD2      -23.6660    5.9550   12.3060 C.ar   78  TRP78       0.0152
     32  NE1      -23.0400    7.1140   14.1880 N.ar   78  TRP78      -0.2442
     33  CE2      -22.7370    5.9980   13.4310 C.ar   78  TRP78       0.0810
     34  CE3      -23.5770    4.9210   11.3850 C.ar   78  TRP78       0.0012
     35  CZ2      -21.7050    5.0690   13.5880 C.ar   78  TRP78       0.0191
     36  CZ3      -22.5510    3.9570   11.5710 C.ar   78  TRP78       0.0001
     37  CH2      -21.6740    4.0440   12.6700 C.ar   78  TRP78       0.0015
     38  N        -22.7420    5.4450    1.3660 N.3   117  ALA117     -0.1245
     39  CA       -23.4400    5.0030    2.5950 C.3   117  ALA117      0.1562
     40  C        -24.3700    6.1440    3.0360 C.2   117  ALA117      0.2260
     41  O        -24.2290    6.8630    4.0190 O.2   117  ALA117     -0.2867
     42  CB       -22.4580    4.6820    3.7170 C.3   117  ALA117      0.0290
     43  N        -27.5670    7.0590    4.6230 N.3   119  LEU119     -0.1231
     44  CA       -28.3540    6.3790    5.6370 C.3   119  LEU119      0.1693
     45  C        -29.3920    7.2910    6.1010 C.2   119  LEU119      0.2592
     46  O        -29.3110    8.0400    7.1280 O.2   119  LEU119     -0.2718
     47  CB       -27.4970    5.8570    6.7920 C.3   119  LEU119      0.0284
     48  CG       -26.2310    5.0960    6.4250 C.3   119  LEU119      0.0019
     49  CD1      -25.5500    4.8090    7.8030 C.3   119  LEU119      0.0001
     50  CD2      -26.5160    3.9820    5.5470 C.3   119  LEU119      0.0001
     51  N        -30.5730    7.3380    5.4330 N.am  120  TYR120     -0.1976
     52  CA       -31.0390    6.5350    4.2590 C.3   120  TYR120      0.1639
     53  C        -31.7870    7.4990    3.3890 C.2   120  TYR120      0.2290
     54  O        -32.4890    8.4160    3.7970 O.2   120  TYR120     -0.2864
     55  CB       -32.0200    5.4130    4.7060 C.3   120  TYR120      0.0560
     56  CG       -31.2870    4.4530    5.6190 C.ar  120  TYR120     -0.0198
     57  CD1      -30.5690    3.3160    5.1310 C.ar  120  TYR120     -0.0009
     58  CD2      -31.2470    4.6590    7.0000 C.ar  120  TYR120     -0.0009
     59  CE1      -29.8970    2.4810    5.9730 C.ar  120  TYR120      0.0417
     60  CE2      -30.5260    3.8080    7.8050 C.ar  120  TYR120      0.0417
     61  CZ       -29.8570    2.7520    7.3090 C.ar  120  TYR120      0.1957
     62  OH       -29.0590    1.8790    8.1180 O.3   120  TYR120     -0.2866
     63  N        -23.8980    0.7570    0.3710 N.3   156  ALA156     -0.1245
     64  CA       -24.4660    0.0750    1.5460 C.3   156  ALA156      0.1562
     65  C        -25.9370    0.4200    1.5570 C.2   156  ALA156      0.2260
     66  O        -26.2790    1.5980    1.5960 O.2   156  ALA156     -0.2867
     67  CB       -23.7810    0.5320    2.7920 C.3   156  ALA156      0.0290
     68  N        -27.4940   -4.4010    4.3860 N.3   183  LEU183     -0.1245
     69  CA       -27.2590   -4.1180    5.8540 C.3   183  LEU183      0.1561
     70  C        -28.1740   -5.0250    6.7090 C.2   183  LEU183      0.2260
     71  O        -28.9610   -4.5470    7.4860 O.2   183  LEU183     -0.2867
     72  CB       -27.4720   -2.6230    6.1070 C.3   183  LEU183      0.0270
     73  CG       -26.5180   -1.7230    5.3580 C.3   183  LEU183      0.0019
     74  CD1      -26.9640   -0.2850    5.5850 C.3   183  LEU183      0.0001
     75  CD2      -25.1090   -1.9540    5.7790 C.3   183  LEU183      0.0001
     76  N        -28.5720   -6.6110    9.3930 N.3   185  TYR185     -0.1227
     77  CA       -28.2680   -6.6790   10.8210 C.3   185  TYR185      0.1736
     78  C        -28.9060   -5.5440   11.5810 C.2   185  TYR185      0.2595
     79  O        -28.4460   -5.1920   12.6750 O.2   185  TYR185     -0.2718
     80  CB       -26.7900   -6.8290   11.0480 C.3   185  TYR185      0.0548
     81  CG       -25.9810   -5.8240   10.3590 C.ar  185  TYR185     -0.0200
     82  CD1      -25.9520   -4.4830   10.6390 C.ar  185  TYR185     -0.0009
     83  CD2      -25.0990   -6.2060    9.3420 C.ar  185  TYR185     -0.0009
     84  CE1      -25.0690   -3.5690   10.0230 C.ar  185  TYR185      0.0417
     85  CE2      -24.3050   -5.2570    8.6710 C.ar  185  TYR185      0.0417
     86  CZ       -24.2600   -3.9590    8.9960 C.ar  185  TYR185      0.1957
     87  OH       -23.4380   -3.0490    8.4460 O.3   185  TYR185     -0.2866
     88  N        -30.0070   -4.9770   11.0640 N.am  186  ASP186     -0.1974
     89  CA       -30.7910   -3.9430   11.7940 C.3   186  ASP186      0.1709
     90  C        -32.2670   -4.2670   11.8670 C.2   186  ASP186      0.2293
     91  O        -33.1540   -3.4090   11.7090 O.2   186  ASP186     -0.2864
     92  CB       -30.4790   -2.5940   11.1460 C.3   186  ASP186      0.1436
     93  CG       -30.9120   -1.3910   11.9310 C.2   186  ASP186      0.3671
     94  OD1      -31.0540   -1.4930   13.1850 O.co2 186  ASP186     -0.2456
     95  OD2      -31.2120   -0.3750   11.2800 O.co2 186  ASP186     -0.2456
     96  N        -20.5700   -7.0320   15.8000 N.3   239  PHE239     -0.1241
     97  CA       -21.0110   -6.4690   17.0250 C.3   239  PHE239      0.1605
     98  C        -22.3360   -7.2090   17.4200 C.2   239  PHE239      0.2264
     99  O        -22.9090   -7.9460   16.5670 O.2   239  PHE239     -0.2867
    100  CB       -21.2930   -5.0410   16.9350 C.3   239  PHE239      0.0534
    101  CG       -22.4180   -4.6650   15.9540 C.ar  239  PHE239     -0.0203
    102  CD1      -22.1810   -4.4960   14.5530 C.ar  239  PHE239     -0.0042
    103  CD2      -23.6730   -4.5910   16.3900 C.ar  239  PHE239     -0.0042
    104  CE1      -23.2570   -4.2710   13.6640 C.ar  239  PHE239     -0.0003
    105  CE2      -24.7060   -4.3280   15.5090 C.ar  239  PHE239     -0.0003
    106  CZ       -24.4960   -4.1230   14.1400 C.ar  239  PHE239     -0.0000
    107  N        -26.1240   -6.5500   20.0160 N.3   241  ARG241     -0.1245
    108  CA       -26.9520   -5.5160   20.5680 C.3   241  ARG241      0.1563
    109  C        -27.4320   -6.0030   21.9360 C.2   241  ARG241      0.2260
    110  O        -27.7130   -7.2030   22.1410 O.2   241  ARG241     -0.2867
    111  CB       -28.1170   -5.2370   19.6800 C.3   241  ARG241      0.0307
    112  CG       -27.7640   -4.6940   18.3370 C.3   241  ARG241      0.0489
    113  CD       -27.2390   -3.3010   18.1540 C.3   241  ARG241      0.2205
    114  NE       -27.8210   -2.4570   19.0510 N.pl3 241  ARG241     -0.0865
    115  CZ       -28.6990   -1.5870   18.7720 C.cat 241  ARG241      0.5346
    116  NH1      -29.1470   -1.5940   17.5060 N.pl3 241  ARG241      0.1354
    117  NH2      -29.1200   -0.8490   19.8250 N.pl3 241  ARG241      0.1354
    118  N        -24.9930   -1.4670   22.2810 N.3   271  ILE271     -0.1245
    119  CA       -24.1110   -2.1550   21.4210 C.3   271  ILE271      0.1561
    120  C        -22.8930   -2.6380   22.1560 C.2   271  ILE271      0.2260
    121  O        -22.4540   -2.0110   23.0850 O.2   271  ILE271     -0.2867
    122  CB       -23.7070   -1.2620   20.2250 C.3   271  ILE271      0.0252
    123  CG1      -23.2350   -2.1320   19.0680 C.3   271  ILE271      0.0019
    124  CG2      -22.8240   -0.1300   20.6600 C.3   271  ILE271      0.0019
    125  CD1      -23.2020   -1.3630   17.7270 C.3   271  ILE271      0.0001
    126  N        -19.3790   -5.7940    9.1330 N.3   330  TRP330     -0.1241
    127  CA       -19.3530   -4.5530    9.9160 C.3   330  TRP330      0.1605
    128  C        -19.0860   -4.9340   11.2980 C.2   330  TRP330      0.2264
    129  O        -19.9530   -5.5140   11.9280 O.2   330  TRP330     -0.2867
    130  CB       -20.6790   -3.7460    9.7900 C.3   330  TRP330      0.0550
    131  CG       -20.5960   -2.4660   10.5190 C.ar  330  TRP330      0.0003
    132  CD1      -20.5290   -2.2540   11.8980 C.ar  330  TRP330      0.0946
    133  CD2      -20.2450   -1.2270    9.9350 C.ar  330  TRP330      0.0152
    134  NE1      -20.2930   -0.9270   12.1670 N.ar  330  TRP330     -0.2442
    135  CE2      -20.0680   -0.2920   10.9750 C.ar  330  TRP330      0.0810
    136  CE3      -20.0690   -0.8240    8.6040 C.ar  330  TRP330      0.0012
    137  CZ2      -19.8230    1.0910   10.7580 C.ar  330  TRP330      0.0191
    138  CZ3      -19.7900    0.5660    8.4400 C.ar  330  TRP330      0.0001
    139  CH2      -19.5750    1.4480    9.4790 C.ar  330  TRP330      0.0015
@<TRIPOS>BOND
     1    63    64    1
     2    38    39    1
     3    64    65    1
     4    64    67    1
     5    65    66    2
     6    39    40    1
     7    39    42    1
     8    40    41    2
     9    12    11    1
    10    53    54    2
    11    53    52    1
    12    11     9   ar
    13    11    10   ar
    14    52    55    1
    15    52    51    1
    16    68    69    1
    17    43    44    1
    18     9     7   ar
    19    10     8   ar
    20    55    56    1
    21    57    56   ar
    22    57    59   ar
    23    73    74    1
    24    73    75    1
    25    73    72    1
    26    51    45   am
    27    50    48    1
    28    56    58   ar
    29    44    45    1
    30    44    47    1
    31     7     6   ar
    32     8     6   ar
    33    69    72    1
    34    69    70    1
    35    59    61   ar
    36    45    46    2
    37    19    21   ar
    38    19    18   ar
    39    15    14    1
    40    15    16    2
    41     6     5    1
    42    21    23   ar
    43    48    47    1
    44    48    49    1
    45     1     2    1
    46    14    17    1
    47    14    13    1
    48    70    71    2
    49     2     5    1
    50     2     3    1
    51    58    60   ar
    52    17    18    1
    53    18    20   ar
    54    61    60   ar
    55    61    62    1
    56    23    22   ar
    57     3     4    2
    58   138   136   ar
    59   138   139   ar
    60    87    86    1
    61    20    22   ar
    62   136   133   ar
    63    85    86   ar
    64    85    83   ar
    65    86    84   ar
    66   126   127    1
    67    83    81   ar
    68    76    77    1
    69   139   137   ar
    70    24    25    1
    71   130   127    1
    72   130   131    1
    73   127   128    1
    74   133   131   ar
    75   133   135   ar
    76    84    82   ar
    77    81    82   ar
    78    81    80    1
    79    25    26    1
    80    25    28    1
    81   131   132   ar
    82   137   135   ar
    83    77    80    1
    84    77    78    1
    85   135   134   ar
    86    26    27    1
    87    88    78   am
    88    88    89    1
    89    92    89    1
    90    92    93    1
    91    95    93   ar
    92   128   129    2
    93    34    36   ar
    94    34    31   ar
    95    28    29    1
    96    36    37   ar
    97    78    79    2
    98    91    90    2
    99    89    90    1
   100   132   134   ar
   101    93    94   ar
   102    31    29   ar
   103    31    33   ar
   104    29    30   ar
   105    37    35   ar
   106    33    35   ar
   107    33    32   ar
   108    30    32   ar
   109   104   106   ar
   110   104   102   ar
   111   106   105   ar
   112   102   101   ar
   113   105   103   ar
   114    96    97    1
   115   101   103   ar
   116   101   100    1
   117    99    98    2
   118   100    97    1
   119    97    98    1
   120   116   115    1
   121   125   123    1
   122   113   112    1
   123   113   114    1
   124   112   111    1
   125   115   114    2
   126   115   117    1
   127   123   122    1
   128   111   108    1
   129   107   108    1
   130   122   124    1
   131   122   119    1
   132   108   109    1
   133   119   120    1
   134   119   118    1
   135   109   110    2
   136   120   121    2
