@<TRIPOS>MOLECULE
tmp/5z4wA01.pdb
 103 100 0 0 0
SMALL
GASTEIGER

@<TRIPOS>ATOM
      1  N         13.5830    1.2470  -10.7090 N.3     8  THR8       -0.1218
      2  CA        14.1300    2.5630  -11.0630 C.3     8  THR8        0.1862
      3  C         13.0430    3.5180  -11.6230 C.2     8  THR8        0.2287
      4  O         12.2350    3.1330  -12.4880 O.2     8  THR8       -0.2866
      5  CB        15.3070    2.3570  -12.0910 C.3     8  THR8        0.1770
      6  OG1       14.8600    1.7650  -13.3100 O.3     8  THR8       -0.2211
      7  CG2       16.3620    1.5230  -11.3840 C.3     8  THR8        0.0375
      8  N         13.0280    5.9500  -13.7260 N.3    10  TRP10      -0.1241
      9  CA        13.1970    6.3210  -15.0970 C.3    10  TRP10       0.1605
     10  C         12.6980    5.2220  -16.0310 C.2    10  TRP10       0.2264
     11  O         12.5050    5.4850  -17.2360 O.2    10  TRP10      -0.2867
     12  CB        14.6370    6.7120  -15.3950 C.3    10  TRP10       0.0550
     13  CG        15.6250    5.7270  -15.1570 C.ar   10  TRP10       0.0003
     14  CD1       16.2080    4.9530  -16.0810 C.ar   10  TRP10       0.0946
     15  CD2       16.3700    5.5160  -13.9390 C.ar   10  TRP10       0.0152
     16  NE1       17.1570    4.1830  -15.5190 N.ar   10  TRP10      -0.2442
     17  CE2       17.3340    4.5290  -14.2230 C.ar   10  TRP10       0.0810
     18  CE3       16.2860    6.0230  -12.6270 C.ar   10  TRP10       0.0012
     19  CZ2       18.1710    3.9860  -13.2560 C.ar   10  TRP10       0.0191
     20  CZ3       17.2070    5.5510  -11.6900 C.ar   10  TRP10       0.0001
     21  CH2       18.0670    4.5190  -11.9780 C.ar   10  TRP10       0.0015
     22  N         10.4320    4.3300  -20.7740 N.3    14  ARG14      -0.1245
     23  CA        10.7740    3.4980  -21.9420 C.3    14  ARG14       0.1563
     24  C          9.6190    3.2760  -22.8710 C.2    14  ARG14       0.2260
     25  O          8.4550    3.2960  -22.4720 O.2    14  ARG14      -0.2867
     26  CB        11.4680    2.1990  -21.5250 C.3    14  ARG14       0.0307
     27  CG        12.7620    2.4640  -20.7310 C.3    14  ARG14       0.0489
     28  CD        13.4070    1.1800  -20.2370 C.3    14  ARG14       0.2205
     29  NE        14.6100    1.5230  -19.5090 N.pl3  14  ARG14      -0.0865
     30  CZ        14.9790    0.9700  -18.3430 C.cat  14  ARG14       0.5346
     31  NH1       14.2750   -0.0040  -17.7490 N.pl3  14  ARG14       0.1354
     32  NH2       16.0410    1.4510  -17.7160 N.pl3  14  ARG14       0.1354
     33  N         23.7140    7.6720   -9.5190 N.3    78  TRP78      -0.1241
     34  CA        24.8770    8.2040  -10.3470 C.3    78  TRP78       0.1605
     35  C         24.6670    9.5850  -10.9730 C.2    78  TRP78       0.2264
     36  O         25.6220   10.3640  -11.0750 O.2    78  TRP78      -0.2867
     37  CB        25.4660    7.1250  -11.2990 C.3    78  TRP78       0.0550
     38  CG        24.5120    6.7220  -12.2600 C.ar   78  TRP78       0.0003
     39  CD1       24.1850    7.3520  -13.4330 C.ar   78  TRP78       0.0946
     40  CD2       23.6620    5.5840  -12.1510 C.ar   78  TRP78       0.0152
     41  NE1       23.1580    6.6750  -14.0820 N.ar   78  TRP78      -0.2442
     42  CE2       22.8320    5.5660  -13.3270 C.ar   78  TRP78       0.0810
     43  CE3       23.5190    4.5810  -11.1890 C.ar   78  TRP78       0.0012
     44  CZ2       21.8220    4.5930  -13.5310 C.ar   78  TRP78       0.0191
     45  CZ3       22.5130    3.5510  -11.3940 C.ar   78  TRP78       0.0001
     46  CH2       21.6810    3.5910  -12.5750 C.ar   78  TRP78       0.0015
     47  N         20.3840   -7.1300  -15.8590 N.3   239  PHE239     -0.1241
     48  CA        20.9230   -6.6260  -17.1070 C.3   239  PHE239      0.1605
     49  C         22.1380   -7.3710  -17.5050 C.2   239  PHE239      0.2264
     50  O         22.7090   -8.1010  -16.6530 O.2   239  PHE239     -0.2867
     51  CB        21.2310   -5.2050  -16.9550 C.3   239  PHE239      0.0534
     52  CG        22.3610   -4.9360  -15.9810 C.ar  239  PHE239     -0.0203
     53  CD1       22.1270   -4.6910  -14.6590 C.ar  239  PHE239     -0.0042
     54  CD2       23.6400   -4.8170  -16.4640 C.ar  239  PHE239     -0.0042
     55  CE1       23.1920   -4.4820  -13.7830 C.ar  239  PHE239     -0.0003
     56  CE2       24.7490   -4.6360  -15.5790 C.ar  239  PHE239     -0.0003
     57  CZ        24.4960   -4.4120  -14.2430 C.ar  239  PHE239     -0.0000
     58  N         15.9450   -0.1060  -23.9090 N.3   266  THR266     -0.1218
     59  CA        16.7200    0.5570  -22.8640 C.3   266  THR266      0.1862
     60  C         17.5040    1.7130  -23.4380 C.2   266  THR266      0.2287
     61  O         17.8620    2.6070  -22.6590 O.2   266  THR266     -0.2866
     62  CB        17.5930   -0.4370  -22.0680 C.3   266  THR266      0.1770
     63  OG1       18.2940   -1.2690  -22.9870 O.3   266  THR266     -0.2211
     64  CG2       16.7860   -1.3410  -21.1760 C.3   266  THR266      0.0375
     65  N         20.5250    2.5540  -24.2600 N.3   268  GLU268     -0.1245
     66  CA        21.7570    2.9930  -23.6230 C.3   268  GLU268      0.1567
     67  C         22.8970    2.0830  -24.0810 C.2   268  GLU268      0.2260
     68  O         22.8790    0.8980  -23.7390 O.2   268  GLU268     -0.2867
     69  CB        21.6140    2.9430  -22.1930 C.3   268  GLU268      0.0388
     70  CG        22.8780    3.3950  -21.3430 C.3   268  GLU268      0.1160
     71  CD        23.3190    4.8610  -21.5360 C.2   268  GLU268      0.3649
     72  OE1       22.4480    5.6510  -21.9700 O.co2 268  GLU268     -0.2457
     73  OE2       24.5590    5.1560  -21.3530 O.co2 268  GLU268     -0.2457
     74  N         24.6160   -1.5360  -22.3210 N.3   271  ILE271     -0.1245
     75  CA        23.7780   -2.2720  -21.4600 C.3   271  ILE271      0.1561
     76  C         22.5180   -2.8190  -22.1440 C.2   271  ILE271      0.2260
     77  O         22.0400   -2.2190  -23.0750 O.2   271  ILE271     -0.2867
     78  CB        23.4720   -1.3720  -20.1970 C.3   271  ILE271      0.0252
     79  CG1       22.5790   -2.0600  -19.2450 C.3   271  ILE271      0.0019
     80  CG2       22.6630   -0.1850  -20.5780 C.3   271  ILE271      0.0019
     81  CD1       22.9060   -1.6050  -17.7990 C.3   271  ILE271      0.0001
     82  N         19.4450   -5.9170   -9.1730 N.3   330  TRP330     -0.1241
     83  CA        19.4730   -4.6820   -9.9560 C.3   330  TRP330      0.1605
     84  C         19.1080   -5.1340  -11.3890 C.2   330  TRP330      0.2264
     85  O         20.0110   -5.7110  -12.0250 O.2   330  TRP330     -0.2867
     86  CB        20.8040   -3.8600   -9.9630 C.3   330  TRP330      0.0550
     87  CG        20.6080   -2.5830  -10.6300 C.ar  330  TRP330      0.0003
     88  CD1       20.6200   -2.3570  -11.9900 C.ar  330  TRP330      0.0946
     89  CD2       20.2290   -1.3580  -10.0410 C.ar  330  TRP330      0.0152
     90  NE1       20.3350   -0.9940  -12.2730 N.ar  330  TRP330     -0.2442
     91  CE2       20.0670   -0.3910  -11.0690 C.ar  330  TRP330      0.0810
     92  CE3       20.1000   -0.9430   -8.7200 C.ar  330  TRP330      0.0012
     93  CZ2       19.6930    0.9790  -10.7810 C.ar  330  TRP330      0.0191
     94  CZ3       19.6470    0.4320   -8.4600 C.ar  330  TRP330      0.0001
     95  CH2       19.4570    1.3300   -9.4530 C.ar  330  TRP330      0.0015
     96  N         14.4850   -4.3750  -15.4000 N.3   334  LEU334     -0.1245
     97  CA        15.4330   -5.0150  -16.3840 C.3   334  LEU334      0.1561
     98  C         15.3240   -6.5280  -16.4540 C.2   334  LEU334      0.2260
     99  O         15.8510   -7.1190  -17.3890 O.2   334  LEU334     -0.2867
    100  CB        16.8460   -4.5790  -16.1230 C.3   334  LEU334      0.0270
    101  CG        17.1540   -3.0890  -16.0360 C.3   334  LEU334      0.0019
    102  CD1       18.5110   -2.7590  -15.3900 C.3   334  LEU334      0.0001
    103  CD2       16.9890   -2.5140  -17.3940 C.3   334  LEU334      0.0001
@<TRIPOS>BOND
     1    65    66    1
     2    67    68    2
     3    67    66    1
     4    58    59    1
     5    66    69    1
     6    60    59    1
     7    60    61    2
     8    77    76    2
     9    63    62    1
    10    24    25    2
    11    24    23    1
    12    59    62    1
    13    74    75    1
    14    69    70    1
    15    76    75    1
    16    62    64    1
    17    72    71   ar
    18    23    26    1
    19    23    22    1
    20    71    73   ar
    21    71    70    1
    22    26    27    1
    23    75    78    1
    24    27    28    1
    25    80    78    1
    26    28    29    1
    27    78    79    1
    28    29    30    2
    29    79    81    1
    30    30    31    1
    31    30    32    1
    32    49    48    1
    33    49    50    2
    34   103   101    1
    35    99    98    2
    36    11    10    2
    37    48    51    1
    38    48    47    1
    39    51    52    1
    40    54    52   ar
    41    54    56   ar
    42    98    97    1
    43    97   100    1
    44    97    96    1
    45   100   101    1
    46    14    16   ar
    47    14    13   ar
    48   101   102    1
    49    10     9    1
    50    52    53   ar
    51    56    57   ar
    52    16    17   ar
    53    12    13    1
    54    12     9    1
    55    13    15   ar
    56     9     8    1
    57    53    55   ar
    58    57    55   ar
    59    17    15   ar
    60    17    19   ar
    61    41    39   ar
    62    41    42   ar
    63    15    18   ar
    64    44    42   ar
    65    44    46   ar
    66    39    38   ar
    67    42    40   ar
    68     6     5    1
    69    19    21   ar
    70    18    20   ar
    71    46    45   ar
    72     4     3    2
    73    90    88   ar
    74    90    91   ar
    75    38    40   ar
    76    38    37    1
    77    40    43   ar
    78     5     7    1
    79     5     2    1
    80    85    84    2
    81    88    87   ar
    82    21    20   ar
    83     3     2    1
    84    45    43   ar
    85    84    83    1
    86    37    34    1
    87    36    35    2
    88    91    93   ar
    89    91    89   ar
    90     2     1    1
    91    35    34    1
    92    93    95   ar
    93    87    89   ar
    94    87    86    1
    95    34    33    1
    96    89    92   ar
    97    86    83    1
    98    83    82    1
    99    95    94   ar
   100    92    94   ar
