@<TRIPOS>MOLECULE
tmp/5z5cB00.pdb
 149 142 0 0 0
SMALL
GASTEIGER

@<TRIPOS>ATOM
      1  N         -0.2870   33.5390    9.4340 N.3    40  ILE40      -0.1231
      2  CA        -1.2200   33.5810   10.5620 C.3    40  ILE40       0.1692
      3  C         -2.4960   34.4110   10.2950 C.2    40  ILE40       0.2591
      4  O         -3.5540   34.1110   10.8560 O.2    40  ILE40      -0.2718
      5  CB        -0.4900   34.0770   11.8480 C.3    40  ILE40       0.0266
      6  CG1       -1.2630   33.7220   13.1440 C.3    40  ILE40       0.0019
      7  CG2       -0.2130   35.5590   11.7770 C.3    40  ILE40       0.0020
      8  CD1       -0.4940   34.1010   14.4140 C.3    40  ILE40       0.0001
      9  N         -2.4040   35.4250    9.4420 N.am   41  LYS41      -0.1980
     10  CA        -3.5440   36.2910    9.1380 C.3    41  LYS41       0.1596
     11  C         -4.7290   35.5570    8.5050 C.2    41  LYS41       0.2287
     12  O         -5.8890   36.0110    8.6480 O.2    41  LYS41      -0.2864
     13  CB        -3.1540   37.4690    8.2570 C.3    41  LYS41       0.0298
     14  CG        -2.0230   38.3330    8.8110 C.3    41  LYS41       0.0038
     15  CD        -2.3840   38.9950   10.1200 C.3    41  LYS41       0.0206
     16  CE        -1.1260   39.4590   10.7910 C.3    41  LYS41       0.1093
     17  NZ        -0.5480   40.6520   10.1190 N.3    41  LYS41      -0.1314
     18  N          0.1490   40.9290    4.8770 N.3    66  ASN66      -0.1240
     19  CA        -0.5620   39.6370    5.0270 C.3    66  ASN66       0.1653
     20  C         -2.0870   39.7380    5.2660 C.2    66  ASN66       0.2266
     21  O         -2.8310   38.8290    4.9340 O.2    66  ASN66      -0.2867
     22  CB         0.0910   38.8300    6.1440 C.3    66  ASN66       0.1155
     23  CG         1.3880   38.1570    5.7150 C.2    66  ASN66       0.2627
     24  OD1        1.5210   37.7010    4.5770 O.2    66  ASN66      -0.2716
     25  ND2        2.3510   38.0670    6.6380 N.am   66  ASN66      -0.0877
     26  N        -10.6140   39.9840   15.7100 N.3   137  ASN137     -0.1240
     27  CA        -9.2110   39.7420   15.4640 C.3   137  ASN137      0.1653
     28  C         -8.5310   39.0340   16.6650 C.2   137  ASN137      0.2266
     29  O         -8.1290   37.8630   16.5530 O.2   137  ASN137     -0.2867
     30  CB        -8.5390   41.0540   15.0860 C.3   137  ASN137      0.1155
     31  CG        -7.0650   40.9120   14.7880 C.2   137  ASN137      0.2627
     32  OD1       -6.4780   39.8610   14.9950 O.2   137  ASN137     -0.2716
     33  ND2       -6.4600   41.9790   14.2980 N.am  137  ASN137     -0.0877
     34  N         -7.5520   34.5310   17.5680 N.3   141  HIS141     -0.1241
     35  CA        -6.3580   33.9170   18.1200 C.3   141  HIS141      0.1621
     36  C         -6.5730   33.3270   19.5000 C.2   141  HIS141      0.2264
     37  O         -5.9220   32.3450   19.8490 O.2   141  HIS141     -0.2867
     38  CB        -5.1860   34.8990   18.0810 C.3   141  HIS141      0.0745
     39  CG        -4.8600   35.3600   16.7040 C.ar  141  HIS141      0.0817
     40  ND1       -4.7560   34.4920   15.6420 N.ar  141  HIS141     -0.2268
     41  CD2       -4.6750   36.5970   16.1940 C.ar  141  HIS141      0.1154
     42  CE1       -4.4850   35.1730   14.5460 C.ar  141  HIS141      0.1986
     43  NE2       -4.4460   36.4560   14.8480 N.ar  141  HIS141     -0.2212
     44  N          5.5740   39.8510   18.2830 N.3   165  GLY165     -0.1210
     45  CA         5.5290   41.1580   17.6400 C.3   165  GLY165      0.1956
     46  C          4.0860   41.6240   17.4430 C.2   165  GLY165      0.2612
     47  O          3.1840   40.8130   17.1890 O.2   165  GLY165     -0.2717
     48  N          3.8760   42.9320   17.6220 N.am  166  VAL166     -0.1965
     49  CA         2.5590   43.5380   17.5120 C.3   166  VAL166      0.1727
     50  C          2.4720   44.3170   16.2190 C.2   166  VAL166      0.2617
     51  O          3.2600   45.2120   15.9700 O.2   166  VAL166     -0.2715
     52  CB         2.2690   44.4640   18.7110 C.3   166  VAL166      0.0290
     53  CG1        1.0910   45.3600   18.4530 C.3   166  VAL166      0.0023
     54  CG2        2.0270   43.6150   19.9390 C.3   166  VAL166      0.0023
     55  N          1.5210   43.9200   15.3700 N.am  167  GLY167     -0.1940
     56  CA         1.0410   44.7170   14.2590 C.3   167  GLY167      0.2014
     57  C         -0.3220   45.2840   14.5940 C.2   167  GLY167      0.2640
     58  O         -0.4350   46.4360   15.0370 O.2   167  GLY167     -0.2714
     59  N         -1.3620   44.4810   14.4130 N.am  168  THR168     -0.1936
     60  CA        -2.6760   44.8010   14.9700 C.3   168  THR168      0.2028
     61  C         -2.7350   44.5340   16.4880 C.2   168  THR168      0.2643
     62  O         -3.5360   45.1360   17.1950 O.2   168  THR168     -0.2714
     63  CB        -3.8130   44.0160   14.2790 C.3   168  THR168      0.1808
     64  OG1       -3.7380   42.6280   14.6160 O.3   168  THR168     -0.2208
     65  CG2       -3.7490   44.1840   12.7440 C.3   168  THR168      0.0379
     66  N         -1.8990   43.6260   16.9730 N.am  169  GLY169     -0.1939
     67  CA        -1.9490   43.1910   18.3430 C.3   169  GLY169      0.2014
     68  C         -2.8610   42.0140   18.5760 C.2   169  GLY169      0.2639
     69  O         -2.9090   41.4870   19.6840 O.2   169  GLY169     -0.2714
     70  N         -3.5210   41.5420   17.5210 N.am  170  GLY170     -0.1939
     71  CA        -4.4820   40.4710   17.6800 C.3   170  GLY170      0.2014
     72  C         -3.8130   39.2040   18.1620 C.2   170  GLY170      0.2640
     73  O         -4.3910   38.4700   18.9470 O.2   170  GLY170     -0.2714
     74  N         -2.5930   38.9530   17.7040 N.am  171  THR171     -0.1936
     75  CA        -1.8750   37.7530   18.0930 C.3   171  THR171      0.2028
     76  C         -1.5160   37.7280   19.5900 C.2   171  THR171      0.2642
     77  O         -1.8610   36.7830   20.3210 O.2   171  THR171     -0.2714
     78  CB        -0.6200   37.5650   17.1970 C.3   171  THR171      0.1808
     79  OG1       -1.0600   37.3350   15.8550 O.3   171  THR171     -0.2208
     80  CG2        0.2390   36.3810   17.6950 C.3   171  THR171      0.0379
     81  N         -0.8330   38.7580   20.0570 N.am  172  VAL172     -0.1977
     82  CA        -0.4200   38.7580   21.4580 C.3   172  VAL172      0.1596
     83  C         -1.5870   38.8040   22.4550 C.2   172  VAL172      0.2287
     84  O         -1.5860   38.0520   23.4200 O.2   172  VAL172     -0.2864
     85  CB         0.6010   39.8860   21.7510 C.3   172  VAL172      0.0276
     86  CG1       -0.0600   41.2580   21.8230 C.3   172  VAL172      0.0022
     87  CG2        1.4040   39.5970   22.9950 C.3   172  VAL172      0.0022
     88  N          8.9010   43.6890    8.7450 N.3   206  GLU206     -0.1231
     89  CA         7.6210   43.7580    8.0540 C.3   206  GLU206      0.1699
     90  C          6.5070   43.0480    8.8490 C.2   206  GLU206      0.2593
     91  O          6.6990   41.9620    9.4140 O.2   206  GLU206     -0.2718
     92  CB         7.7480   43.2300    6.6100 C.3   206  GLU206      0.0402
     93  CG         8.6760   44.1020    5.7610 C.3   206  GLU206      0.1161
     94  CD         8.7560   43.7200    4.2920 C.2   206  GLU206      0.3649
     95  OE1        7.6950   43.5350    3.6520 O.co2 206  GLU206     -0.2457
     96  OE2        9.8900   43.6450    3.7690 O.co2 206  GLU206     -0.2457
     97  N          5.3660   43.7140    8.9270 N.am  207  GLY207     -0.1942
     98  CA         4.1990   43.2100    9.6210 C.3   207  GLY207      0.2014
     99  C          4.0110   43.7350   11.0340 C.2   207  GLY207      0.2638
    100  O          2.9030   43.6220   11.5480 O.2   207  GLY207     -0.2714
    101  N          5.0660   44.2380   11.6980 N.am  208  ILE208     -0.1977
    102  CA         4.8980   44.8120   13.0500 C.3   208  ILE208      0.1596
    103  C          5.1880   46.3210   13.0990 C.2   208  ILE208      0.2287
    104  O          5.9370   46.8550   12.2730 O.2   208  ILE208     -0.2864
    105  CB         5.6970   44.0730   14.1480 C.3   208  ILE208      0.0276
    106  CG1        7.2200   44.2290   13.9670 C.3   208  ILE208      0.0022
    107  CG2        5.2770   42.6000   14.2120 C.3   208  ILE208      0.0022
    108  CD1        8.0070   43.8720   15.2120 C.3   208  ILE208      0.0001
    109  N          9.7770   39.0790   10.8000 N.3   246  SER246     -0.1217
    110  CA         9.0830   39.0670   12.1030 C.3   246  SER246      0.1889
    111  C          9.1850   37.7590   12.8900 C.2   246  SER246      0.2288
    112  O          9.1180   37.7450   14.1590 O.2   246  SER246     -0.2866
    113  CB         7.6170   39.4540   11.9600 C.3   246  SER246      0.2089
    114  OG         6.8300   38.3680   11.5000 O.3   246  SER246     -0.2183
    115  N         10.6200   37.5160   16.6520 N.3   250  ASN250     -0.1240
    116  CA         9.9910   36.6970   17.7100 C.3   250  ASN250      0.1653
    117  C         10.9260   35.7090   18.3810 C.2   250  ASN250      0.2266
    118  O         10.7910   35.4700   19.5780 O.2   250  ASN250     -0.2867
    119  CB         8.7420   35.9450   17.1640 C.3   250  ASN250      0.1155
    120  CG         7.5740   36.8750   16.9340 C.2   250  ASN250      0.2627
    121  OD1        7.6180   38.0120   17.3810 O.2   250  ASN250     -0.2716
    122  ND2        6.5290   36.4120   16.2440 N.am  250  ASN250     -0.0877
    123  N          5.0910   34.0000   11.9710 N.3   270  PRO270     -0.2102
    124  CA         3.8360   34.3350   11.2740 C.3   270  PRO270      0.1504
    125  C          3.7520   34.0750    9.7710 C.2   270  PRO270      0.2575
    126  O          2.6470   33.9310    9.2500 O.2   270  PRO270     -0.2718
    127  CB         3.6990   35.8310   11.5320 C.3   270  PRO270      0.0282
    128  CG         4.4890   36.0760   12.7700 C.3   270  PRO270      0.0208
    129  CD         5.6690   35.1850   12.6260 C.3   270  PRO270      0.0893
    130  N          4.8840   34.0570    9.0780 N.am  271  ASP271     -0.1974
    131  CA         4.8930   33.7790    7.6480 C.3   271  ASP271      0.1708
    132  C          6.2270   33.2010    7.1540 C.2   271  ASP271      0.2293
    133  O          7.1970   33.0940    7.9440 O.2   271  ASP271     -0.2864
    134  CB         4.3820   34.9790    6.8360 C.3   271  ASP271      0.1436
    135  CG         5.3560   36.1290    6.7430 C.2   271  ASP271      0.3671
    136  OD1        6.4350   36.0620    7.4030 O.co2 271  ASP271     -0.2456
    137  OD2        5.0320   37.1130    6.0160 O.co2 271  ASP271     -0.2456
    138  N          9.9990   37.8780    0.8800 N.3   274  TYR274     -0.1241
    139  CA        11.0470   38.7630    1.3770 C.3   274  TYR274      0.1605
    140  C         12.3430   38.5500    0.6170 C.2   274  TYR274      0.2264
    141  O         13.4090   38.8350    1.1590 O.2   274  TYR274     -0.2867
    142  CB        11.2230   38.5540    2.8620 C.3   274  TYR274      0.0534
    143  CG         9.9460   38.6850    3.6420 C.ar  274  TYR274     -0.0201
    144  CD1        9.3900   39.9320    3.8930 C.ar  274  TYR274     -0.0009
    145  CD2        9.2800   37.5630    4.1160 C.ar  274  TYR274     -0.0009
    146  CE1        8.2000   40.0600    4.6060 C.ar  274  TYR274      0.0417
    147  CE2        8.0930   37.6820    4.8350 C.ar  274  TYR274      0.0417
    148  CZ         7.5620   38.9310    5.0710 C.ar  274  TYR274      0.1957
    149  OH         6.3920   39.0530    5.7790 O.3   274  TYR274     -0.2866
@<TRIPOS>BOND
     1   140   141    2
     2   140   139    1
     3   138   139    1
     4   139   142    1
     5   142   143    1
     6   143   144   ar
     7   143   145   ar
     8    95    94   ar
     9    96    94   ar
    10   144   146   ar
    11   145   147   ar
    12    94    93    1
    13    24    23    2
    14   146   148   ar
    15   147   148   ar
    16    18    19    1
    17    21    20    2
    18    19    20    1
    19    19    22    1
    20   148   149    1
    21    23    22    1
    22    23    25   am
    23    93    92    1
    24   137   135   ar
    25    92    89    1
    26   135   134    1
    27   135   136   ar
    28   134   131    1
    29   132   131    1
    30   132   133    2
    31   131   130    1
    32    89    88    1
    33    89    90    1
    34    13    14    1
    35    13    10    1
    36    11    12    2
    37    11    10    1
    38    14    15    1
    39    90    97   am
    40    90    91    2
    41    97    98    1
    42   130   125   am
    43    10     9    1
    44   126   125    2
    45     1     2    1
    46     9     3   am
    47    98    99    1
    48   125   124    1
    49    17    16    1
    50    15    16    1
    51     3     2    1
    52     3     4    2
    53     2     5    1
    54   109   110    1
    55    99   100    2
    56    99   101   am
    57   124   127    1
    58   124   123    1
    59   114   113    1
    60   127   128    1
    61   101   102    1
    62     7     5    1
    63     5     6    1
    64   113   110    1
    65   123   129    1
    66   110   111    1
    67   104   103    2
    68   129   128    1
    69    65    63    1
    70   111   112    2
    71   102   103    1
    72   102   105    1
    73     6     8    1
    74   106   105    1
    75   106   108    1
    76   105   107    1
    77    56    57    1
    78    56    55    1
    79    63    64    1
    80    63    60    1
    81    33    31   am
    82    59    57   am
    83    59    60    1
    84    42    43   ar
    85    42    40   ar
    86    57    58    2
    87    31    32    2
    88    31    30    1
    89    43    41   ar
    90    60    61    1
    91    30    27    1
    92    55    50   am
    93    27    26    1
    94    27    28    1
    95    40    39   ar
    96    79    78    1
    97    51    50    2
    98    41    39   ar
    99    50    49    1
   100   122   120   am
   101    61    66   am
   102    61    62    2
   103    29    28    2
   104   115   116    1
   105    39    38    1
   106   120   119    1
   107   120   121    2
   108    66    67    1
   109   119   116    1
   110    47    46    2
   111    78    80    1
   112    78    75    1
   113    46    48   am
   114    46    45    1
   115    49    48    1
   116    49    52    1
   117    70    71    1
   118    70    68   am
   119    34    35    1
   120    45    44    1
   121    71    72    1
   122    74    75    1
   123    74    72   am
   124   116   117    1
   125    38    35    1
   126    75    76    1
   127    35    36    1
   128    72    73    2
   129    67    68    1
   130   117   118    2
   131    53    52    1
   132    68    69    2
   133    52    54    1
   134    36    37    2
   135    76    81   am
   136    76    77    2
   137    81    82    1
   138    82    85    1
   139    82    83    1
   140    85    86    1
   141    85    87    1
   142    83    84    2
