@<TRIPOS>MOLECULE
tmp/5z5iA00.pdb
 119 114 0 0 0
SMALL
GASTEIGER

@<TRIPOS>ATOM
      1  N         16.8450  -33.1960   16.4310 N.3    14  ASP14      -0.1239
      2  CA        16.4950  -34.3000   17.3460 C.3    14  ASP14       0.1674
      3  C         15.4250  -33.8780   18.3680 C.2    14  ASP14       0.2266
      4  O         15.6290  -34.0800   19.5790 O.2    14  ASP14      -0.2867
      5  CB        17.7470  -34.8160   18.0820 C.3    14  ASP14       0.1410
      6  CG        18.8570  -35.2450   17.1490 C.2    14  ASP14       0.3668
      7  OD1       18.5790  -35.9890   16.1710 O.co2  14  ASP14      -0.2456
      8  OD2       20.0270  -34.8560   17.4120 O.co2  14  ASP14      -0.2456
      9  N         25.3160  -30.2780   20.7910 N.3    31  PHE31      -0.1241
     10  CA        26.7200  -30.5740   20.4020 C.3    31  PHE31       0.1605
     11  C         27.7150  -29.8670   21.2850 C.2    31  PHE31       0.2264
     12  O         27.6710  -30.0480   22.5140 O.2    31  PHE31      -0.2867
     13  CB        26.8800  -30.4240   18.8560 C.3    31  PHE31       0.0534
     14  CG        25.8850  -31.2880   18.1620 C.ar   31  PHE31      -0.0203
     15  CD1       26.1660  -32.6340   17.9530 C.ar   31  PHE31      -0.0042
     16  CD2       24.5880  -30.8110   17.9190 C.ar   31  PHE31      -0.0042
     17  CE1       25.1860  -33.4680   17.4300 C.ar   31  PHE31      -0.0003
     18  CE2       23.6130  -31.6500   17.4100 C.ar   31  PHE31      -0.0003
     19  CZ        23.9150  -32.9820   17.1660 C.ar   31  PHE31      -0.0000
     20  N         24.5050  -35.1080   21.9990 N.3    73  PHE73      -0.1227
     21  CA        23.6560  -35.6450   20.9360 C.3    73  PHE73       0.1736
     22  C         22.1560  -35.6070   21.3380 C.2    73  PHE73       0.2595
     23  O         21.7570  -34.8150   22.2010 O.2    73  PHE73      -0.2718
     24  CB        24.1560  -37.0520   20.5320 C.3    73  PHE73       0.0547
     25  CG        25.2800  -37.0430   19.4890 C.ar   73  PHE73      -0.0202
     26  CD1       26.2950  -36.0500   19.4910 C.ar   73  PHE73      -0.0042
     27  CD2       25.3130  -38.0370   18.4830 C.ar   73  PHE73      -0.0042
     28  CE1       27.3310  -36.0610   18.5190 C.ar   73  PHE73      -0.0003
     29  CE2       26.3310  -38.0400   17.5160 C.ar   73  PHE73      -0.0003
     30  CZ        27.3350  -37.0550   17.5330 C.ar   73  PHE73      -0.0000
     31  N         21.3150  -36.4170   20.7000 N.am   74  ALA74      -0.1980
     32  CA        19.8580  -36.3100   20.9050 C.3    74  ALA74       0.1597
     33  C         19.4670  -36.4150   22.3820 C.2    74  ALA74       0.2287
     34  O         19.8950  -37.3540   23.0570 O.2    74  ALA74      -0.2864
     35  CB        19.1220  -37.3710   20.1050 C.3    74  ALA74       0.0319
     36  N         24.0460  -44.0660   21.6270 N.3   120  ILE120     -0.1231
     37  CA        23.4510  -42.7280   21.6390 C.3   120  ILE120      0.1692
     38  C         21.9280  -42.8480   21.7480 C.2   120  ILE120      0.2592
     39  O         21.3960  -43.9550   21.9000 O.2   120  ILE120     -0.2718
     40  CB        23.8530  -41.9130   20.3800 C.3   120  ILE120      0.0266
     41  CG1       23.3190  -42.5950   19.1020 C.3   120  ILE120      0.0019
     42  CG2       25.3730  -41.6940   20.3560 C.3   120  ILE120      0.0020
     43  CD1       23.5000  -41.7670   17.8470 C.3   120  ILE120      0.0001
     44  N         21.2390  -41.7070   21.7110 N.am  121  ASP121     -0.1974
     45  CA        19.7610  -41.6740   21.6480 C.3   121  ASP121      0.1709
     46  C         19.0350  -42.4540   22.7630 C.2   121  ASP121      0.2293
     47  O         18.0890  -43.2160   22.4690 O.2   121  ASP121     -0.2864
     48  CB        19.2510  -42.1220   20.2690 C.3   121  ASP121      0.1436
     49  CG        19.7470  -41.2320   19.1460 C.2   121  ASP121      0.3671
     50  OD1       20.3160  -40.1500   19.4100 O.co2 121  ASP121     -0.2456
     51  OD2       19.5790  -41.6270   17.9830 O.co2 121  ASP121     -0.2456
     52  N         18.2130  -45.9490   15.0240 N.3   177  GLU177     -0.1245
     53  CA        18.4680  -45.0350   16.1380 C.3   177  GLU177      0.1567
     54  C         17.1970  -44.2860   16.5520 C.2   177  GLU177      0.2260
     55  O         16.0970  -44.6600   16.1430 O.2   177  GLU177     -0.2867
     56  CB        19.6610  -44.1050   15.8080 C.3   177  GLU177      0.0388
     57  CG        19.3610  -43.1210   14.6720 C.3   177  GLU177      0.1160
     58  CD        20.5690  -42.4420   14.0630 C.2   177  GLU177      0.3649
     59  OE1       21.7130  -42.7180   14.4780 O.co2 177  GLU177     -0.2457
     60  OE2       20.3380  -41.6160   13.1420 O.co2 177  GLU177     -0.2457
     61  N         21.0490  -39.5270    9.3880 N.3   197  THR197     -0.1218
     62  CA        20.3890  -38.2130    9.4520 C.3   197  THR197      0.1862
     63  C         20.7050  -37.2710    8.2610 C.2   197  THR197      0.2287
     64  O         20.7150  -36.0440    8.4080 O.2   197  THR197     -0.2866
     65  CB        20.6320  -37.5220   10.8310 C.3   197  THR197      0.1770
     66  OG1       19.8740  -36.3190   10.8860 O.3   197  THR197     -0.2211
     67  CG2       22.1260  -37.2090   11.0800 C.3   197  THR197      0.0375
     68  N         17.5330  -40.3780    5.3790 N.3   201  HIS201     -0.1241
     69  CA        16.7610  -40.4180    6.6390 C.3   201  HIS201      0.1621
     70  C         15.3050  -40.8650    6.4460 C.2   201  HIS201      0.2264
     71  O         14.6400  -40.4050    5.5430 O.2   201  HIS201     -0.2867
     72  CB        16.7810  -39.0270    7.2860 C.3   201  HIS201      0.0745
     73  CG        16.7930  -39.0470    8.7860 C.ar  201  HIS201      0.0817
     74  ND1       16.5490  -37.9200    9.5350 N.ar  201  HIS201     -0.2268
     75  CD2       17.0570  -40.0420    9.6680 C.ar  201  HIS201      0.1154
     76  CE1       16.6630  -38.2160   10.8200 C.ar  201  HIS201      0.1986
     77  NE2       16.9720  -39.4970   10.9300 N.ar  201  HIS201     -0.2212
     78  N         13.9090  -38.7260   13.0060 N.3   238  HIS238     -0.1241
     79  CA        14.1270  -38.5370   14.4700 C.3   238  HIS238      0.1621
     80  C         12.8510  -37.9630   15.1120 C.2   238  HIS238      0.2264
     81  O         12.8310  -36.8500   15.6590 O.2   238  HIS238     -0.2867
     82  CB        15.3980  -37.7230   14.8350 C.3   238  HIS238      0.0745
     83  CG        15.8940  -38.0040   16.2210 C.ar  238  HIS238      0.0817
     84  ND1       17.1070  -38.6060   16.4670 N.ar  238  HIS238     -0.2268
     85  CD2       15.3110  -37.8250   17.4290 C.ar  238  HIS238      0.1154
     86  CE1       17.2450  -38.7890   17.7710 C.ar  238  HIS238      0.1986
     87  NE2       16.1670  -38.3200   18.3740 N.ar  238  HIS238     -0.2212
     88  N         12.9180  -33.6820   12.8370 N.3   254  HIS254     -0.1241
     89  CA        13.6920  -32.6300   12.1680 C.3   254  HIS254      0.1621
     90  C         13.7680  -32.8310   10.6640 C.2   254  HIS254      0.2264
     91  O         13.5240  -33.9240   10.1420 O.2   254  HIS254     -0.2867
     92  CB        15.0910  -32.4130   12.7830 C.3   254  HIS254      0.0745
     93  CG        16.0420  -33.5720   12.6310 C.ar  254  HIS254      0.0817
     94  ND1       16.6910  -34.1190   13.7120 N.ar  254  HIS254     -0.2268
     95  CD2       16.5030  -34.2450   11.5390 C.ar  254  HIS254      0.1154
     96  CE1       17.4920  -35.0920   13.3090 C.ar  254  HIS254      0.1986
     97  NE2       17.4020  -35.1840   11.9890 N.ar  254  HIS254     -0.2212
     98  N         19.6290  -28.6860   11.1220 N.3   269  ARG269     -0.1245
     99  CA        18.3840  -29.4550   11.0740 C.3   269  ARG269      0.1563
    100  C         17.3740  -28.7390   11.9610 C.2   269  ARG269      0.2260
    101  O         17.6790  -28.3950   13.0970 O.2   269  ARG269     -0.2867
    102  CB        18.6030  -30.8950   11.5410 C.3   269  ARG269      0.0307
    103  CG        19.5100  -31.6690   10.5850 C.3   269  ARG269      0.0489
    104  CD        20.1300  -32.9040   11.2250 C.3   269  ARG269      0.2205
    105  NE        21.0160  -32.5630   12.3490 N.pl3 269  ARG269     -0.0865
    106  CZ        21.3710  -33.4170   13.3030 C.cat 269  ARG269      0.5346
    107  NH1       20.8990  -34.6670   13.2940 N.pl3 269  ARG269      0.1354
    108  NH2       22.1860  -33.0120   14.2920 N.pl3 269  ARG269      0.1354
    109  N         27.2700  -31.6190   12.7130 N.3   474  PHE474     -0.1241
    110  CA        25.8320  -31.8220   12.9000 C.3   474  PHE474      0.1605
    111  C         25.0610  -30.5730   13.2730 C.2   474  PHE474      0.2264
    112  O         23.9950  -30.6610   13.9290 O.2   474  PHE474     -0.2867
    113  CB        25.6250  -32.8420   14.0300 C.3   474  PHE474      0.0534
    114  CG        26.1930  -34.2030   13.7480 C.ar  474  PHE474     -0.0203
    115  CD1       25.5040  -35.1040   12.9370 C.ar  474  PHE474     -0.0042
    116  CD2       27.4230  -34.5990   14.3050 C.ar  474  PHE474     -0.0042
    117  CE1       26.0350  -36.3800   12.6860 C.ar  474  PHE474     -0.0003
    118  CE2       27.9530  -35.8700   14.0620 C.ar  474  PHE474     -0.0003
    119  CZ        27.2580  -36.7550   13.2400 C.ar  474  PHE474     -0.0000
@<TRIPOS>BOND
     1    68    69    1
     2    71    70    2
     3    70    69    1
     4    69    72    1
     5    72    73    1
     6    63    64    2
     7    63    62    1
     8    73    74   ar
     9    73    75   ar
    10    61    62    1
    11    62    65    1
    12    74    76   ar
    13    75    77   ar
    14    91    90    2
    15   103   104    1
    16   103   102    1
    17    90    89    1
    18    76    77   ar
    19    65    66    1
    20    65    67    1
    21    99    98    1
    22    99   102    1
    23    99   100    1
    24   104   105    1
    25    95    97   ar
    26    95    93   ar
    27   100   101    2
    28    97    96   ar
    29    89    92    1
    30    89    88    1
    31   105   106    2
    32    93    92    1
    33    93    94   ar
    34   117   115   ar
    35   117   119   ar
    36   109   110    1
    37   110   111    1
    38   110   113    1
    39   115   114   ar
    40    78    79    1
    41    60    58   ar
    42   119   118   ar
    43   111   112    2
    44   107   106    1
    45   106   108    1
    46    96    94   ar
    47   114   113    1
    48   114   116   ar
    49   118   116   ar
    50    58    59   ar
    51    58    57    1
    52    79    82    1
    53    79    80    1
    54    57    56    1
    55    82    83    1
    56    52    53    1
    57    80    81    2
    58    56    53    1
    59    53    54    1
    60    55    54    2
    61     7     6   ar
    62    83    84   ar
    63    83    85   ar
    64     1     2    1
    65    84    86   ar
    66     6     8   ar
    67     6     5    1
    68    19    18   ar
    69    19    17   ar
    70     2     5    1
    71     2     3    1
    72    18    16   ar
    73    85    87   ar
    74    17    15   ar
    75    29    30   ar
    76    29    27   ar
    77    30    28   ar
    78    86    87   ar
    79    43    41    1
    80    16    14   ar
    81    15    14   ar
    82    51    49   ar
    83    14    13    1
    84     3     4    2
    85    27    25   ar
    86    28    26   ar
    87    13    10    1
    88    41    40    1
    89    49    50   ar
    90    49    48    1
    91    25    26   ar
    92    25    24    1
    93    35    32    1
    94    48    45    1
    95    42    40    1
    96    40    37    1
    97    10     9    1
    98    10    11    1
    99    24    21    1
   100    31    32    1
   101    31    22   am
   102    32    33    1
   103    21    22    1
   104    21    20    1
   105    11    12    2
   106    22    23    2
   107    36    37    1
   108    37    38    1
   109    45    44    1
   110    45    46    1
   111    44    38   am
   112    38    39    2
   113    33    34    2
   114    47    46    2
