@<TRIPOS>MOLECULE
tmp/5z5jB00.pdb
 135 131 0 0 0
SMALL
GASTEIGER

@<TRIPOS>ATOM
      1  N         25.3710  -13.0060  -14.6480 N.3    31  ASP31      -0.1225
      2  CA        25.7210  -13.5190  -13.3450 C.3    31  ASP31       0.1805
      3  C         27.1060  -12.9830  -12.9720 C.2    31  ASP31       0.2598
      4  O         27.6330  -12.1120  -13.6320 O.2    31  ASP31      -0.2718
      5  CB        25.7550  -15.0380  -13.3830 C.3    31  ASP31       0.1424
      6  CG        26.6760  -15.5700  -14.4610 C.2    31  ASP31       0.3668
      7  OD1       26.2180  -15.7610  -15.5980 O.co2  31  ASP31      -0.2456
      8  OD2       27.8610  -15.7850  -14.1750 O.co2  31  ASP31      -0.2456
      9  N         27.6530  -13.5310  -11.8940 N.am   32  GLY32      -0.1942
     10  CA        28.9340  -13.1480  -11.3280 C.3    32  GLY32       0.2014
     11  C         30.1090  -13.1070  -12.2700 C.2    32  GLY32       0.2638
     12  O         30.9680  -12.2620  -12.1700 O.2    32  GLY32      -0.2714
     13  N         30.1350  -14.0290  -13.2160 N.am   33  LEU33      -0.1977
     14  CA        31.2000  -14.0980  -14.2000 C.3    33  LEU33       0.1596
     15  C         31.1750  -12.8940  -15.1330 C.2    33  LEU33       0.2287
     16  O         32.1590  -12.5980  -15.7730 O.2    33  LEU33      -0.2864
     17  CB        31.1240  -15.4120  -14.9690 C.3    33  LEU33       0.0297
     18  CG        31.1230  -16.6170  -14.0370 C.3    33  LEU33       0.0022
     19  CD1       31.0350  -17.9290  -14.7850 C.3    33  LEU33       0.0001
     20  CD2       32.3200  -16.5970  -13.1050 C.3    33  LEU33       0.0001
     21  N         22.3790  -15.0790   -9.7960 N.3   102  ALA102     -0.1231
     22  CA        23.4030  -14.9380   -8.7670 C.3   102  ALA102      0.1694
     23  C         23.5600  -13.4870   -8.3460 C.2   102  ALA102      0.2592
     24  O         22.6320  -12.8880   -7.8480 O.2   102  ALA102     -0.2718
     25  CB        24.7220  -15.5100   -9.2520 C.3   102  ALA102      0.0304
     26  N         24.7470  -12.9240   -8.5480 N.am  103  SER103     -0.1952
     27  CA        25.0030  -11.5230   -8.2260 C.3   103  SER103      0.1924
     28  C         24.0930  -10.6350   -9.0650 C.2   103  SER103      0.2314
     29  O         23.6890   -9.5800   -8.6360 O.2   103  SER103     -0.2863
     30  CB        26.4700  -11.1500   -8.4290 C.3   103  SER103      0.2116
     31  OG        26.8800  -11.3490   -9.7540 O.3   103  SER103     -0.2180
     32  N         22.0660  -15.3800   -4.2410 N.3   128  PRO128     -0.2116
     33  CA        22.9150  -15.9090   -3.1850 C.3   128  PRO128      0.1372
     34  C         22.5740  -15.2720   -1.8380 C.2   128  PRO128      0.2244
     35  O         22.4610  -14.0930   -1.7330 O.2   128  PRO128     -0.2868
     36  CB        24.3190  -15.5730   -3.6510 C.3   128  PRO128      0.0268
     37  CG        24.1790  -15.0410   -5.0270 C.3   128  PRO128      0.0207
     38  CD        22.8050  -14.5100   -5.1490 C.3   128  PRO128      0.0892
     39  N         33.2000  -22.4050   -2.0930 N.3   135  LEU135     -0.1245
     40  CA        33.8330  -21.1500   -2.4230 C.3   135  LEU135      0.1561
     41  C         34.3010  -20.3800   -1.2110 C.2   135  LEU135      0.2260
     42  O         34.6550  -19.2170   -1.3190 O.2   135  LEU135     -0.2867
     43  CB        32.8600  -20.2660   -3.1850 C.3   135  LEU135      0.0270
     44  CG        32.0070  -20.8740   -4.2820 C.3   135  LEU135      0.0019
     45  CD1       30.8740  -19.9250   -4.6070 C.3   135  LEU135      0.0001
     46  CD2       32.8500  -21.1420   -5.5110 C.3   135  LEU135      0.0001
     47  N         37.1710  -22.6840  -10.5210 N.3   150  MET150     -0.1245
     48  CA        35.9620  -21.9870  -10.9260 C.3   150  MET150      0.1570
     49  C         35.4510  -22.4260  -12.2930 C.2   150  MET150      0.2261
     50  O         34.2610  -22.4540  -12.5230 O.2   150  MET150     -0.2867
     51  CB        36.1480  -20.4710  -10.8600 C.3   150  MET150      0.0387
     52  CG        36.1420  -19.9110   -9.4470 C.3   150  MET150      0.0595
     53  SD        34.8800  -20.6120   -8.3710 S.3   150  MET150     -0.1393
     54  CE        33.4120  -20.2150   -9.2940 C.3   150  MET150      0.0692
     55  N         33.8010  -25.6640  -11.4900 N.3   153  ASN153     -0.1225
     56  CA        32.5640  -25.4320  -10.7620 C.3   153  ASN153      0.1785
     57  C         31.4610  -24.9230  -11.6790 C.2   153  ASN153      0.2597
     58  O         30.3590  -25.4430  -11.6770 O.2   153  ASN153     -0.2718
     59  CB        32.7700  -24.4410   -9.6280 C.3   153  ASN153      0.1169
     60  CG        33.6770  -24.9710   -8.5410 C.2   153  ASN153      0.2627
     61  OD1       33.8340  -26.1740   -8.3670 O.2   153  ASN153     -0.2716
     62  ND2       34.2840  -24.0650   -7.8060 N.am  153  ASN153     -0.0877
     63  N         31.7750  -23.9000  -12.4610 N.am  154  SER154     -0.1952
     64  CA        30.8080  -23.3180  -13.3700 C.3   154  SER154      0.1924
     65  C         30.3090  -24.3340  -14.3720 C.2   154  SER154      0.2314
     66  O         29.1280  -24.4150  -14.6260 O.2   154  SER154     -0.2863
     67  CB        31.3880  -22.1070  -14.0840 C.3   154  SER154      0.2116
     68  OG        31.8170  -21.1390  -13.1650 O.3   154  SER154     -0.2180
     69  N         27.8590  -26.6260  -12.9910 N.3   157  ALA157     -0.1245
     70  CA        26.5930  -25.9910  -12.6900 C.3   157  ALA157      0.1562
     71  C         25.9850  -25.3710  -13.9420 C.2   157  ALA157      0.2260
     72  O         25.0600  -24.5890  -13.8680 O.2   157  ALA157     -0.2867
     73  CB        26.7810  -24.9420  -11.6180 C.3   157  ALA157      0.0290
     74  N         36.5780  -12.1310   -9.9230 N.3   182  TRP182     -0.1241
     75  CA        35.2740  -12.4020   -9.3570 C.3   182  TRP182      0.1605
     76  C         35.4640  -12.9060   -7.9410 C.2   182  TRP182      0.2264
     77  O         34.7950  -12.4710   -7.0270 O.2   182  TRP182     -0.2867
     78  CB        34.5330  -13.4530  -10.1630 C.3   182  TRP182      0.0550
     79  CG        33.3340  -13.9830   -9.4670 C.ar  182  TRP182      0.0003
     80  CD1       32.0890  -13.4480   -9.4740 C.ar  182  TRP182      0.0946
     81  CD2       33.2640  -15.1460   -8.6470 C.ar  182  TRP182      0.0152
     82  NE1       31.2480  -14.2030   -8.7200 N.ar  182  TRP182     -0.2442
     83  CE2       31.9450  -15.2560   -8.2000 C.ar  182  TRP182      0.0810
     84  CE3       34.1860  -16.1150   -8.2590 C.ar  182  TRP182      0.0012
     85  CZ2       31.5270  -16.2880   -7.3750 C.ar  182  TRP182      0.0191
     86  CZ3       33.7720  -17.1310   -7.4450 C.ar  182  TRP182      0.0001
     87  CH2       32.4550  -17.2130   -7.0100 C.ar  182  TRP182      0.0015
     88  N         33.5040  -10.7360   -5.1120 N.3   186  TYR186     -0.1228
     89  CA        32.1130  -11.1640   -5.1120 C.3   186  TYR186      0.1721
     90  C         31.5690  -12.0790   -4.0110 C.2   186  TYR186      0.2437
     91  O         30.8050  -11.6360   -3.1900 O.2   186  TYR186     -0.2733
     92  CB        31.7420  -11.7420   -6.4810 C.3   186  TYR186      0.0547
     93  CG        31.4290  -10.7110   -7.5430 C.ar  186  TYR186     -0.0200
     94  CD1       32.3760   -9.7880   -7.9330 C.ar  186  TYR186     -0.0009
     95  CD2       30.1940  -10.6760   -8.1610 C.ar  186  TYR186     -0.0009
     96  CE1       32.1060   -8.8510   -8.8990 C.ar  186  TYR186      0.0417
     97  CE2       29.9160   -9.7470   -9.1320 C.ar  186  TYR186      0.0417
     98  CZ        30.8810   -8.8330   -9.4930 C.ar  186  TYR186      0.1957
     99  OH        30.6260   -7.9060  -10.4530 O.3   186  TYR186     -0.2866
    100  N         31.9720  -13.3520   -3.9950 N.am  187  PRO187     -0.2729
    101  CA        31.4330  -14.3580   -3.0740 C.3   187  PRO187      0.1401
    102  C         31.3820  -14.0060   -1.5950 C.2   187  PRO187      0.2269
    103  O         30.4880  -14.4570   -0.9240 O.2   187  PRO187     -0.2865
    104  CB        32.3200  -15.5770   -3.3160 C.3   187  PRO187      0.0296
    105  CG        33.5680  -15.0300   -3.8800 C.3   187  PRO187      0.0237
    106  CD        33.1680  -13.8420   -4.6870 C.3   187  PRO187      0.0939
    107  N         28.6450  -10.4830   -1.6730 N.3   190  ILE190     -0.1245
    108  CA        27.3570  -10.5530   -2.3410 C.3   190  ILE190      0.1561
    109  C         26.2160  -11.1730   -1.5140 C.2   190  ILE190      0.2260
    110  O         25.1750  -10.5620   -1.3660 O.2   190  ILE190     -0.2867
    111  CB        27.4810  -11.2200   -3.7330 C.3   190  ILE190      0.0252
    112  CG1       27.8360  -10.1800   -4.7900 C.3   190  ILE190      0.0019
    113  CG2       26.2030  -11.9260   -4.1380 C.3   190  ILE190      0.0019
    114  CD1       26.7060   -9.2490   -5.1430 C.3   190  ILE190      0.0001
    115  N         22.3790  -23.2120  -12.9250 N.3   240  HIS240     -0.1226
    116  CA        22.7950  -21.8350  -12.7460 C.3   240  HIS240      0.1752
    117  C         22.7720  -20.9600  -13.9950 C.2   240  HIS240      0.2596
    118  O         22.7320  -19.7570  -13.8870 O.2   240  HIS240     -0.2718
    119  CB        24.2030  -21.8340  -12.1610 C.3   240  HIS240      0.0759
    120  CG        24.5580  -20.5950  -11.4080 C.ar  240  HIS240      0.0818
    121  ND1       23.9270  -20.2220  -10.2450 N.ar  240  HIS240     -0.2268
    122  CD2       25.5040  -19.6570  -11.6380 C.ar  240  HIS240      0.1154
    123  CE1       24.4570  -19.1010   -9.7970 C.ar  240  HIS240      0.1986
    124  NE2       25.4160  -18.7370  -10.6240 N.ar  240  HIS240     -0.2212
    125  N         22.8160  -21.5630  -15.1710 N.am  241  PHE241     -0.1976
    126  CA        22.8550  -20.7930  -16.3970 C.3   241  PHE241      0.1639
    127  C         21.7910  -21.2050  -17.3980 C.2   241  PHE241      0.2290
    128  O         22.1090  -21.7020  -18.4560 O.2   241  PHE241     -0.2864
    129  CB        24.2240  -20.9390  -17.0530 C.3   241  PHE241      0.0560
    130  CG        25.3730  -20.5090  -16.1910 C.ar  241  PHE241     -0.0200
    131  CD1       25.9600  -21.3870  -15.3090 C.ar  241  PHE241     -0.0042
    132  CD2       25.8820  -19.2320  -16.2850 C.ar  241  PHE241     -0.0042
    133  CE1       27.0240  -20.9990  -14.5280 C.ar  241  PHE241     -0.0003
    134  CE2       26.9460  -18.8390  -15.5070 C.ar  241  PHE241     -0.0003
    135  CZ        27.5190  -19.7260  -14.6250 C.ar  241  PHE241     -0.0000
@<TRIPOS>BOND
     1   128   127    2
     2   127   126    1
     3   129   126    1
     4   129   130    1
     5   126   125    1
     6   132   130   ar
     7   132   134   ar
     8   130   131   ar
     9    16    15    2
    10     7     6   ar
    11   134   135   ar
    12   131   133   ar
    13   125   117   am
    14    15    14    1
    15    17    14    1
    16    17    18    1
    17    19    18    1
    18     1     2    1
    19    66    65    2
    20   135   133   ar
    21     6     8   ar
    22     6     5    1
    23    65    64    1
    24    14    13    1
    25    67    64    1
    26    67    68    1
    27    18    20    1
    28   117   118    2
    29   117   116    1
    30    71    72    2
    31    71    70    1
    32     4     3    2
    33     5     2    1
    34    64    63    1
    35     2     3    1
    36    13    11   am
    37    69    70    1
    38     3     9   am
    39   115   116    1
    40   116   119    1
    41    70    73    1
    42    50    49    2
    43    63    57   am
    44    49    48    1
    45    11    12    2
    46    11    10    1
    47   119   120    1
    48     9    10    1
    49    57    58    2
    50    57    56    1
    51   122   120   ar
    52   122   124   ar
    53    55    56    1
    54   120   121   ar
    55    48    51    1
    56    48    47    1
    57    51    52    1
    58    56    59    1
    59   124   123   ar
    60    99    98    1
    61   121   123   ar
    62    78    79    1
    63    78    75    1
    64    74    75    1
    65    21    22    1
    66    31    30    1
    67    59    60    1
    68    98    97   ar
    69    98    96   ar
    70    80    79   ar
    71    80    82   ar
    72    79    81   ar
    73    52    53    1
    74    75    76    1
    75    54    53    1
    76    25    22    1
    77    97    95   ar
    78    28    29    2
    79    28    27    1
    80    96    94   ar
    81    22    23    1
    82    82    83   ar
    83    81    84   ar
    84    81    83   ar
    85    26    23   am
    86    26    27    1
    87    60    61    2
    88    60    62   am
    89    30    27    1
    90    23    24    2
    91    84    86   ar
    92    83    85   ar
    93    95    93   ar
    94    76    77    2
    95    94    93   ar
    96    93    92    1
    97    86    87   ar
    98    85    87   ar
    99    92    89    1
   100    46    44    1
   101    38    37    1
   102    38    32    1
   103   114   112    1
   104    89    88    1
   105    89    90    1
   106    37    36    1
   107   112   111    1
   108   106   100    1
   109   106   105    1
   110    45    44    1
   111    44    43    1
   112    32    33    1
   113   113   111    1
   114    90   100   am
   115    90    91    2
   116   100   101    1
   117   105   104    1
   118   111   108    1
   119    36    33    1
   120   104   101    1
   121    33    34    1
   122    43    40    1
   123   101   102    1
   124    40    39    1
   125    40    41    1
   126   108   107    1
   127   108   109    1
   128    34    35    2
   129   102   103    2
   130   109   110    2
   131    42    41    2
