@<TRIPOS>MOLECULE
tmp/5z5oA00.pdb
 100 96 0 0 0
SMALL
GASTEIGER

@<TRIPOS>ATOM
      1  N         33.7530   40.8430   35.0450 N.3    97  SER97      -0.1202
      2  CA        34.7480   41.4500   35.9080 C.3    97  SER97       0.2020
      3  C         35.5470   42.4650   35.0960 C.2    97  SER97       0.2619
      4  O         35.7320   42.3130   33.8810 O.2    97  SER97      -0.2717
      5  CB        35.6690   40.3980   36.5000 C.3    97  SER97       0.2103
      6  OG        36.4650   39.8940   35.4700 O.3    97  SER97      -0.2182
      7  N         35.9830   43.5200   35.7840 N.am   98  VAL98      -0.1965
      8  CA        36.8170   44.5750   35.2220 C.3    98  VAL98       0.1727
      9  C         37.8980   44.9120   36.2320 C.2    98  VAL98       0.2616
     10  O         37.6220   44.9870   37.4280 O.2    98  VAL98      -0.2715
     11  CB        35.9620   45.8250   34.8870 C.3    98  VAL98       0.0290
     12  CG1       36.8100   46.9720   34.4870 C.3    98  VAL98       0.0023
     13  CG2       34.9430   45.4950   33.7840 C.3    98  VAL98       0.0023
     14  N         39.1210   45.1450   35.7660 N.am   99  ASP99      -0.1971
     15  CA        40.1790   45.5740   36.6850 C.3    99  ASP99       0.1709
     16  C         41.0920   46.5400   35.9320 C.2    99  ASP99       0.2293
     17  O         42.0150   46.0920   35.2450 O.2    99  ASP99      -0.2864
     18  CB        40.9580   44.3690   37.2350 C.3    99  ASP99       0.1436
     19  CG        42.0000   44.7640   38.2920 C.2    99  ASP99       0.3671
     20  OD1       42.2920   45.9670   38.4460 O.co2  99  ASP99      -0.2456
     21  OD2       42.5190   43.8910   39.0310 O.co2  99  ASP99      -0.2456
     22  N         43.3970   48.3680   36.9290 N.3   101  ARG101     -0.1231
     23  CA        44.8050   48.2940   37.2950 C.3   101  ARG101      0.1694
     24  C         45.5760   47.5360   36.2370 C.2   101  ARG101      0.2591
     25  O         46.6700   47.9460   35.8350 O.2   101  ARG101     -0.2718
     26  CB        44.9820   47.6440   38.6660 C.3   101  ARG101      0.0321
     27  CG        44.3060   48.4310   39.7990 C.3   101  ARG101      0.0489
     28  CD        44.2970   47.6910   41.1650 C.3   101  ARG101      0.2205
     29  NE        43.7130   46.3550   41.0110 N.pl3 101  ARG101     -0.0865
     30  CZ        43.6090   45.4470   41.9920 C.cat 101  ARG101      0.5346
     31  NH1       44.0140   45.7420   43.2290 N.pl3 101  ARG101      0.1354
     32  NH2       43.0560   44.2720   41.7330 N.pl3 101  ARG101      0.1354
     33  N         44.9900   46.4500   35.7280 N.am  102  LYS102     -0.1980
     34  CA        45.6780   45.5800   34.8030 C.3   102  LYS102      0.1596
     35  C         45.7120   46.1440   33.4090 C.2   102  LYS102      0.2287
     36  O         46.5240   45.6890   32.6110 O.2   102  LYS102     -0.2864
     37  CB        45.0120   44.2000   34.8030 C.3   102  LYS102      0.0298
     38  CG        45.1530   43.4510   36.1380 C.3   102  LYS102      0.0038
     39  CD        44.8220   41.9770   36.0420 C.3   102  LYS102      0.0206
     40  CE        43.3500   41.7270   35.7690 C.3   102  LYS102      0.1093
     41  NZ        43.0010   40.2680   35.7310 N.3   102  LYS102     -0.1314
     42  N         35.6260   45.6460   39.3930 N.3   262  TYR262     -0.1227
     43  CA        34.6740   44.8060   40.0790 C.3   262  TYR262      0.1736
     44  C         34.8880   43.3560   39.6280 C.2   262  TYR262      0.2596
     45  O         35.4590   43.0700   38.5720 O.2   262  TYR262     -0.2718
     46  CB        33.2090   45.2270   39.8310 C.3   262  TYR262      0.0548
     47  CG        32.7810   45.1820   38.3930 C.ar  262  TYR262     -0.0200
     48  CD1       32.4160   43.9820   37.7810 C.ar  262  TYR262     -0.0009
     49  CD2       32.7540   46.3340   37.6430 C.ar  262  TYR262     -0.0009
     50  CE1       32.0610   43.9380   36.4650 C.ar  262  TYR262      0.0417
     51  CE2       32.3840   46.3110   36.3080 C.ar  262  TYR262      0.0417
     52  CZ        32.0270   45.1050   35.7280 C.ar  262  TYR262      0.1957
     53  OH        31.6560   45.0820   34.4090 O.3   262  TYR262     -0.2866
     54  N         34.4400   42.4490   40.4630 N.am  263  GLY263     -0.1942
     55  CA        34.6210   41.0600   40.1320 C.3   263  GLY263      0.2014
     56  C         34.0400   40.1610   41.1810 C.2   263  GLY263      0.2639
     57  O         33.0700   40.4930   41.8690 O.2   263  GLY263     -0.2714
     58  N         34.6290   38.9840   41.2850 N.am  264  ILE264     -0.1963
     59  CA        34.2270   38.0280   42.3040 C.3   264  ILE264      0.1727
     60  C         35.4440   37.2160   42.7240 C.2   264  ILE264      0.2616
     61  O         36.2880   36.8420   41.9090 O.2   264  ILE264     -0.2715
     62  CB        33.0850   37.1230   41.7890 C.3   264  ILE264      0.0290
     63  CG1       32.5820   36.2140   42.9040 C.3   264  ILE264      0.0022
     64  CG2       33.5390   36.2850   40.6060 C.3   264  ILE264      0.0023
     65  CD1       31.3360   35.4630   42.4730 C.3   264  ILE264      0.0001
     66  N         35.5060   36.9070   44.0040 N.am  265  GLN265     -0.1977
     67  CA        36.6610   36.2410   44.5490 C.3   265  GLN265      0.1601
     68  C         36.1120   35.1810   45.4750 C.2   265  GLN265      0.2287
     69  O         35.4080   35.5270   46.4270 O.2   265  GLN265     -0.2864
     70  CB        37.5780   37.2030   45.3100 C.3   265  GLN265      0.0394
     71  CG        38.7940   36.5070   45.8430 C.3   265  GLN265      0.0908
     72  CD        39.7220   37.4960   46.5110 C.2   265  GLN265      0.2608
     73  OE1       40.4740   38.2110   45.8430 O.2   265  GLN265     -0.2717
     74  NE2       39.6300   37.5840   47.8120 N.am  265  GLN265     -0.0878
     75  N         32.4510   41.6470   44.4550 N.3   270  HIS270     -0.1241
     76  CA        33.1040   42.7950   45.0680 C.3   270  HIS270      0.1621
     77  C         33.2720   43.9600   44.0990 C.2   270  HIS270      0.2264
     78  O         33.1080   43.8370   42.8740 O.2   270  HIS270     -0.2867
     79  CB        34.4730   42.4310   45.6340 C.3   270  HIS270      0.0745
     80  CG        35.4200   41.8780   44.6180 C.ar  270  HIS270      0.0817
     81  ND1       35.9760   42.6510   43.6140 N.ar  270  HIS270     -0.2268
     82  CD2       35.8490   40.6100   44.4030 C.ar  270  HIS270      0.1154
     83  CE1       36.7780   41.8970   42.8820 C.ar  270  HIS270      0.1986
     84  NE2       36.7050   40.6530   43.3310 N.ar  270  HIS270     -0.2212
     85  N         36.5010   46.6480   43.3940 N.3   272  ILE272     -0.1245
     86  CA        37.9290   46.8960   43.6530 C.3   272  ILE272      0.1561
     87  C         38.1160   48.3790   43.9620 C.2   272  ILE272      0.2260
     88  O         37.8730   49.2580   43.1060 O.2   272  ILE272     -0.2867
     89  CB        38.7850   46.4720   42.4630 C.3   272  ILE272      0.0252
     90  CG1       38.4040   45.0610   42.0010 C.3   272  ILE272      0.0019
     91  CG2       40.2300   46.5000   42.8550 C.3   272  ILE272      0.0019
     92  CD1       39.0310   44.6900   40.6950 C.3   272  ILE272      0.0001
     93  N         38.8480   45.0860   48.6730 N.3   288  LEU288     -0.1245
     94  CA        37.7320   44.5340   47.9330 C.3   288  LEU288      0.1561
     95  C         36.5090   44.7340   48.8070 C.2   288  LEU288      0.2260
     96  O         36.4660   44.2300   49.9240 O.2   288  LEU288     -0.2867
     97  CB        37.9230   43.0430   47.6070 C.3   288  LEU288      0.0270
     98  CG        39.1760   42.7120   46.7800 C.3   288  LEU288      0.0019
     99  CD1       39.2620   41.2470   46.4550 C.3   288  LEU288      0.0001
    100  CD2       39.2630   43.5660   45.4640 C.3   288  LEU288      0.0001
@<TRIPOS>BOND
     1    36    35    2
     2    35    34    1
     3    13    11    1
     4     4     3    2
     5    53    52    1
     6    12    11    1
     7    34    37    1
     8    34    33    1
     9    37    38    1
    10    11     8    1
    11     1     2    1
    12     3     7   am
    13     3     2    1
    14     8     7    1
    15     8     9    1
    16    17    16    2
    17     6     5    1
    18    33    24   am
    19    52    51   ar
    20    52    50   ar
    21    41    40    1
    22    14     9   am
    23    14    15    1
    24    40    39    1
    25    25    24    2
    26     2     5    1
    27    16    15    1
    28    39    38    1
    29     9    10    2
    30    24    23    1
    31    51    49   ar
    32    50    48   ar
    33    15    18    1
    34    22    23    1
    35    18    19    1
    36    23    26    1
    37    49    47   ar
    38    48    47   ar
    39    19    20   ar
    40    19    21   ar
    41    47    46    1
    42    45    44    2
    43    26    27    1
    44    42    43    1
    45    44    43    1
    46    44    54   am
    47    27    28    1
    48    46    43    1
    49    55    54    1
    50    55    56    1
    51    64    62    1
    52    92    90    1
    53    29    28    1
    54    29    30    2
    55    56    58   am
    56    56    57    2
    57    58    59    1
    58    32    30    1
    59    62    59    1
    60    62    63    1
    61    61    60    2
    62    30    31    1
    63    90    89    1
    64    59    60    1
    65    89    91    1
    66    89    86    1
    67    65    63    1
    68    60    66   am
    69    78    77    2
    70    83    84   ar
    71    83    81   ar
    72    88    87    2
    73    84    82   ar
    74    85    86    1
    75    81    80   ar
    76    86    87    1
    77    66    67    1
    78    77    76    1
    79    82    80   ar
    80    75    76    1
    81    67    70    1
    82    67    68    1
    83    80    79    1
    84    76    79    1
    85    70    71    1
    86   100    98    1
    87    68    69    2
    88    73    72    2
    89    71    72    1
    90    99    98    1
    91    72    74   am
    92    98    97    1
    93    97    94    1
    94    94    93    1
    95    94    95    1
    96    95    96    2
