@<TRIPOS>MOLECULE
tmp/5z5sA01.pdb
 221 208 0 0 0
SMALL
GASTEIGER

@<TRIPOS>ATOM
      1  N         11.8680   39.2430   93.5250 N.3    44  ILE44      -0.1245
      2  CA        10.8140   39.8580   94.3230 C.3    44  ILE44       0.1561
      3  C          9.4940   39.3180   93.7850 C.2    44  ILE44       0.2260
      4  O          9.0690   39.6670   92.6780 O.2    44  ILE44      -0.2867
      5  CB        10.8510   41.3890   94.2130 C.3    44  ILE44       0.0252
      6  CG1       12.1520   41.9060   94.8180 C.3    44  ILE44       0.0019
      7  CG2        9.6560   42.0000   94.9210 C.3    44  ILE44       0.0019
      8  CD1       12.2980   43.3940   94.7580 C.3    44  ILE44       0.0001
      9  N          9.8030   41.6580   98.8490 N.3    50  LEU50      -0.1245
     10  CA         9.9650   43.0500   98.4510 C.3    50  LEU50       0.1561
     11  C         10.7000   43.7220   99.6070 C.2    50  LEU50       0.2260
     12  O         11.5980   44.5450   99.4060 O.2    50  LEU50      -0.2867
     13  CB         8.6020   43.7190   98.2430 C.3    50  LEU50       0.0270
     14  CG         8.6480   45.2120   97.9190 C.3    50  LEU50       0.0019
     15  CD1        9.1450   45.4060   96.4940 C.3    50  LEU50       0.0001
     16  CD2        7.2650   45.8250   98.0840 C.3    50  LEU50       0.0001
     17  N         14.3050   42.4960   99.4750 N.3    53  GLY53      -0.1210
     18  CA        14.9870   43.1370   98.3630 C.3    53  GLY53       0.1956
     19  C         15.2740   44.6100   98.5840 C.2    53  GLY53       0.2611
     20  O         16.2670   45.1400   98.0840 O.2    53  GLY53      -0.2717
     21  N         14.4020   45.2710   99.3370 N.am   54  GLU54      -0.1979
     22  CA        14.5380   46.6940   99.6320 C.3    54  GLU54       0.1602
     23  C         15.8210   46.9970  100.3960 C.2    54  GLU54       0.2287
     24  O         16.1100   48.1510  100.7170 O.2    54  GLU54      -0.2864
     25  CB        13.3400   47.1600  100.4520 C.3    54  GLU54       0.0415
     26  CG        13.2740   48.6490  100.6820 C.3    54  GLU54       0.1163
     27  CD        12.2910   49.0070  101.7740 C.2    54  GLU54       0.3649
     28  OE1       11.1690   48.4470  101.7690 O.co2  54  GLU54      -0.2457
     29  OE2       12.6350   49.8500  102.6350 O.co2  54  GLU54      -0.2457
     30  N         18.8410   45.3500   96.9880 N.3    57  ILE57      -0.1245
     31  CA        18.9930   46.1840   95.8050 C.3    57  ILE57       0.1561
     32  C         19.4090   47.6100   96.1540 C.2    57  ILE57       0.2260
     33  O         20.3360   48.1570   95.5470 O.2    57  ILE57      -0.2867
     34  CB        17.6870   46.2200   94.9940 C.3    57  ILE57       0.0252
     35  CG1       17.2580   44.7920   94.6570 C.3    57  ILE57       0.0019
     36  CG2       17.8920   47.0180   93.7070 C.3    57  ILE57       0.0019
     37  CD1       15.9860   44.7040   93.8500 C.3    57  ILE57       0.0001
     38  N          4.8690   52.8760   96.2060 N.3    64  ARG64      -0.1231
     39  CA         6.3180   52.7470   96.2110 C.3    64  ARG64       0.1694
     40  C          6.8030   52.1080   94.9140 C.2    64  ARG64       0.2591
     41  O          7.8170   52.5190   94.3440 O.2    64  ARG64      -0.2718
     42  CB         6.7650   51.8870   97.3880 C.3    64  ARG64       0.0321
     43  CG         6.4500   52.4800   98.7530 C.3    64  ARG64       0.0489
     44  CD         6.8550   51.4950   99.8250 C.3    64  ARG64       0.2205
     45  NE         8.2190   51.0270   99.6030 N.pl3  64  ARG64      -0.0865
     46  CZ         8.7560   49.9770  100.2100 C.cat  64  ARG64       0.5346
     47  NH1        8.0430   49.2750  101.0840 N.pl3  64  ARG64       0.1354
     48  NH2       10.0030   49.6220   99.9320 N.pl3  64  ARG64       0.1354
     49  N          6.0790   51.0940   94.4530 N.am   65  ILE65      -0.1980
     50  CA         6.4520   50.4170   93.2200 C.3    65  ILE65       0.1595
     51  C          6.2400   51.3480   92.0340 C.2    65  ILE65       0.2287
     52  O          7.1310   51.4950   91.1960 O.2    65  ILE65      -0.2864
     53  CB         5.6440   49.1130   93.0300 C.3    65  ILE65       0.0276
     54  CG1        6.1660   48.0520   94.0090 C.3    65  ILE65       0.0022
     55  CG2        5.7570   48.6200   91.5850 C.3    65  ILE65       0.0022
     56  CD1        5.3610   46.7680   94.0220 C.3    65  ILE65       0.0001
     57  N          8.7580   53.8560   91.9040 N.3    68  GLY68      -0.1210
     58  CA        10.0360   53.2460   91.5850 C.3    68  GLY68       0.1956
     59  C         10.2090   53.1870   90.0760 C.2    68  GLY68       0.2612
     60  O         11.3020   53.4210   89.5530 O.2    68  GLY68      -0.2717
     61  N          9.1260   52.8630   89.3730 N.am   69  CYS69      -0.1956
     62  CA         9.1610   52.8040   87.9110 C.3    69  CYS69       0.1843
     63  C          9.4140   54.2120   87.3800 C.2    69  CYS69       0.2625
     64  O         10.1400   54.3980   86.4050 O.2    69  CYS69      -0.2714
     65  CB         7.8300   52.2940   87.3570 C.3    69  CYS69       0.0997
     66  SG         7.4440   50.5840   87.7900 S.3    69  CYS69      -0.0797
     67  N          8.8120   55.2020   88.0330 N.am   70  GLN70      -0.1977
     68  CA         8.9760   56.5930   87.6180 C.3    70  GLN70       0.1601
     69  C         10.4350   57.0090   87.7380 C.2    70  GLN70       0.2287
     70  O         10.9780   57.6690   86.8480 O.2    70  GLN70      -0.2864
     71  CB         8.0960   57.5080   88.4740 C.3    70  GLN70       0.0394
     72  CG         6.6130   57.2220   88.3380 C.3    70  GLN70       0.0908
     73  CD         6.0470   57.6650   87.0110 C.2    70  GLN70       0.2608
     74  OE1        5.6810   58.8300   86.8370 O.2    70  GLN70      -0.2717
     75  NE2        5.9750   56.7390   86.0560 N.am   70  GLN70      -0.0878
     76  N         13.0280   55.0490   87.6310 N.3    72  ARG72      -0.1231
     77  CA        13.8190   54.3670   86.6110 C.3    72  ARG72       0.1694
     78  C         13.5910   55.0990   85.2920 C.2    72  ARG72       0.2592
     79  O         14.5010   55.2200   84.4740 O.2    72  ARG72      -0.2718
     80  CB        13.4010   52.8960   86.4870 C.3    72  ARG72       0.0321
     81  CG        13.8660   52.2010   85.2010 C.3    72  ARG72       0.0489
     82  CD        15.3730   52.3020   84.9830 C.3    72  ARG72       0.2205
     83  NE        15.7360   51.8430   83.6430 N.pl3  72  ARG72      -0.0865
     84  CZ        16.8110   52.2480   82.9700 C.cat  72  ARG72       0.5346
     85  NH1       17.6490   53.1270   83.5040 N.pl3  72  ARG72       0.1354
     86  NH2       17.0400   51.7840   81.7480 N.pl3  72  ARG72       0.1354
     87  N         12.3740   55.5960   85.0930 N.am   73  SER73      -0.1952
     88  CA        12.0500   56.3140   83.8640 C.3    73  SER73       0.1924
     89  C         12.9030   57.5770   83.7580 C.2    73  SER73       0.2314
     90  O         13.3850   57.9200   82.6820 O.2    73  SER73      -0.2863
     91  CB        10.5610   56.6790   83.8290 C.3    73  SER73       0.2116
     92  OG         9.7670   55.5050   83.7860 O.3    73  SER73      -0.2180
     93  N          8.9830   57.8480   76.0250 N.3   107  HIS107     -0.1241
     94  CA         8.2630   56.6900   76.5600 C.3   107  HIS107      0.1621
     95  C          8.2030   55.5380   75.5650 C.2   107  HIS107      0.2264
     96  O          8.2910   54.3700   75.9460 O.2   107  HIS107     -0.2867
     97  CB         6.8480   57.0760   77.0130 C.3   107  HIS107      0.0745
     98  CG         6.8320   57.8020   78.3190 C.ar  107  HIS107      0.0817
     99  ND1        7.0950   59.1500   78.4220 N.ar  107  HIS107     -0.2268
    100  CD2        6.6750   57.3510   79.5870 C.ar  107  HIS107      0.1154
    101  CE1        7.1030   59.4980   79.6970 C.ar  107  HIS107      0.1986
    102  NE2        6.8510   58.4250   80.4240 N.ar  107  HIS107     -0.2212
    103  N         11.4090   53.9660   75.9940 N.3   110  ILE110     -0.1231
    104  CA        11.4570   53.2660   77.2790 C.3   110  ILE110      0.1692
    105  C         10.7490   51.9100   77.1750 C.2   110  ILE110      0.2592
    106  O         11.2750   50.8920   77.6210 O.2   110  ILE110     -0.2718
    107  CB        10.7820   54.0920   78.4040 C.3   110  ILE110      0.0266
    108  CG1       11.6160   55.3340   78.7020 C.3   110  ILE110      0.0019
    109  CG2       10.6030   53.2220   79.6770 C.3   110  ILE110      0.0020
    110  CD1       10.9590   56.2970   79.6920 C.3   110  ILE110      0.0001
    111  N          9.5650   51.8730   76.5720 N.am  111  TYR111     -0.1976
    112  CA         8.8730   50.5940   76.5070 C.3   111  TYR111      0.1639
    113  C          9.5160   49.6010   75.5550 C.2   111  TYR111      0.2290
    114  O          9.3890   48.3920   75.7370 O.2   111  TYR111     -0.2864
    115  CB         7.3840   50.8130   76.2270 C.3   111  TYR111      0.0560
    116  CG         6.7570   51.5880   77.3690 C.ar  111  TYR111     -0.0198
    117  CD1        7.1640   51.3500   78.6860 C.ar  111  TYR111     -0.0009
    118  CD2        5.8290   52.6030   77.1420 C.ar  111  TYR111     -0.0009
    119  CE1        6.6780   52.1100   79.7480 C.ar  111  TYR111      0.0417
    120  CE2        5.3280   53.3690   78.2090 C.ar  111  TYR111      0.0417
    121  CZ         5.7630   53.1140   79.5040 C.ar  111  TYR111      0.1957
    122  OH         5.2960   53.8570   80.5670 O.3   111  TYR111     -0.2866
    123  N         12.4260   48.2660   77.6340 N.3   114  LEU114     -0.1245
    124  CA        11.9150   47.5260   78.7860 C.3   114  LEU114      0.1561
    125  C         11.6580   46.0910   78.3460 C.2   114  LEU114      0.2260
    126  O         11.9080   45.1420   79.0940 O.2   114  LEU114     -0.2867
    127  CB        10.6160   48.1630   79.2810 C.3   114  LEU114      0.0270
    128  CG         9.9890   47.5880   80.5540 C.3   114  LEU114      0.0019
    129  CD1       10.9890   47.6410   81.6940 C.3   114  LEU114      0.0001
    130  CD2        8.7390   48.3910   80.9020 C.3   114  LEU114      0.0001
    131  N         14.2760   43.5770   78.9170 N.3   117  LEU117     -0.1245
    132  CA        14.4750   43.1100   80.2920 C.3   117  LEU117      0.1561
    133  C         13.3230   42.2480   80.7940 C.2   117  LEU117      0.2260
    134  O         13.3000   41.8550   81.9670 O.2   117  LEU117     -0.2867
    135  CB        14.6230   44.3160   81.2290 C.3   117  LEU117      0.0270
    136  CG        15.5470   45.4440   80.7550 C.3   117  LEU117      0.0019
    137  CD1       15.6200   46.5140   81.8250 C.3   117  LEU117      0.0001
    138  CD2       16.9260   44.9100   80.4560 C.3   117  LEU117      0.0001
    139  N         10.2250   40.9800   85.1060 N.3   123  VAL123     -0.1231
    140  CA        11.1070   41.9980   84.5610 C.3   123  VAL123      0.1692
    141  C         12.3110   42.2850   85.4540 C.2   123  VAL123      0.2592
    142  O         12.1930   42.3250   86.6780 O.2   123  VAL123     -0.2718
    143  CB        10.3220   43.3110   84.3540 C.3   123  VAL123      0.0266
    144  CG1        9.7280   43.7760   85.6870 C.3   123  VAL123      0.0020
    145  CG2       11.2240   44.3770   83.7700 C.3   123  VAL123      0.0020
    146  N         13.4700   42.4740   84.8270 N.am  124  LEU124     -0.1966
    147  CA        14.6960   42.7910   85.5500 C.3   124  LEU124      0.1728
    148  C         14.6260   44.2460   85.9810 C.2   124  LEU124      0.2616
    149  O         14.1280   45.0900   85.2350 O.2   124  LEU124     -0.2715
    150  CB        15.9190   42.6170   84.6500 C.3   124  LEU124      0.0311
    151  CG        16.2900   41.2140   84.1820 C.3   124  LEU124      0.0022
    152  CD1       17.4470   41.3110   83.1860 C.3   124  LEU124      0.0001
    153  CD2       16.6820   40.3570   85.3860 C.3   124  LEU124      0.0001
    154  N         15.1180   44.5450   87.1790 N.am  125  ILE125     -0.1963
    155  CA        15.1120   45.9190   87.6570 C.3   125  ILE125      0.1727
    156  C         16.4940   46.2870   88.1830 C.2   125  ILE125      0.2616
    157  O         17.2940   45.4130   88.5270 O.2   125  ILE125     -0.2715
    158  CB        14.0600   46.1510   88.7730 C.3   125  ILE125      0.0290
    159  CG1       14.4030   45.3090   89.9980 C.3   125  ILE125      0.0022
    160  CG2       12.6520   45.8210   88.2560 C.3   125  ILE125      0.0023
    161  CD1       13.4710   45.5450   91.1480 C.3   125  ILE125      0.0001
    162  N         16.7620   47.5880   88.2300 N.am  126  SER126     -0.1950
    163  CA        18.0390   48.1260   88.6850 C.3   126  SER126      0.1924
    164  C         19.2410   47.4510   88.0260 C.2   126  SER126      0.2314
    165  O         20.1130   46.8960   88.7030 O.2   126  SER126     -0.2863
    166  CB        18.1570   48.0180   90.2040 C.3   126  SER126      0.2116
    167  OG        19.3420   48.6600   90.6430 O.3   126  SER126     -0.2180
    168  N         11.4340   41.2930   89.2980 N.3   132  MET132     -0.1245
    169  CA        10.1190   41.4000   89.9060 C.3   132  MET132      0.1570
    170  C          9.1370   40.6110   89.0570 C.2   132  MET132      0.2261
    171  O          8.9990   40.8590   87.8560 O.2   132  MET132     -0.2867
    172  CB         9.7040   42.8690   89.9970 C.3   132  MET132      0.0387
    173  CG         8.4610   43.1220   90.8300 C.3   132  MET132      0.0595
    174  SD         8.2340   44.8750   91.1930 S.3   132  MET132     -0.1393
    175  CE         9.1060   45.0250   92.7500 C.3   132  MET132      0.0692
    176  N          3.3510   41.9980   90.2830 N.3   137  LEU137     -0.1245
    177  CA         3.0510   43.3160   89.7430 C.3   137  LEU137      0.1561
    178  C          1.5700   43.5470   89.4540 C.2   137  LEU137      0.2260
    179  O          1.0890   44.6770   89.5300 O.2   137  LEU137     -0.2867
    180  CB         3.8780   43.5580   88.4780 C.3   137  LEU137      0.0270
    181  CG         5.3370   43.9170   88.7680 C.3   137  LEU137      0.0019
    182  CD1        6.1810   43.7350   87.5170 C.3   137  LEU137      0.0001
    183  CD2        5.4060   45.3540   89.2720 C.3   137  LEU137      0.0001
    184  N         -1.0610   48.3890   85.9410 N.3   147  PHE147     -0.1227
    185  CA        -0.0100   49.2730   85.4650 C.3   147  PHE147      0.1736
    186  C          0.8660   48.7340   84.3360 C.2   147  PHE147      0.2595
    187  O          0.9960   49.3670   83.2900 O.2   147  PHE147     -0.2718
    188  CB         0.8750   49.6790   86.6530 C.3   147  PHE147      0.0547
    189  CG         1.9790   50.6440   86.3030 C.ar  147  PHE147     -0.0202
    190  CD1        1.7180   51.7890   85.5530 C.ar  147  PHE147     -0.0042
    191  CD2        3.2780   50.4210   86.7500 C.ar  147  PHE147     -0.0042
    192  CE1        2.7380   52.7020   85.2530 C.ar  147  PHE147     -0.0003
    193  CE2        4.3010   51.3230   86.4590 C.ar  147  PHE147     -0.0003
    194  CZ         4.0300   52.4680   85.7080 C.ar  147  PHE147     -0.0000
    195  N          1.4370   47.5530   84.5310 N.am  148  MET148     -0.1979
    196  CA         2.3550   47.0140   83.5420 C.3   148  MET148      0.1605
    197  C          1.9230   45.8930   82.6210 C.2   148  MET148      0.2287
    198  O          2.6630   45.5350   81.7060 O.2   148  MET148     -0.2864
    199  CB         3.6330   46.6100   84.2490 C.3   148  MET148      0.0413
    200  CG         4.3910   47.7930   84.7870 C.3   148  MET148      0.0598
    201  SD         5.8350   47.2260   85.6130 S.3   148  MET148     -0.1393
    202  CE         6.8020   46.6490   84.2080 C.3   148  MET148      0.0692
    203  N          2.4290   46.4140   79.0490 N.3   151  LYS151     -0.1245
    204  CA         3.8330   46.4260   78.6570 C.3   151  LYS151      0.1561
    205  C          4.3700   45.0090   78.5170 C.2   151  LYS151      0.2260
    206  O          5.1480   44.7210   77.6080 O.2   151  LYS151     -0.2867
    207  CB         4.6460   47.2320   79.6740 C.3   151  LYS151      0.0271
    208  CG         4.3500   48.7230   79.5770 C.3   151  LYS151      0.0035
    209  CD         4.0840   49.3670   80.9250 C.3   151  LYS151      0.0206
    210  CE         3.4980   50.7610   80.7450 C.3   151  LYS151      0.1093
    211  NZ         3.2450   51.4230   82.0470 N.3   151  LYS151     -0.1314
    212  N         -0.9150   54.4380   78.9320 N.3   233  HIS233     -0.1241
    213  CA        -0.1450   54.7410   80.1260 C.3   233  HIS233      0.1621
    214  C         -0.5030   56.1430   80.6040 C.2   233  HIS233      0.2264
    215  O         -0.7440   56.3600   81.7930 O.2   233  HIS233     -0.2867
    216  CB         1.3550   54.6380   79.8150 C.3   233  HIS233      0.0745
    217  CG         2.2400   55.0300   80.9550 C.ar  233  HIS233      0.0817
    218  ND1        2.8460   56.2660   81.0360 N.ar  233  HIS233     -0.2268
    219  CD2        2.6220   54.3500   82.0620 C.ar  233  HIS233      0.1154
    220  CE1        3.5630   56.3310   82.1440 C.ar  233  HIS233      0.1986
    221  NE2        3.4440   55.1820   82.7850 N.ar  233  HIS233     -0.2212
@<TRIPOS>BOND
     1   113   114    2
     2   113   112    1
     3    95    96    2
     4    95    94    1
     5   103   104    1
     6    93    94    1
     7   115   112    1
     8   115   116    1
     9   112   111    1
    10    94    97    1
    11   111   105   am
    12    97    98    1
    13   118   116   ar
    14   118   120   ar
    15   105   104    1
    16   105   106    2
    17   104   107    1
    18   116   117   ar
    19   206   205    2
    20   123   124    1
    21   120   121   ar
    22    98    99   ar
    23    98   100   ar
    24   125   124    1
    25   125   126    2
    26   107   108    1
    27   107   109    1
    28    99   101   ar
    29   205   204    1
    30   204   203    1
    31   204   207    1
    32   117   119   ar
    33   108   110    1
    34   124   127    1
    35   131   132    1
    36   212   213    1
    37   127   128    1
    38   121   119   ar
    39   121   122    1
    40   208   207    1
    41   208   209    1
    42   100   102   ar
    43   101   102   ar
    44   216   213    1
    45   216   217    1
    46   213   214    1
    47   132   133    1
    48   132   135    1
    49   138   136    1
    50   128   130    1
    51   128   129    1
    52   214   215    2
    53   210   209    1
    54   210   211    1
    55   136   135    1
    56   136   137    1
    57   133   134    2
    58   217   218   ar
    59   217   219   ar
    60   218   220   ar
    61   198   197    2
    62    86    84    1
    63   219   221   ar
    64   220   221   ar
    65   197   196    1
    66    90    89    2
    67    84    85    1
    68    84    83    2
    69   152   151    1
    70   187   186    2
    71   196   199    1
    72   196   195    1
    73    83    82    1
    74    89    88    1
    75   145   143    1
    76    92    91    1
    77    91    88    1
    78    88    87    1
    79   151   150    1
    80   151   153    1
    81   202   201    1
    82   199   200    1
    83   186   195   am
    84   186   185    1
    85   143   140    1
    86   143   144    1
    87    79    78    2
    88   140   139    1
    89   140   141    1
    90   150   147    1
    91   200   201    1
    92   146   141   am
    93   146   147    1
    94    82    81    1
    95    87    78   am
    96    81    80    1
    97   149   148    2
    98   192   190   ar
    99   192   194   ar
   100    78    77    1
   101   141   142    2
   102   185   184    1
   103   185   188    1
   104   147   148    1
   105   190   189   ar
   106   194   193   ar
   107   148   154   am
   108    75    73   am
   109   189   188    1
   110   189   191   ar
   111    64    63    2
   112   193   191   ar
   113    80    77    1
   114    77    76    1
   115    74    73    2
   116    70    69    2
   117    73    72    1
   118   154   155    1
   119    65    66    1
   120    65    62    1
   121    63    62    1
   122    63    67   am
   123   182   181    1
   124    68    69    1
   125    68    67    1
   126    68    71    1
   127   155   156    1
   128   155   158    1
   129   171   170    2
   130    62    61    1
   131   164   163    1
   132   164   165    2
   133   156   162   am
   134   156   157    2
   135   162   163    1
   136   160   158    1
   137    72    71    1
   138   180   181    1
   139   180   177    1
   140   163   166    1
   141   181   183    1
   142   158   159    1
   143   170   169    1
   144   168   169    1
   145    61    59   am
   146   178   179    2
   147   178   177    1
   148    60    59    2
   149   177   176    1
   150   169   172    1
   151   172   173    1
   152   159   161    1
   153    59    58    1
   154   166   167    1
   155   173   174    1
   156   174   175    1
   157    52    51    2
   158    58    57    1
   159    55    53    1
   160    51    50    1
   161     4     3    2
   162    53    50    1
   163    53    54    1
   164    50    49    1
   165     1     2    1
   166    36    34    1
   167     3     2    1
   168    37    35    1
   169    54    56    1
   170     5     2    1
   171     5     6    1
   172     5     7    1
   173    41    40    2
   174    49    40   am
   175    35    34    1
   176     8     6    1
   177    40    39    1
   178    34    31    1
   179    33    32    2
   180    31    32    1
   181    31    30    1
   182    38    39    1
   183    39    42    1
   184    15    14    1
   185    42    43    1
   186    14    16    1
   187    14    13    1
   188    20    19    2
   189    13    10    1
   190    18    19    1
   191    18    17    1
   192    10     9    1
   193    10    11    1
   194    19    21   am
   195    43    44    1
   196    21    22    1
   197    12    11    2
   198    45    44    1
   199    45    46    2
   200    22    23    1
   201    22    25    1
   202    48    46    1
   203    46    47    1
   204    23    24    2
   205    25    26    1
   206    26    27    1
   207    28    27   ar
   208    27    29   ar
