@<TRIPOS>MOLECULE
tmp/5z5tA00.pdb
 126 122 0 0 0
SMALL
GASTEIGER

@<TRIPOS>ATOM
      1  N         -2.1630    0.3200    1.1150 N.3    39  TRP39      -0.1228
      2  CA        -1.9050    1.5990    1.7770 C.3    39  TRP39       0.1722
      3  C         -3.1490    2.4310    2.0860 C.2    39  TRP39       0.2437
      4  O         -3.1870    3.0240    3.1760 O.2    39  TRP39      -0.2733
      5  CB        -0.8890    2.4270    0.9670 C.3    39  TRP39       0.0563
      6  CG        -1.3270    2.8210   -0.3900 C.ar   39  TRP39       0.0003
      7  CD1       -1.0900    2.1520   -1.5550 C.ar   39  TRP39       0.0946
      8  CD2       -2.0740    3.9910   -0.7460 C.ar   39  TRP39       0.0152
      9  NE1       -1.6470    2.8240   -2.6030 N.ar   39  TRP39      -0.2442
     10  CE2       -2.2590    3.9560   -2.1370 C.ar   39  TRP39       0.0810
     11  CE3       -2.6110    5.0630   -0.0190 C.ar   39  TRP39       0.0012
     12  CZ2       -2.9500    4.9530   -2.8270 C.ar   39  TRP39       0.0191
     13  CZ3       -3.3000    6.0600   -0.7160 C.ar   39  TRP39       0.0001
     14  CH2       -3.4640    5.9880   -2.0940 C.ar   39  TRP39       0.0015
     15  N         -4.1890    2.5170    1.2390 N.am   40  PRO40      -0.2718
     16  CA        -5.3330    3.3720    1.6090 C.3    40  PRO40       0.1535
     17  C         -6.0920    2.8680    2.8180 C.2    40  PRO40       0.2598
     18  O         -6.8630    3.6350    3.4140 O.2    40  PRO40      -0.2715
     19  CB        -6.2200    3.3570    0.3500 C.3    40  PRO40       0.0310
     20  CG        -5.3410    2.8660   -0.7450 C.3    40  PRO40       0.0237
     21  CD        -4.4290    1.8810   -0.0690 C.3    40  PRO40       0.0939
     22  N         -5.8750    1.6150    3.2120 N.am   41  PHE41      -0.1974
     23  CA        -6.6130    0.9760    4.2900 C.3    41  PHE41       0.1639
     24  C         -5.7740    0.7950    5.5490 C.2    41  PHE41       0.2290
     25  O         -6.2500    0.2040    6.5290 O.2    41  PHE41      -0.2864
     26  CB        -7.1550   -0.3660    3.7940 C.3    41  PHE41       0.0560
     27  CG        -7.8870   -0.2580    2.4910 C.ar   41  PHE41      -0.0200
     28  CD1       -9.2340    0.0700    2.4640 C.ar   41  PHE41      -0.0042
     29  CD2       -7.2220   -0.4560    1.2870 C.ar   41  PHE41      -0.0042
     30  CE1       -9.9130    0.1930    1.2550 C.ar   41  PHE41      -0.0003
     31  CE2       -7.8900   -0.3370    0.0800 C.ar   41  PHE41      -0.0003
     32  CZ        -9.2380   -0.0140    0.0610 C.ar   41  PHE41      -0.0000
     33  N         -4.8530    3.0350    7.6610 N.3    43  GLN43      -0.1245
     34  CA        -5.1810    4.0230    8.6810 C.3    43  GLN43       0.1566
     35  C         -6.5980    4.5120    8.4310 C.2    43  GLN43       0.2260
     36  O         -7.1400    4.3070    7.3360 O.2    43  GLN43      -0.2867
     37  CB        -4.1900    5.2040    8.6600 C.3    43  GLN43       0.0367
     38  CG        -4.1170    5.9480    7.3390 C.3    43  GLN43       0.0905
     39  CD        -3.3160    5.1960    6.3020 C.2    43  GLN43       0.2608
     40  OE1       -2.2080    4.7280    6.5730 O.2    43  GLN43      -0.2717
     41  NE2       -3.8840    5.0460    5.1150 N.am   43  GLN43      -0.0878
     42  N         -9.6400    6.7150    7.2280 N.3    45  VAL45      -0.1245
     43  CA        -9.7900    7.6650    6.1300 C.3    45  VAL45       0.1561
     44  C         -9.6470    9.0760    6.6760 C.2    45  VAL45       0.2260
     45  O        -10.3590    9.4640    7.6120 O.2    45  VAL45      -0.2867
     46  CB       -11.1440    7.4830    5.4400 C.3    45  VAL45       0.0252
     47  CG1      -11.4970    8.7250    4.6050 C.3    45  VAL45       0.0019
     48  CG2      -11.1440    6.2200    4.5920 C.3    45  VAL45       0.0019
     49  N         -8.0340   14.2310    2.0170 N.3    50  LEU50      -0.1245
     50  CA        -8.4620   13.6660    0.7440 C.3    50  LEU50       0.1561
     51  C         -9.5320   14.4960    0.0470 C.2    50  LEU50       0.2260
     52  O         -9.9440   14.1360   -1.0570 O.2    50  LEU50      -0.2867
     53  CB        -8.9790   12.2370    0.9530 C.3    50  LEU50       0.0270
     54  CG        -7.9400   11.1850    1.3330 C.3    50  LEU50       0.0019
     55  CD1       -8.6090    9.9450    1.9180 C.3    50  LEU50       0.0001
     56  CD2       -7.1000   10.8120    0.1220 C.3    50  LEU50       0.0001
     57  N        -12.6330   14.6630    0.7830 N.3    52  LEU52      -0.1245
     58  CA       -13.8380   13.8350    0.7710 C.3    52  LEU52       0.1561
     59  C        -14.7370   14.2830    1.9190 C.2    52  LEU52       0.2260
     60  O        -15.0020   13.5180    2.8560 O.2    52  LEU52      -0.2867
     61  CB       -13.4850   12.3560    0.9090 C.3    52  LEU52       0.0270
     62  CG       -12.4880   11.7460   -0.0840 C.3    52  LEU52       0.0019
     63  CD1      -12.1290   10.3260    0.3410 C.3    52  LEU52       0.0001
     64  CD2      -13.0490   11.7800   -1.4960 C.3    52  LEU52       0.0001
     65  N        -17.5020   12.0920    3.3140 N.3    55  TYR55      -0.1241
     66  CA       -17.2070   10.7010    3.6480 C.3    55  TYR55       0.1605
     67  C        -17.9410   10.2610    4.9080 C.2    55  TYR55       0.2264
     68  O        -18.6390    9.2380    4.9080 O.2    55  TYR55      -0.2867
     69  CB       -15.7010   10.4890    3.8220 C.3    55  TYR55       0.0534
     70  CG       -15.3790    9.0310    4.0390 C.ar   55  TYR55      -0.0201
     71  CD1      -15.3130    8.1520    2.9620 C.ar   55  TYR55      -0.0009
     72  CD2      -15.1830    8.5210    5.3190 C.ar   55  TYR55      -0.0009
     73  CE1      -15.0390    6.7940    3.1540 C.ar   55  TYR55       0.0417
     74  CE2      -14.9050    7.1750    5.5210 C.ar   55  TYR55       0.0417
     75  CZ       -14.8390    6.3180    4.4380 C.ar   55  TYR55       0.1957
     76  OH       -14.5670    4.9800    4.6510 O.3    55  TYR55      -0.2866
     77  N        -14.8310   -2.8620    6.8520 N.3    90  MET90      -0.1245
     78  CA       -13.9130   -2.0790    6.0360 C.3    90  MET90       0.1570
     79  C        -14.2230   -2.2360    4.5510 C.2    90  MET90       0.2261
     80  O        -14.3150   -1.2440    3.8200 O.2    90  MET90      -0.2867
     81  CB       -12.4780   -2.5050    6.3230 C.3    90  MET90       0.0387
     82  CG       -11.4290   -1.6580    5.6320 C.3    90  MET90       0.0595
     83  SD        -9.7900   -2.3320    5.9480 S.3    90  MET90      -0.1393
     84  CE        -9.8680   -3.8520    5.0310 C.3    90  MET90       0.0692
     85  N        -17.7970   -0.7420    3.6140 N.3    93  ASN93      -0.1225
     86  CA       -17.8190    0.7220    3.6120 C.3    93  ASN93       0.1785
     87  C        -17.2500    1.2950    2.3200 C.2    93  ASN93       0.2597
     88  O        -17.8100    2.2420    1.7560 O.2    93  ASN93      -0.2718
     89  CB       -17.0420    1.2660    4.8030 C.3    93  ASN93       0.1169
     90  CG       -17.7730    1.0670    6.1040 C.2    93  ASN93       0.2627
     91  OD1      -18.9740    0.7740    6.1160 O.2    93  ASN93      -0.2716
     92  ND2      -17.0600    1.2330    7.2120 N.am   93  ASN93      -0.0877
     93  N        -16.1250    0.7480    1.8540 N.am   94  CYS94      -0.1970
     94  CA       -15.5330    1.1900    0.5920 C.3    94  CYS94       0.1712
     95  C        -16.5120    1.0370   -0.5720 C.2    94  CYS94       0.2296
     96  O        -16.6550    1.9500   -1.4010 O.2    94  CYS94      -0.2864
     97  CB       -14.2430    0.4000    0.3500 C.3    94  CYS94       0.0983
     98  SG       -13.2180    0.9250   -1.0270 S.3    94  CYS94      -0.0798
     99  N        -19.4130    3.7610   -0.1210 N.3    97  TYR97      -0.1227
    100  CA       -19.0510    5.1410   -0.4260 C.3    97  TYR97       0.1736
    101  C        -18.7050    5.3350   -1.9020 C.2    97  TYR97       0.2595
    102  O        -18.9690    6.4040   -2.4640 O.2    97  TYR97      -0.2718
    103  CB       -17.8790    5.6010    0.4520 C.3    97  TYR97       0.0548
    104  CG       -17.4650    7.0400    0.1710 C.ar   97  TYR97      -0.0200
    105  CD1      -18.2630    8.1080    0.5780 C.ar   97  TYR97      -0.0009
    106  CD2      -16.2920    7.3280   -0.5230 C.ar   97  TYR97      -0.0009
    107  CE1      -17.9080    9.4330    0.2970 C.ar   97  TYR97       0.0417
    108  CE2      -15.9200    8.6570   -0.8020 C.ar   97  TYR97       0.0417
    109  CZ       -16.7320    9.6970   -0.3870 C.ar   97  TYR97       0.1957
    110  OH       -16.3730   11.0080   -0.6600 O.3    97  TYR97      -0.2866
    111  N        -18.1260    4.3330   -2.5420 N.am   98  ASN98      -0.1974
    112  CA       -17.6320    4.4460   -3.9030 C.3    98  ASN98       0.1688
    113  C        -18.5380    3.6740   -4.8570 C.2    98  ASN98       0.2292
    114  O        -19.5970    3.1790   -4.4690 O.2    98  ASN98      -0.2864
    115  CB       -16.1860    3.9680   -3.9510 C.3    98  ASN98       0.1181
    116  CG       -15.2980    4.7710   -3.0200 C.2    98  ASN98       0.2629
    117  OD1      -14.9330    5.9110   -3.3210 O.2    98  ASN98      -0.2716
    118  ND2      -14.9650    4.1890   -1.8700 N.am   98  ASN98      -0.0877
    119  N        -10.2160    2.8390   -6.0800 N.3   104  ILE104     -0.1245
    120  CA       -10.1530    2.3920   -4.6840 C.3   104  ILE104      0.1561
    121  C        -10.9270    1.0810   -4.4890 C.2   104  ILE104      0.2260
    122  O        -10.5410    0.2340   -3.6660 O.2   104  ILE104     -0.2867
    123  CB       -10.6560    3.5060   -3.7350 C.3   104  ILE104      0.0252
    124  CG1      -10.4070    3.1400   -2.2680 C.3   104  ILE104      0.0019
    125  CG2      -12.1330    3.7870   -3.9390 C.3   104  ILE104      0.0019
    126  CD1       -8.9490    2.9460   -1.9230 C.3   104  ILE104      0.0001
@<TRIPOS>BOND
     1   119   120    1
     2   113   114    2
     3   113   112    1
     4   120   121    1
     5   120   123    1
     6   121   122    2
     7   115   112    1
     8   115   116    1
     9   125   123    1
    10   112   111    1
    11   123   124    1
    12   117   116    2
    13   116   118   am
    14    12    10   ar
    15    12    14   ar
    16     9    10   ar
    17     9     7   ar
    18   111   101   am
    19   102   101    2
    20   124   126    1
    21    10     8   ar
    22    14    13   ar
    23   101   100    1
    24     7     6   ar
    25    64    62    1
    26    96    95    2
    27    52    51    2
    28    98    97    1
    29   108   106   ar
    30   108   109   ar
    31     8     6   ar
    32     8    11   ar
    33    20    21    1
    34    20    19    1
    35    13    11   ar
    36   110   109    1
    37    95    94    1
    38   106   104   ar
    39   100    99    1
    40   100   103    1
    41     6     5    1
    42   109   107   ar
    43    62    63    1
    44    62    61    1
    45    21    15    1
    46    51    50    1
    47    32    31   ar
    48    32    30   ar
    49    31    29   ar
    50    56    54    1
    51   104   103    1
    52   104   105   ar
    53   107   105   ar
    54    19    16    1
    55    97    94    1
    56    94    93    1
    57    50    53    1
    58    50    49    1
    59    58    57    1
    60    58    61    1
    61    58    59    1
    62    53    54    1
    63     5     2    1
    64     1     2    1
    65    15    16    1
    66    15     3   am
    67    30    28   ar
    68    29    27   ar
    69    54    55    1
    70    16    17    1
    71    88    87    2
    72     2     3    1
    73    93    87   am
    74    59    60    2
    75     3     4    2
    76    87    86    1
    77    28    27   ar
    78    27    26    1
    79    17    22   am
    80    17    18    2
    81    71    73   ar
    82    71    70   ar
    83    73    75   ar
    84    22    23    1
    85    65    66    1
    86    86    85    1
    87    86    89    1
    88    66    69    1
    89    66    67    1
    90    26    23    1
    91    80    79    2
    92    69    70    1
    93    70    72   ar
    94    23    24    1
    95    75    76    1
    96    75    74   ar
    97    79    78    1
    98    48    46    1
    99    47    46    1
   100    89    90    1
   101    68    67    2
   102    84    83    1
   103    41    39   am
   104    72    74   ar
   105    46    43    1
   106    24    25    2
   107    82    83    1
   108    82    81    1
   109    78    81    1
   110    78    77    1
   111    90    91    2
   112    90    92   am
   113    43    44    1
   114    43    42    1
   115    39    40    2
   116    39    38    1
   117    44    45    2
   118    36    35    2
   119    38    37    1
   120    33    34    1
   121    35    34    1
   122    37    34    1
