@<TRIPOS>MOLECULE
tmp/5z5vA00.pdb
 125 122 0 0 0
SMALL
GASTEIGER

@<TRIPOS>ATOM
      1  N         -1.9260    0.3430    0.9970 N.3    39  TRP39      -0.1228
      2  CA        -1.5980    1.6220    1.6260 C.3    39  TRP39       0.1722
      3  C         -2.7950    2.5170    1.9560 C.2    39  TRP39       0.2437
      4  O         -2.7160    3.2140    2.9830 O.2    39  TRP39      -0.2733
      5  CB        -0.5750    2.3830    0.7620 C.3    39  TRP39       0.0563
      6  CG        -1.0310    2.7310   -0.6240 C.ar   39  TRP39       0.0003
      7  CD1       -0.8240    2.0070   -1.7660 C.ar   39  TRP39       0.0946
      8  CD2       -1.7520    3.9020   -1.0160 C.ar   39  TRP39       0.0152
      9  NE1       -1.3850    2.6550   -2.8430 N.ar   39  TRP39      -0.2442
     10  CE2       -1.9600    3.8200   -2.4050 C.ar   39  TRP39       0.0810
     11  CE3       -2.2510    5.0090   -0.3240 C.ar   39  TRP39       0.0012
     12  CZ2       -2.6440    4.8030   -3.1170 C.ar   39  TRP39       0.0191
     13  CZ3       -2.9300    5.9850   -1.0320 C.ar   39  TRP39       0.0001
     14  CH2       -3.1140    5.8790   -2.4160 C.ar   39  TRP39       0.0015
     15  N         -3.8980    2.5620    1.1890 N.am   40  PRO40      -0.2718
     16  CA        -5.0220    3.4090    1.6150 C.3    40  PRO40       0.1535
     17  C         -5.6820    2.9290    2.8920 C.2    40  PRO40       0.2598
     18  O         -6.3880    3.7080    3.5500 O.2    40  PRO40      -0.2715
     19  CB        -6.0020    3.3320    0.4360 C.3    40  PRO40       0.0310
     20  CG        -5.1900    2.8430   -0.7110 C.3    40  PRO40       0.0237
     21  CD        -4.1990    1.9090   -0.1030 C.3    40  PRO40       0.0939
     22  N         -5.4620    1.6760    3.2610 N.am   41  PHE41      -0.1974
     23  CA        -6.1980    1.0350    4.3320 C.3    41  PHE41       0.1639
     24  C         -5.3360    0.8160    5.5660 C.2    41  PHE41       0.2290
     25  O         -5.7870    0.1730    6.5210 O.2    41  PHE41      -0.2864
     26  CB        -6.7840   -0.2830    3.8100 C.3    41  PHE41       0.0560
     27  CG        -7.5910   -0.1110    2.5490 C.ar   41  PHE41      -0.0200
     28  CD1       -8.9050    0.3340    2.6100 C.ar   41  PHE41      -0.0042
     29  CD2       -7.0330   -0.3660    1.3030 C.ar   41  PHE41      -0.0042
     30  CE1       -9.6520    0.5210    1.4610 C.ar   41  PHE41      -0.0003
     31  CE2       -7.7750   -0.1680    0.1350 C.ar   41  PHE41      -0.0003
     32  CZ        -9.0860    0.2640    0.2130 C.ar   41  PHE41      -0.0000
     33  N         -9.0300    6.8110    7.7070 N.3    45  VAL45      -0.1245
     34  CA        -9.1690    7.8350    6.6770 C.3    45  VAL45       0.1561
     35  C         -8.9850    9.2060    7.3170 C.2    45  VAL45       0.2260
     36  O         -9.6860    9.5650    8.2700 O.2    45  VAL45      -0.2867
     37  CB       -10.5250    7.7210    5.9670 C.3    45  VAL45       0.0252
     38  CG1      -10.8230    9.0140    5.1770 C.3    45  VAL45       0.0019
     39  CG2      -10.5500    6.5170    5.0280 C.3    45  VAL45       0.0019
     40  N         -6.9980   14.0660    2.9670 N.3    50  LEU50      -0.1245
     41  CA        -7.4090   13.5140    1.6810 C.3    50  LEU50       0.1561
     42  C         -8.4830   14.3400    0.9910 C.2    50  LEU50       0.2260
     43  O         -8.9300   13.9590   -0.0980 O.2    50  LEU50      -0.2867
     44  CB        -7.9110   12.0770    1.8650 C.3    50  LEU50       0.0270
     45  CG        -6.8990   11.1090    2.4630 C.3    50  LEU50       0.0019
     46  CD1       -7.5330    9.7460    2.7100 C.3    50  LEU50       0.0001
     47  CD2       -5.6920   10.9980    1.5480 C.3    50  LEU50       0.0001
     48  N        -11.6510   14.7630    1.7430 N.3    52  LEU52      -0.1245
     49  CA       -12.8780   13.9700    1.6800 C.3    52  LEU52       0.1561
     50  C        -13.8080   14.4580    2.7850 C.2    52  LEU52       0.2260
     51  O        -14.0990   13.7200    3.7380 O.2    52  LEU52      -0.2867
     52  CB       -12.5900   12.4780    1.8310 C.3    52  LEU52       0.0270
     53  CG       -11.6050   11.8520    0.8420 C.3    52  LEU52       0.0019
     54  CD1      -11.1510   10.4720    1.3180 C.3    52  LEU52       0.0001
     55  CD2      -12.2320   11.7750   -0.5400 C.3    52  LEU52       0.0001
     56  N        -16.6560   12.2240    4.0620 N.3    55  TYR55      -0.1241
     57  CA       -16.4120   10.8220    4.3820 C.3    55  TYR55       0.1605
     58  C        -17.1410   10.4140    5.6500 C.2    55  TYR55       0.2264
     59  O        -17.8970    9.4370    5.6510 O.2    55  TYR55      -0.2867
     60  CB       -14.9210   10.5390    4.5370 C.3    55  TYR55       0.0534
     61  CG       -14.6940    9.0570    4.7600 C.ar   55  TYR55      -0.0201
     62  CD1      -14.6860    8.1750    3.6870 C.ar   55  TYR55      -0.0009
     63  CD2      -14.5290    8.5430    6.0430 C.ar   55  TYR55      -0.0009
     64  CE1      -14.5030    6.8200    3.8790 C.ar   55  TYR55       0.0417
     65  CE2      -14.3500    7.1750    6.2500 C.ar   55  TYR55       0.0417
     66  CZ       -14.3360    6.3270    5.1610 C.ar   55  TYR55       0.1957
     67  OH       -14.1540    4.9720    5.3560 O.3    55  TYR55      -0.2866
     68  N        -15.6230    1.0320    2.1770 N.3    94  CYS94      -0.1235
     69  CA       -15.0810    1.5140    0.9220 C.3    94  CYS94       0.1677
     70  C        -16.1210    1.4100   -0.1810 C.2    94  CYS94       0.2270
     71  O        -16.2630    2.3260   -1.0030 O.2    94  CYS94      -0.2867
     72  CB       -13.8220    0.7200    0.5770 C.3    94  CYS94       0.0956
     73  SG       -12.9450    1.3700   -0.8660 S.3    94  CYS94      -0.0801
     74  N        -18.8760    4.2360    0.5040 N.3    97  TYR97      -0.1227
     75  CA       -18.4990    5.6220    0.2370 C.3    97  TYR97       0.1736
     76  C        -18.2040    5.8560   -1.2430 C.2    97  TYR97       0.2595
     77  O        -18.3570    6.9840   -1.7310 O.2    97  TYR97      -0.2718
     78  CB       -17.3000    6.0240    1.1040 C.3    97  TYR97       0.0548
     79  CG       -16.8180    7.4440    0.8490 C.ar   97  TYR97      -0.0200
     80  CD1      -17.5920    8.5380    1.2160 C.ar   97  TYR97      -0.0009
     81  CD2      -15.5920    7.6780    0.2450 C.ar   97  TYR97      -0.0009
     82  CE1      -17.1520    9.8470    0.9720 C.ar   97  TYR97       0.0417
     83  CE2      -15.1420    8.9750   -0.0020 C.ar   97  TYR97       0.0417
     84  CZ       -15.9250   10.0510    0.3660 C.ar   97  TYR97       0.1957
     85  OH       -15.4730   11.3290    0.1160 O.3    97  TYR97      -0.2866
     86  N        -17.7970    4.8230   -1.9700 N.am   98  ASN98      -0.1974
     87  CA       -17.3920    4.9780   -3.3600 C.3    98  ASN98       0.1688
     88  C        -18.3180    4.1670   -4.2700 C.2    98  ASN98       0.2292
     89  O        -19.2990    3.5690   -3.8280 O.2    98  ASN98      -0.2864
     90  CB       -15.9280    4.5700   -3.5300 C.3    98  ASN98       0.1181
     91  CG       -14.9910    5.3830   -2.6620 C.2    98  ASN98       0.2629
     92  OD1      -14.8060    6.5850   -2.8820 O.2    98  ASN98      -0.2716
     93  ND2      -14.3810    4.7300   -1.6730 N.am   98  ASN98      -0.0877
     94  N        -14.4910    2.4500   -9.2770 N.3   102  ASP102     -0.1225
     95  CA       -13.5160    3.4250   -8.8010 C.3   102  ASP102      0.1805
     96  C        -12.1940    2.7250   -8.5130 C.2   102  ASP102      0.2598
     97  O        -12.1650    1.5590   -8.1150 O.2   102  ASP102     -0.2718
     98  CB       -14.0010    4.1320   -7.5280 C.3   102  ASP102      0.1424
     99  CG       -15.1290    5.1060   -7.7770 C.2   102  ASP102      0.3668
    100  OD1      -15.4360    5.3890   -8.9650 O.co2 102  ASP102     -0.2456
    101  OD2      -15.6900    5.6150   -6.7780 O.co2 102  ASP102     -0.2456
    102  N        -11.0890    3.4470   -8.7320 N.am  103  ASP103     -0.1960
    103  CA        -9.7670    2.8870   -8.4630 C.3   103  ASP103      0.1840
    104  C         -9.6630    2.3570   -7.0300 C.2   103  ASP103      0.2621
    105  O         -9.1500    1.2550   -6.8030 O.2   103  ASP103     -0.2715
    106  CB        -8.6810    3.9400   -8.7260 C.3   103  ASP103      0.1450
    107  CG        -8.1930    3.9330  -10.1810 C.2   103  ASP103      0.3671
    108  OD1       -8.7260    3.1390  -10.9790 O.co2 103  ASP103     -0.2456
    109  OD2       -7.2850    4.7260  -10.5210 O.co2 103  ASP103     -0.2456
    110  N        -10.1520    3.1280   -6.0490 N.am  104  ILE104     -0.1977
    111  CA       -10.0490    2.7070   -4.6500 C.3   104  ILE104      0.1596
    112  C        -10.8700    1.4490   -4.4150 C.2   104  ILE104      0.2287
    113  O        -10.4820    0.5770   -3.6230 O.2   104  ILE104     -0.2864
    114  CB       -10.4760    3.8550   -3.7020 C.3   104  ILE104      0.0276
    115  CG1      -10.2310    3.4920   -2.2290 C.3   104  ILE104      0.0022
    116  CG2      -11.9400    4.2390   -3.9280 C.3   104  ILE104      0.0022
    117  CD1       -8.7630    3.3820   -1.8820 C.3   104  ILE104      0.0001
    118  N         -9.0620   -1.5230   -5.6030 N.3   107  MET107     -0.1245
    119  CA        -8.0620   -1.8670   -4.6000 C.3   107  MET107      0.1570
    120  C         -8.6850   -2.6720   -3.4690 C.2   107  MET107      0.2261
    121  O         -8.1640   -3.7290   -3.0840 O.2   107  MET107     -0.2867
    122  CB        -7.3980   -0.5950   -4.0620 C.3   107  MET107      0.0387
    123  CG        -6.6600    0.1740   -5.1370 C.3   107  MET107      0.0595
    124  SD        -6.0120    1.7570   -4.5930 S.3   107  MET107     -0.1393
    125  CE        -4.4390    1.2920   -3.9460 C.3   107  MET107      0.0692
@<TRIPOS>BOND
     1   108   107   ar
     2   109   107   ar
     3   107   106    1
     4    94    95    1
     5   100    99   ar
     6    95    96    1
     7    95    98    1
     8   102    96   am
     9   102   103    1
    10   106   103    1
    11    96    97    2
    12   103   104    1
    13    99    98    1
    14    99   101   ar
    15   104   105    2
    16   104   110   am
    17   110   111    1
    18   118   119    1
    19   123   124    1
    20   123   122    1
    21   111   112    1
    22   111   114    1
    23   119   122    1
    24   119   120    1
    25   124   125    1
    26   112   113    2
    27    88    89    2
    28    88    87    1
    29   116   114    1
    30   114   115    1
    31    90    87    1
    32    90    91    1
    33   120   121    2
    34    87    86    1
    35    12    14   ar
    36    12    10   ar
    37    92    91    2
    38     9    10   ar
    39     9     7   ar
    40    91    93   am
    41    14    13   ar
    42    10     8   ar
    43   115   117    1
    44    86    76   am
    45     7     6   ar
    46    77    76    2
    47    76    75    1
    48    13    11   ar
    49     8     6   ar
    50     8    11   ar
    51    71    70    2
    52    73    72    1
    53    20    21    1
    54    20    19    1
    55     6     5    1
    56    55    53    1
    57    70    69    1
    58    21    15    1
    59    43    42    2
    60    83    81   ar
    61    83    84   ar
    62    85    84    1
    63    31    32   ar
    64    31    29   ar
    65    32    30   ar
    66    75    74    1
    67    75    78    1
    68    81    79   ar
    69    84    82   ar
    70    19    16    1
    71    72    69    1
    72     5     2    1
    73    53    54    1
    74    53    52    1
    75    79    78    1
    76    79    80   ar
    77    69    68    1
    78    82    80   ar
    79    42    41    1
    80     1     2    1
    81    15    16    1
    82    15     3   am
    83    29    27   ar
    84    30    28   ar
    85    47    45    1
    86    16    17    1
    87     2     3    1
    88    49    48    1
    89    49    52    1
    90    49    50    1
    91    41    44    1
    92    41    40    1
    93    44    45    1
    94     3     4    2
    95    45    46    1
    96    27    28   ar
    97    27    26    1
    98    50    51    2
    99    17    22   am
   100    17    18    2
   101    22    23    1
   102    62    64   ar
   103    62    61   ar
   104    26    23    1
   105    64    66   ar
   106    56    57    1
   107    23    24    1
   108    57    60    1
   109    57    58    1
   110    60    61    1
   111    61    63   ar
   112    39    37    1
   113    66    67    1
   114    66    65   ar
   115    38    37    1
   116    24    25    2
   117    58    59    2
   118    37    34    1
   119    63    65   ar
   120    34    35    1
   121    34    33    1
   122    35    36    2
