@<TRIPOS>MOLECULE
tmp/5z5yB00.pdb
 93 88 0 0 0
SMALL
GASTEIGER

@<TRIPOS>ATOM
      1  N        -23.5930   13.1940   -8.5050 N.3    12  TYR12      -0.1241
      2  CA       -24.3650   13.9460   -9.5140 C.3    12  TYR12       0.1605
      3  C        -23.6160   14.1740  -10.8380 C.2    12  TYR12       0.2264
      4  O        -22.5460   14.8160  -10.8610 O.2    12  TYR12      -0.2867
      5  CB       -24.7820   15.2720   -8.9520 C.3    12  TYR12       0.0534
      6  CG       -25.8010   16.0170   -9.7940 C.ar   12  TYR12      -0.0201
      7  CD1      -27.1640   15.7210   -9.7210 C.ar   12  TYR12      -0.0009
      8  CD2      -25.4020   17.0310  -10.6620 C.ar   12  TYR12      -0.0009
      9  CE1      -28.1020   16.4400  -10.4780 C.ar   12  TYR12       0.0417
     10  CE2      -26.3320   17.7600  -11.3980 C.ar   12  TYR12       0.0417
     11  CZ       -27.6580   17.4600  -11.3090 C.ar   12  TYR12       0.1957
     12  OH       -28.5340   18.2060  -12.0590 O.3    12  TYR12      -0.2866
     13  N        -22.5200   15.9390  -13.8310 N.3    14  ASN14      -0.1240
     14  CA       -22.3890   17.2520  -14.4510 C.3    14  ASN14       0.1653
     15  C        -21.6900   17.0490  -15.7970 C.2    14  ASN14       0.2266
     16  O        -20.4750   17.3150  -15.9610 O.2    14  ASN14      -0.2867
     17  CB       -21.6140   18.2430  -13.5540 C.3    14  ASN14       0.1155
     18  CG       -22.2350   18.4220  -12.1710 C.2    14  ASN14       0.2627
     19  OD1      -21.8130   17.7800  -11.1830 O.2    14  ASN14      -0.2716
     20  ND2      -23.1850   19.3380  -12.0630 N.am   14  ASN14      -0.0877
     21  N        -21.7670   18.4900  -18.6040 N.3    16  ASP16      -0.1239
     22  CA       -21.2040   19.6910  -19.2030 C.3    16  ASP16       0.1674
     23  C        -19.8520   20.0850  -18.6870 C.2    16  ASP16       0.2266
     24  O        -19.2440   20.9570  -19.2660 O.2    16  ASP16      -0.2867
     25  CB       -22.1600   20.8780  -19.0520 C.3    16  ASP16       0.1410
     26  CG       -22.5030   21.1530  -17.6240 C.2    16  ASP16       0.3668
     27  OD1      -22.9370   20.1790  -16.9340 O.co2  16  ASP16      -0.2456
     28  OD2      -22.3630   22.3390  -17.2230 O.co2  16  ASP16      -0.2456
     29  N        -25.8940   21.3230   -3.8910 N.3    98  GLY98      -0.1210
     30  CA       -26.1880   22.5450   -4.7200 C.3    98  GLY98       0.1956
     31  C        -27.7130   22.7190   -4.8180 C.2    98  GLY98       0.2612
     32  O        -28.3900   22.8990   -3.7600 O.2    98  GLY98      -0.2717
     33  N        -28.2550   22.6920   -6.0520 N.am   99  LEU99      -0.1965
     34  CA       -29.7120   22.6010   -6.2180 C.3    99  LEU99       0.1728
     35  C        -30.2130   21.2680   -5.6580 C.2    99  LEU99       0.2616
     36  O        -31.1500   21.2120   -4.8900 O.2    99  LEU99      -0.2715
     37  CB       -30.0970   22.6830   -7.6930 C.3    99  LEU99       0.0311
     38  CG       -31.6050   22.5730   -7.9720 C.3    99  LEU99       0.0022
     39  CD1      -32.3840   23.6430   -7.1810 C.3    99  LEU99       0.0001
     40  CD2      -31.8480   22.6400   -9.4870 C.3    99  LEU99       0.0001
     41  N        -29.5840   20.1890   -6.0600 N.am  100  TYR100     -0.1974
     42  CA       -29.8910   18.8790   -5.4910 C.3   100  TYR100      0.1639
     43  C        -29.0240   18.6280   -4.2080 C.2   100  TYR100      0.2290
     44  O        -28.0450   19.3400   -3.9180 O.2   100  TYR100     -0.2864
     45  CB       -29.7170   17.7980   -6.5390 C.3   100  TYR100      0.0560
     46  CG       -30.7730   17.8320   -7.6310 C.ar  100  TYR100     -0.0198
     47  CD1      -30.6490   18.7000   -8.7120 C.ar  100  TYR100     -0.0009
     48  CD2      -31.8970   16.9740   -7.5840 C.ar  100  TYR100     -0.0009
     49  CE1      -31.6000   18.7400   -9.7050 C.ar  100  TYR100      0.0417
     50  CE2      -32.8540   16.9960   -8.5780 C.ar  100  TYR100      0.0417
     51  CZ       -32.6970   17.8920   -9.6330 C.ar  100  TYR100      0.1957
     52  OH       -33.6270   17.9420  -10.6330 O.3   100  TYR100     -0.2866
     53  N        -27.1060   23.8760   -1.4740 N.3   168  SER168     -0.1217
     54  CA       -26.1470   24.9760   -1.5270 C.3   168  SER168      0.1889
     55  C        -25.2770   25.0730   -0.2640 C.2   168  SER168      0.2288
     56  O        -24.9690   26.1370    0.2400 O.2   168  SER168     -0.2866
     57  CB       -26.8770   26.2580   -1.8940 C.3   168  SER168      0.2089
     58  OG       -27.3210   26.1020   -3.2360 O.3   168  SER168     -0.2183
     59  N        -27.2660   14.9800   -4.7190 N.3   207  ALA207     -0.1231
     60  CA       -26.0390   15.6580   -5.1140 C.3   207  ALA207      0.1694
     61  C        -25.3520   16.2210   -3.8990 C.2   207  ALA207      0.2592
     62  O        -26.0260   16.4090   -2.9010 O.2   207  ALA207     -0.2718
     63  CB       -26.3370   16.7630   -6.1080 C.3   207  ALA207      0.0304
     64  N        -24.0550   16.5730   -3.9610 N.am  208  ASP208     -0.1974
     65  CA       -23.1400   16.4360   -5.0890 C.3   208  ASP208      0.1709
     66  C        -22.0180   15.4410   -4.8850 C.2   208  ASP208      0.2293
     67  O        -21.4200   14.9940   -5.8300 O.2   208  ASP208     -0.2864
     68  CB       -22.5270   17.8200   -5.4000 C.3   208  ASP208      0.1436
     69  CG       -23.4220   18.6620   -6.3370 C.2   208  ASP208      0.3671
     70  OD1      -23.2260   18.5290   -7.5630 O.co2 208  ASP208     -0.2456
     71  OD2      -24.2550   19.4340   -5.8190 O.co2 208  ASP208     -0.2456
     72  N        -19.4440   25.4980   -3.9630 N.3   226  THR226     -0.1203
     73  CA       -20.6040   24.6650   -3.6360 C.3   226  THR226      0.1994
     74  C        -21.0730   23.8970   -4.9040 C.2   226  THR226      0.2618
     75  O        -20.7350   24.2420   -6.0090 O.2   226  THR226     -0.2717
     76  CB       -21.8230   25.4100   -3.0510 C.3   226  THR226      0.1784
     77  OG1      -22.4810   26.1170   -4.0820 O.3   226  THR226     -0.2211
     78  CG2      -21.4470   26.3960   -2.0340 C.3   226  THR226      0.0376
     79  N        -21.8650   22.8530   -4.7090 N.am  227  GLY227     -0.1942
     80  CA       -22.3720   22.0220   -5.7600 C.3   227  GLY227      0.2014
     81  C        -21.2990   21.2530   -6.4850 C.2   227  GLY227      0.2638
     82  O        -20.5120   20.4900   -5.8810 O.2   227  GLY227     -0.2714
     83  N        -21.2410   21.4320   -7.7860 N.am  228  ARG228     -0.1977
     84  CA       -20.3880   20.5500   -8.5880 C.3   228  ARG228      0.1597
     85  C        -18.8930   20.6060   -8.3520 C.2   228  ARG228      0.2287
     86  O        -18.1810   19.6670   -8.7690 O.2   228  ARG228     -0.2864
     87  CB       -20.6410   20.7650  -10.0640 C.3   228  ARG228      0.0334
     88  CG       -20.2640   22.1120  -10.5850 C.3   228  ARG228      0.0492
     89  CD       -20.8080   22.3180  -12.0100 C.3   228  ARG228      0.2205
     90  NE       -20.2250   23.5320  -12.5800 N.pl3 228  ARG228     -0.0865
     91  CZ       -20.4910   23.9780  -13.8120 C.cat 228  ARG228      0.5346
     92  NH1      -19.9220   25.0790  -14.2610 N.pl3 228  ARG228      0.1354
     93  NH2      -21.3010   23.3070  -14.5990 N.pl3 228  ARG228      0.1354
@<TRIPOS>BOND
     1    24    23    2
     2    22    25    1
     3    22    23    1
     4    22    21    1
     5    25    26    1
     6    26    28   ar
     7    26    27   ar
     8    16    15    2
     9    15    14    1
    10    93    91    1
    11    14    13    1
    12    14    17    1
    13    92    91    1
    14    91    90    2
    15    17    18    1
    16    90    89    1
    17    18    20   am
    18    18    19    2
    19    12    11    1
    20    89    88    1
    21    10    11   ar
    22    10     8   ar
    23    11     9   ar
    24     4     3    2
    25     3     2    1
    26     8     6   ar
    27    52    51    1
    28    88    87    1
    29     9     7   ar
    30    87    84    1
    31     6     7   ar
    32     6     5    1
    33    49    51   ar
    34    49    47   ar
    35    51    50   ar
    36     2     5    1
    37     2     1    1
    38    40    38    1
    39    86    85    2
    40    47    46   ar
    41    84    85    1
    42    84    83    1
    43    50    48   ar
    44    38    37    1
    45    38    39    1
    46    83    81   am
    47    37    34    1
    48    46    48   ar
    49    46    45    1
    50    70    69   ar
    51    45    42    1
    52    81    82    2
    53    81    80    1
    54    69    71   ar
    55    69    68    1
    56    34    33    1
    57    34    35    1
    58    63    60    1
    59    41    35   am
    60    41    42    1
    61    33    31   am
    62    75    74    2
    63    67    66    2
    64    80    79    1
    65    35    36    2
    66    42    43    1
    67    68    65    1
    68    60    59    1
    69    60    61    1
    70    65    66    1
    71    65    64    1
    72    74    79   am
    73    74    73    1
    74    31    30    1
    75    31    32    2
    76    30    29    1
    77    43    44    2
    78    77    76    1
    79    72    73    1
    80    64    61   am
    81    61    62    2
    82    73    76    1
    83    58    57    1
    84    76    78    1
    85    57    54    1
    86    54    53    1
    87    54    55    1
    88    55    56    2
