@<TRIPOS>MOLECULE
tmp/5z65A07.pdb
 77 71 0 0 0
SMALL
GASTEIGER

@<TRIPOS>ATOM
      1  N         28.1790   18.8240   27.5410 N.3   362  ASN362     -0.1240
      2  CA        27.5460   17.7810   28.3310 C.3   362  ASN362      0.1653
      3  C         27.2270   16.4730   27.6100 C.2   362  ASN362      0.2266
      4  O         26.0970   16.0500   27.5170 O.2   362  ASN362     -0.2867
      5  CB        26.2850   18.3050   28.9860 C.3   362  ASN362      0.1155
      6  CG        25.6500   17.2800   29.8820 C.2   362  ASN362      0.2627
      7  OD1       26.3400   16.4810   30.4940 O.2   362  ASN362     -0.2716
      8  ND2       24.3330   17.2870   29.9530 N.am  362  ASN362     -0.0877
      9  N         25.9710   12.5920   29.9490 N.3   365  ASP365     -0.1239
     10  CA        24.6350   12.0650   30.1540 C.3   365  ASP365      0.1674
     11  C         24.1640   11.0910   29.0690 C.2   365  ASP365      0.2266
     12  O         23.3300   10.2090   29.3420 O.2   365  ASP365     -0.2867
     13  CB        23.6320   13.2160   30.2960 C.3   365  ASP365      0.1410
     14  CG        23.8390   14.0200   31.5680 C.2   365  ASP365      0.3668
     15  OD1       24.7500   13.6710   32.3580 O.co2 365  ASP365     -0.2456
     16  OD2       23.0820   15.0010   31.7770 O.co2 365  ASP365     -0.2456
     17  N         30.5190    5.7780   40.6490 N.3   421  ASN421     -0.1240
     18  CA        29.6770    6.6900   41.4020 C.3   421  ASN421      0.1653
     19  C         29.5100    6.3900   42.8650 C.2   421  ASN421      0.2266
     20  O         29.5270    7.2830   43.6780 O.2   421  ASN421     -0.2867
     21  CB        28.3190    6.7950   40.7570 C.3   421  ASN421      0.1155
     22  CG        28.1870    8.0270   39.9260 C.2   421  ASN421      0.2627
     23  OD1       27.6830    9.0380   40.3800 O.2   421  ASN421     -0.2716
     24  ND2       28.6580    7.9570   38.7050 N.am  421  ASN421     -0.0877
     25  N         18.0020   16.1600   47.8900 N.3   529  MET529     -0.1245
     26  CA        18.8230   14.9720   48.1570 C.3   529  MET529      0.1570
     27  C         18.6730   14.4710   49.5970 C.2   529  MET529      0.2261
     28  O         18.6460   15.2690   50.5370 O.2   529  MET529     -0.2867
     29  CB        20.3070   15.2780   47.8870 C.3   529  MET529      0.0387
     30  CG        20.6980   15.4510   46.4180 C.3   529  MET529      0.0595
     31  SD        20.6190   13.9460   45.4280 S.3   529  MET529     -0.1393
     32  CE        21.3930   12.7290   46.5040 C.3   529  MET529      0.0692
     33  N         18.9960    8.5760   41.2690 N.3   558  ILE558     -0.1231
     34  CA        19.2580    9.8640   40.6660 C.3   558  ILE558      0.1692
     35  C         20.2400    9.7190   39.5380 C.2   558  ILE558      0.2592
     36  O         21.1830    8.9860   39.6300 O.2   558  ILE558     -0.2718
     37  CB        19.7850   10.8410   41.7060 C.3   558  ILE558      0.0266
     38  CG1       18.8060   10.8890   42.8470 C.3   558  ILE558      0.0019
     39  CG2       19.9070   12.2340   41.1450 C.3   558  ILE558      0.0020
     40  CD1       17.3870   10.8730   42.3640 C.3   558  ILE558      0.0001
     41  N         19.9730   10.4200   38.4620 N.am  559  ASN559     -0.1974
     42  CA        20.8050   10.3880   37.3000 C.3   559  ASN559      0.1688
     43  C         21.0390    8.9620   36.7920 C.2   559  ASN559      0.2292
     44  O         21.9210    8.7470   36.0170 O.2   559  ASN559     -0.2864
     45  CB        22.0850   11.2170   37.5070 C.3   559  ASN559      0.1181
     46  CG        21.8330   12.7050   37.4100 C.2   559  ASN559      0.2629
     47  OD1       20.8190   13.1030   36.8900 O.2   559  ASN559     -0.2716
     48  ND2       22.7570   13.5260   37.8890 N.am  559  ASN559     -0.0877
     49  N         22.4620    6.3410   37.7630 N.3   561  THR561     -0.1218
     50  CA        23.8050    5.7960   37.9740 C.3   561  THR561      0.1862
     51  C         23.6960    4.3060   38.2990 C.2   561  THR561      0.2287
     52  O         24.5300    3.5220   37.8500 O.2   561  THR561     -0.2866
     53  CB        24.5740    6.5210   39.1040 C.3   561  THR561      0.1770
     54  OG1       23.9340    6.2590   40.3680 O.3   561  THR561     -0.2211
     55  CG2       24.6550    8.0380   38.8250 C.3   561  THR561      0.0375
     56  N         15.6000   16.1720   38.2480 N.3   588  PRO588     -0.2102
     57  CA        16.7020   16.3220   37.2990 C.3   588  PRO588      0.1504
     58  C         16.3600   15.6950   35.9730 C.2   588  PRO588      0.2576
     59  O         15.5990   14.7230   35.9330 O.2   588  PRO588     -0.2718
     60  CB        17.8560   15.5340   37.9290 C.3   588  PRO588      0.0282
     61  CG        17.4250   15.1950   39.3050 C.3   588  PRO588      0.0208
     62  CD        15.9350   15.2330   39.3290 C.3   588  PRO588      0.0893
     63  N         16.9460   16.2270   34.9110 N.am  589  VAL589     -0.1966
     64  CA        16.5610   15.8610   33.5460 C.3   589  VAL589      0.1727
     65  C         16.7420   14.3610   33.1370 C.2   589  VAL589      0.2616
     66  O         15.9420   13.8280   32.3740 O.2   589  VAL589     -0.2715
     67  CB        17.2050   16.8130   32.5230 C.3   589  VAL589      0.0290
     68  CG1       18.7360   16.7110   32.5540 C.3   589  VAL589      0.0023
     69  CG2       16.6510   16.5250   31.1400 C.3   589  VAL589      0.0023
     70  N         17.7530   13.6730   33.6470 N.am  590  ILE590     -0.1977
     71  CA        17.8620   12.2320   33.3990 C.3   590  ILE590      0.1596
     72  C         16.6870   11.5020   34.0170 C.2   590  ILE590      0.2287
     73  O         16.1370   10.5940   33.4200 O.2   590  ILE590     -0.2864
     74  CB        19.1770   11.6570   33.9390 C.3   590  ILE590      0.0276
     75  CG1       20.3340   12.1240   33.0770 C.3   590  ILE590      0.0022
     76  CG2       19.1730   10.1410   33.9270 C.3   590  ILE590      0.0022
     77  CD1       21.6700   11.7150   33.6360 C.3   590  ILE590      0.0001
@<TRIPOS>BOND
     1     4     3    2
     2     1     2    1
     3     3     2    1
     4     2     5    1
     5     5     6    1
     6    11    12    2
     7    11    10    1
     8     6     8   am
     9     6     7    2
    10     9    10    1
    11    10    13    1
    12    13    14    1
    13    69    67    1
    14    14    16   ar
    15    14    15   ar
    16    66    65    2
    17    67    68    1
    18    67    64    1
    19    75    77    1
    20    75    74    1
    21    65    64    1
    22    65    70   am
    23    71    70    1
    24    71    74    1
    25    71    72    1
    26    73    72    2
    27    64    63    1
    28    76    74    1
    29    63    58   am
    30    59    58    2
    31    58    57    1
    32    44    43    2
    33    43    42    1
    34    47    46    2
    35    57    60    1
    36    57    56    1
    37    42    45    1
    38    42    41    1
    39    46    45    1
    40    46    48   am
    41    49    50    1
    42    52    51    2
    43    60    61    1
    44    50    51    1
    45    50    53    1
    46    56    62    1
    47    41    35   am
    48    24    22   am
    49    55    53    1
    50    53    54    1
    51    61    62    1
    52    35    36    2
    53    35    34    1
    54    22    23    2
    55    22    21    1
    56    17    18    1
    57    34    33    1
    58    34    37    1
    59    21    18    1
    60    39    37    1
    61    18    19    1
    62    37    38    1
    63    40    38    1
    64    19    20    2
    65    31    30    1
    66    31    32    1
    67    30    29    1
    68    29    26    1
    69    25    26    1
    70    26    27    1
    71    27    28    2
