@<TRIPOS>MOLECULE
tmp/5z66A00.pdb
 247 241 0 0 0
SMALL
GASTEIGER

@<TRIPOS>ATOM
      1  N        -27.5870  -14.8560  124.7660 N.3    27  LYS27      -0.1245
      2  CA       -27.2320  -16.2550  124.5540 C.3    27  LYS27       0.1561
      3  C        -28.1310  -17.2100  125.3290 C.2    27  LYS27       0.2260
      4  O        -28.2430  -18.3800  124.9510 O.2    27  LYS27      -0.2867
      5  CB       -25.7640  -16.4830  124.9390 C.3    27  LYS27       0.0271
      6  CG       -25.1910  -17.8250  124.4730 C.3    27  LYS27       0.0035
      7  CD       -23.6830  -17.8940  124.7010 C.3    27  LYS27       0.0206
      8  CE       -23.0900  -19.1990  124.1710 C.3    27  LYS27       0.1093
      9  NZ       -23.4700  -20.3730  125.0160 N.3    27  LYS27      -0.1314
     10  N        -14.5680  -22.9620  127.4850 N.3   116  PRO116     -0.2116
     11  CA       -13.8050  -21.8150  128.0090 C.3   116  PRO116      0.1372
     12  C        -14.2140  -21.4220  129.4160 C.2   116  PRO116      0.2244
     13  O        -13.3480  -21.0950  130.2370 O.2   116  PRO116     -0.2868
     14  CB       -14.1060  -20.7000  126.9970 C.3   116  PRO116      0.0268
     15  CG       -14.5070  -21.4330  125.7260 C.3   116  PRO116      0.0207
     16  CD       -15.2650  -22.6350  126.2280 C.3   116  PRO116      0.0892
     17  N        -20.4440  -18.1400  130.4330 N.3   119  ARG119     -0.1231
     18  CA       -21.5160  -18.2820  129.4530 C.3   119  ARG119      0.1694
     19  C        -21.1220  -19.1660  128.2820 C.2   119  ARG119      0.2592
     20  O        -21.9860  -19.5120  127.4700 O.2   119  ARG119     -0.2718
     21  CB       -21.9340  -16.9110  128.9220 C.3   119  ARG119      0.0321
     22  CG       -20.8740  -16.2440  128.0580 C.3   119  ARG119      0.0489
     23  CD       -21.1080  -14.7420  127.9170 C.3   119  ARG119      0.2205
     24  NE       -22.2880  -14.4030  127.1180 N.pl3 119  ARG119     -0.0865
     25  CZ       -22.2490  -14.1130  125.8160 C.cat 119  ARG119      0.5346
     26  NH1      -21.0980  -14.1410  125.1570 N.pl3 119  ARG119      0.1354
     27  NH2      -23.3640  -13.8030  125.1650 N.pl3 119  ARG119      0.1354
     28  N        -19.8460  -19.5230  128.1660 N.am  120  PHE120     -0.1976
     29  CA       -19.3730  -20.3240  127.0400 C.3   120  PHE120      0.1639
     30  C        -19.4740  -21.7870  127.4480 C.2   120  PHE120      0.2290
     31  O        -18.5520  -22.3730  128.0180 O.2   120  PHE120     -0.2864
     32  CB       -17.9790  -19.8670  126.6310 C.3   120  PHE120      0.0560
     33  CG       -17.9470  -18.4150  126.2440 C.ar  120  PHE120     -0.0200
     34  CD1      -18.7540  -17.9590  125.2060 C.ar  120  PHE120     -0.0042
     35  CD2      -17.1720  -17.4950  126.9420 C.ar  120  PHE120     -0.0042
     36  CE1      -18.7730  -16.6200  124.8520 C.ar  120  PHE120     -0.0003
     37  CE2      -17.1780  -16.1490  126.5860 C.ar  120  PHE120     -0.0003
     38  CZ       -17.9800  -15.7120  125.5430 C.ar  120  PHE120     -0.0000
     39  N        -15.1090  -24.5270  121.9400 N.3   124  TYR124     -0.1241
     40  CA       -14.7730  -23.5370  120.9280 C.3   124  TYR124      0.1605
     41  C        -13.5450  -23.9790  120.1450 C.2   124  TYR124      0.2264
     42  O        -12.6960  -24.7120  120.6550 O.2   124  TYR124     -0.2867
     43  CB       -14.5440  -22.1630  121.5650 C.3   124  TYR124      0.0534
     44  CG       -15.8680  -21.5260  121.8870 C.ar  124  TYR124     -0.0201
     45  CD1      -16.6160  -21.9540  122.9770 C.ar  124  TYR124     -0.0009
     46  CD2      -16.4030  -20.5400  121.0650 C.ar  124  TYR124     -0.0009
     47  CE1      -17.8510  -21.4040  123.2540 C.ar  124  TYR124      0.0417
     48  CE2      -17.6380  -19.9810  121.3400 C.ar  124  TYR124      0.0417
     49  CZ       -18.3590  -20.4200  122.4300 C.ar  124  TYR124      0.1957
     50  OH       -19.5940  -19.8630  122.7010 O.3   124  TYR124     -0.2866
     51  N        -10.7360  -22.1720  118.3320 N.3   126  TRP126     -0.1227
     52  CA        -9.3430  -21.7920  118.5630 C.3   126  TRP126      0.1737
     53  C         -8.9890  -21.7830  120.0480 C.2   126  TRP126      0.2595
     54  O         -7.8360  -22.0610  120.3990 O.2   126  TRP126     -0.2718
     55  CB        -8.9940  -20.4660  117.8680 C.3   126  TRP126      0.0564
     56  CG        -9.5260  -19.1520  118.3950 C.ar  126  TRP126      0.0003
     57  CD1      -10.7820  -18.8790  118.8520 C.ar  126  TRP126      0.0946
     58  CD2       -8.8020  -17.9110  118.4390 C.ar  126  TRP126      0.0152
     59  NE1      -10.8760  -17.5460  119.2040 N.ar  126  TRP126     -0.2442
     60  CE2       -9.6750  -16.9330  118.9550 C.ar  126  TRP126      0.0810
     61  CE3       -7.4960  -17.5400  118.1030 C.ar  126  TRP126      0.0012
     62  CZ2       -9.2850  -15.6040  119.1430 C.ar  126  TRP126      0.0191
     63  CZ3       -7.1050  -16.2140  118.2940 C.ar  126  TRP126      0.0001
     64  CH2       -8.0010  -15.2650  118.8090 C.ar  126  TRP126      0.0015
     65  N         -9.9610  -21.5490  120.9350 N.am  127  ASP127     -0.1974
     66  CA        -9.6930  -21.6720  122.3690 C.3   127  ASP127      0.1709
     67  C         -9.0620  -23.0110  122.7010 C.2   127  ASP127      0.2293
     68  O         -8.1880  -23.1000  123.5690 O.2   127  ASP127     -0.2864
     69  CB       -10.9790  -21.5440  123.1900 C.3   127  ASP127      0.1436
     70  CG       -11.6320  -20.2090  123.0400 C.2   127  ASP127      0.3671
     71  OD1      -11.9870  -19.8590  121.8980 O.co2 127  ASP127     -0.2456
     72  OD2      -11.8040  -19.5280  124.0700 O.co2 127  ASP127     -0.2456
     73  N        -17.5990  -22.7960  114.8480 N.3   163  ASN163     -0.1240
     74  CA       -17.1990  -21.8680  115.9060 C.3   163  ASN163      0.1653
     75  C        -17.2740  -22.5490  117.2710 C.2   163  ASN163      0.2266
     76  O        -16.3280  -22.4990  118.0650 O.2   163  ASN163     -0.2867
     77  CB       -18.1150  -20.6340  115.8280 C.3   163  ASN163      0.1155
     78  CG       -17.6460  -19.4510  116.6750 C.2   163  ASN163      0.2627
     79  OD1      -17.9280  -18.2970  116.3330 O.2   163  ASN163     -0.2716
     80  ND2      -16.9670  -19.7200  117.7840 N.am  163  ASN163     -0.0877
     81  N        -23.8530  -21.9100  115.4330 N.3   169  TYR169     -0.1241
     82  CA       -22.4640  -21.7180  115.0340 C.3   169  TYR169      0.1605
     83  C        -22.0990  -22.4660  113.7560 C.2   169  TYR169      0.2264
     84  O        -20.9770  -22.3040  113.2600 O.2   169  TYR169     -0.2867
     85  CB       -21.5250  -22.1730  116.1570 C.3   169  TYR169      0.0534
     86  CG       -21.4280  -21.2390  117.3500 C.ar  169  TYR169     -0.0201
     87  CD1      -21.5710  -19.8640  117.2000 C.ar  169  TYR169     -0.0009
     88  CD2      -21.1530  -21.7350  118.6170 C.ar  169  TYR169     -0.0009
     89  CE1      -21.4620  -19.0100  118.2930 C.ar  169  TYR169      0.0417
     90  CE2      -21.0420  -20.8920  119.7130 C.ar  169  TYR169      0.0417
     91  CZ       -21.1980  -19.5330  119.5410 C.ar  169  TYR169      0.1957
     92  OH       -21.0850  -18.6970  120.6290 O.3   169  TYR169     -0.2866
     93  N        -20.2570  -20.9830  110.3360 N.3   172  ARG172     -0.1245
     94  CA       -18.9160  -20.4200  110.2830 C.3   172  ARG172      0.1563
     95  C        -17.9550  -21.3300  111.0340 C.2   172  ARG172      0.2260
     96  O        -18.3610  -22.2500  111.7500 O.2   172  ARG172     -0.2867
     97  CB       -18.8800  -19.0020  110.8720 C.3   172  ARG172      0.0307
     98  CG       -19.3290  -18.9180  112.3420 C.3   172  ARG172      0.0489
     99  CD       -19.1240  -17.5050  112.8890 C.3   172  ARG172      0.2205
    100  NE       -19.7030  -17.3140  114.2200 N.pl3 172  ARG172     -0.0865
    101  CZ       -20.9620  -16.9470  114.4380 C.cat 172  ARG172      0.5346
    102  NH1      -21.7790  -16.7510  113.4100 N.pl3 172  ARG172      0.1354
    103  NH2      -21.4040  -16.7820  115.6820 N.pl3 172  ARG172      0.1354
    104  N        -13.6570  -20.7910  112.7110 N.3   174  GLN174     -0.1245
    105  CA       -12.9100  -19.9110  113.6080 C.3   174  GLN174      0.1566
    106  C        -11.4470  -19.9870  113.1730 C.2   174  GLN174      0.2260
    107  O        -11.1590  -20.7000  112.2040 O.2   174  GLN174     -0.2867
    108  CB       -13.1240  -20.3230  115.0740 C.3   174  GLN174      0.0367
    109  CG       -13.8850  -19.2630  115.8890 C.3   174  GLN174      0.0905
    110  CD       -13.7230  -19.4330  117.3820 C.2   174  GLN174      0.2608
    111  OE1      -13.2800  -20.4800  117.8500 O.2   174  GLN174     -0.2717
    112  NE2      -14.0690  -18.3940  118.1430 N.am  174  GLN174     -0.0878
    113  N        -26.9420  -12.8090  114.5190 N.3   243  ARG243     -0.1245
    114  CA       -26.4580  -13.9460  115.2970 C.3   243  ARG243      0.1563
    115  C        -27.5030  -14.3110  116.3450 C.2   243  ARG243      0.2260
    116  O        -27.8170  -13.4730  117.2010 O.2   243  ARG243     -0.2867
    117  CB       -25.1300  -13.6190  115.9850 C.3   243  ARG243      0.0307
    118  CG       -23.9380  -13.4170  115.0490 C.3   243  ARG243      0.0489
    119  CD       -22.7510  -12.8750  115.8350 C.3   243  ARG243      0.2205
    120  NE       -23.0700  -11.5660  116.4000 N.pl3 243  ARG243     -0.0865
    121  CZ       -22.5140  -11.0530  117.4930 C.cat 243  ARG243      0.5346
    122  NH1      -21.5980  -11.7350  118.1660 N.pl3 243  ARG243      0.1354
    123  NH2      -22.8870   -9.8500  117.9210 N.pl3 243  ARG243      0.1354
    124  N        -27.3600  -15.9140  119.0450 N.3   245  GLU245     -0.1231
    125  CA       -26.8250  -15.7570  120.3890 C.3   245  GLU245      0.1699
    126  C        -26.5830  -14.3010  120.7630 C.2   245  GLU245      0.2592
    127  O        -26.3310  -14.0210  121.9400 O.2   245  GLU245     -0.2718
    128  CB       -25.5220  -16.5570  120.5260 C.3   245  GLU245      0.0402
    129  CG       -24.3100  -15.9690  119.7900 C.3   245  GLU245      0.1161
    130  CD       -24.2440  -16.2800  118.2900 C.2   245  GLU245      0.3649
    131  OE1      -25.2110  -16.8150  117.7020 O.co2 245  GLU245     -0.2457
    132  OE2      -23.1950  -15.9760  117.6950 O.co2 245  GLU245     -0.2457
    133  N        -26.6430  -13.3800  119.8000 N.am  246  SER246     -0.1952
    134  CA       -26.5330  -11.9440  120.0420 C.3   246  SER246      0.1924
    135  C        -27.6000  -11.2010  119.2520 C.2   246  SER246      0.2314
    136  O        -27.3510  -10.1250  118.6980 O.2   246  SER246     -0.2863
    137  CB       -25.1460  -11.4200  119.6690 C.3   246  SER246      0.2116
    138  OG       -24.1170  -12.2430  120.1870 O.3   246  SER246     -0.2180
    139  N        -17.0930  -12.6930  114.0660 N.3   273  ALA273     -0.1245
    140  CA       -17.1600  -13.8190  114.9940 C.3   273  ALA273      0.1562
    141  C        -16.3400  -14.9950  114.4770 C.2   273  ALA273      0.2260
    142  O        -15.6660  -15.6870  115.2530 O.2   273  ALA273     -0.2867
    143  CB       -18.6160  -14.2280  115.2230 C.3   273  ALA273      0.0290
    144  N        -12.6550  -14.7700  115.4010 N.3   276  GLY276     -0.1225
    145  CA       -12.2820  -14.7900  116.7950 C.3   276  GLY276      0.1811
    146  C        -12.1660  -13.4220  117.4260 C.2   276  GLY276      0.2280
    147  O        -12.2630  -13.3080  118.6520 O.2   276  GLY276     -0.2866
    148  N        -14.2090  -10.8290  117.7470 N.3   278  ASP278     -0.1239
    149  CA       -15.5120  -10.1690  117.8490 C.3   278  ASP278      0.1674
    150  C        -15.5360   -9.3830  119.1550 C.2   278  ASP278      0.2266
    151  O        -15.7060   -9.9680  120.2290 O.2   278  ASP278     -0.2867
    152  CB       -16.6600  -11.1790  117.7940 C.3   278  ASP278      0.1410
    153  CG       -16.4570  -12.3710  118.7410 C.2   278  ASP278      0.3668
    154  OD1      -15.4450  -13.0870  118.5820 O.co2 278  ASP278     -0.2456
    155  OD2      -17.3050  -12.5930  119.6460 O.co2 278  ASP278     -0.2456
    156  N        -13.9090   -5.4570  122.7700 N.3   412  GLN412     -0.1231
    157  CA       -13.0380   -6.2620  123.6180 C.3   412  GLN412      0.1698
    158  C        -11.7420   -6.7000  122.9380 C.2   412  GLN412      0.2592
    159  O        -10.7410   -6.8980  123.6330 O.2   412  GLN412     -0.2718
    160  CB       -13.7970   -7.4840  124.1640 C.3   412  GLN412      0.0381
    161  CG       -14.1690   -8.5480  123.1430 C.3   412  GLN412      0.0905
    162  CD       -14.7540   -9.7860  123.8030 C.2   412  GLN412      0.2608
    163  OE1      -14.7330   -9.9200  125.0310 O.2   412  GLN412     -0.2717
    164  NE2      -15.2810  -10.6990  122.9910 N.am  412  GLN412     -0.0878
    165  N        -11.7020   -6.8360  121.6080 N.am  413  TRP413     -0.1976
    166  CA       -10.4390   -7.1430  120.9240 C.3   413  TRP413      0.1640
    167  C         -9.7820   -5.8340  120.4760 C.2   413  TRP413      0.2290
    168  O         -9.6510   -5.5170  119.2920 O.2   413  TRP413     -0.2864
    169  CB       -10.6670   -8.1120  119.7680 C.3   413  TRP413      0.0576
    170  CG       -11.0480   -9.4810  120.2650 C.ar  413  TRP413      0.0006
    171  CD1      -12.3080   -9.9310  120.5420 C.ar  413  TRP413      0.0946
    172  CD2      -10.1570  -10.5600  120.5740 C.ar  413  TRP413      0.0152
    173  NE1      -12.2550  -11.2240  121.0010 N.ar  413  TRP413     -0.2442
    174  CE2      -10.9470  -11.6360  121.0280 C.ar  413  TRP413      0.0810
    175  CE3       -8.7690  -10.7230  120.5100 C.ar  413  TRP413      0.0012
    176  CZ2      -10.3940  -12.8600  121.4170 C.ar  413  TRP413      0.0191
    177  CZ3       -8.2200  -11.9370  120.8930 C.ar  413  TRP413      0.0001
    178  CH2       -9.0360  -12.9930  121.3430 C.ar  413  TRP413      0.0015
    179  N         -5.1050  -10.5770  125.6080 N.3   419  TRP419     -0.1241
    180  CA        -5.7160  -11.8940  125.4870 C.3   419  TRP419      0.1605
    181  C         -4.6430  -12.9710  125.5040 C.2   419  TRP419      0.2264
    182  O         -3.6750  -12.8940  124.7380 O.2   419  TRP419     -0.2867
    183  CB        -6.5220  -12.0000  124.1970 C.3   419  TRP419      0.0550
    184  CG        -7.7390  -11.1480  124.1780 C.ar  419  TRP419      0.0003
    185  CD1       -7.8120   -9.8190  123.8680 C.ar  419  TRP419      0.0946
    186  CD2       -9.0720  -11.5710  124.4640 C.ar  419  TRP419      0.0152
    187  NE1       -9.1190   -9.3860  123.9520 N.ar  419  TRP419     -0.2442
    188  CE2       -9.9100  -10.4470  124.3120 C.ar  419  TRP419      0.0810
    189  CE3       -9.6410  -12.7940  124.8380 C.ar  419  TRP419      0.0012
    190  CZ2      -11.2850  -10.5110  124.5200 C.ar  419  TRP419      0.0191
    191  CZ3      -11.0070  -12.8520  125.0470 C.ar  419  TRP419      0.0001
    192  CH2      -11.8150  -11.7220  124.8840 C.ar  419  TRP419      0.0015
    193  N        -11.1780  -14.1820  131.3730 N.3   462  GLU462     -0.1245
    194  CA       -11.1980  -14.3440  129.9220 C.3   462  GLU462      0.1567
    195  C        -10.1710  -13.4550  129.2230 C.2   462  GLU462      0.2260
    196  O         -9.5230  -13.8860  128.2590 O.2   462  GLU462     -0.2867
    197  CB       -12.6190  -14.0490  129.4350 C.3   462  GLU462      0.0388
    198  CG       -12.7970  -13.8390  127.9580 C.3   462  GLU462      0.1160
    199  CD       -14.1830  -13.3060  127.6410 C.2   462  GLU462      0.3649
    200  OE1      -14.6880  -13.5800  126.5330 O.co2 462  GLU462     -0.2457
    201  OE2      -14.7630  -12.6050  128.5000 O.co2 462  GLU462     -0.2457
    202  N        -20.0210   -6.7080  124.0190 N.3   477  GLU477     -0.1231
    203  CA       -21.4490   -6.9170  124.2230 C.3   477  GLU477      0.1699
    204  C        -21.7820   -7.7790  125.4340 C.2   477  GLU477      0.2592
    205  O        -22.9680   -7.9610  125.7260 O.2   477  GLU477     -0.2718
    206  CB       -22.0680   -7.5530  122.9740 C.3   477  GLU477      0.0402
    207  CG       -21.6050   -8.9840  122.7440 C.3   477  GLU477      0.1161
    208  CD       -21.9300   -9.5010  121.3540 C.2   477  GLU477      0.3649
    209  OE1      -22.4790   -8.7330  120.5350 O.co2 477  GLU477     -0.2457
    210  OE2      -21.6270  -10.6800  121.0800 O.co2 477  GLU477     -0.2457
    211  N        -20.7940   -8.3250  126.1320 N.am  478  TYR478     -0.1976
    212  CA       -21.0620   -9.1770  127.2810 C.3   478  TYR478      0.1639
    213  C        -20.0020   -8.9310  128.3440 C.2   478  TYR478      0.2290
    214  O        -18.9090   -8.4430  128.0360 O.2   478  TYR478     -0.2864
    215  CB       -21.1120  -10.6630  126.8820 C.3   478  TYR478      0.0560
    216  CG       -19.8190  -11.2180  126.3260 C.ar  478  TYR478     -0.0198
    217  CD1      -18.8180  -11.6840  127.1750 C.ar  478  TYR478     -0.0009
    218  CD2      -19.6020  -11.2850  124.9510 C.ar  478  TYR478     -0.0009
    219  CE1      -17.6290  -12.1900  126.6700 C.ar  478  TYR478      0.0417
    220  CE2      -18.4230  -11.7950  124.4400 C.ar  478  TYR478      0.0417
    221  CZ       -17.4430  -12.2440  125.3080 C.ar  478  TYR478      0.1957
    222  OH       -16.2630  -12.7460  124.8190 O.3   478  TYR478     -0.2866
    223  N        -10.2370  -19.6360  133.1030 N.3   484  PHE484     -0.1241
    224  CA       -10.8490  -19.4910  131.7870 C.3   484  PHE484      0.1605
    225  C         -9.9120  -20.2150  130.8350 C.2   484  PHE484      0.2264
    226  O         -8.7090  -19.9530  130.8490 O.2   484  PHE484     -0.2867
    227  CB       -11.0200  -18.0210  131.3790 C.3   484  PHE484      0.0534
    228  CG       -11.8990  -17.8210  130.1640 C.ar  484  PHE484     -0.0203
    229  CD1      -13.2780  -17.7370  130.2940 C.ar  484  PHE484     -0.0042
    230  CD2      -11.3430  -17.7130  128.8890 C.ar  484  PHE484     -0.0042
    231  CE1      -14.0950  -17.5560  129.1810 C.ar  484  PHE484     -0.0003
    232  CE2      -12.1490  -17.5270  127.7680 C.ar  484  PHE484     -0.0003
    233  CZ       -13.5290  -17.4490  127.9130 C.ar  484  PHE484     -0.0000
    234  N         -8.2540  -20.6410  127.8090 N.3   486  TRP486     -0.1241
    235  CA        -6.9460  -20.3190  127.2520 C.3   486  TRP486      0.1605
    236  C         -6.0820  -19.5010  128.1950 C.2   486  TRP486      0.2264
    237  O         -4.8540  -19.5590  128.0820 O.2   486  TRP486     -0.2867
    238  CB        -7.0490  -19.6020  125.8980 C.3   486  TRP486      0.0550
    239  CG        -7.9320  -18.3790  125.7530 C.ar  486  TRP486      0.0003
    240  CD1       -8.3300  -17.4950  126.7240 C.ar  486  TRP486      0.0946
    241  CD2       -8.5080  -17.9200  124.5290 C.ar  486  TRP486      0.0152
    242  NE1       -9.1260  -16.5140  126.1650 N.ar  486  TRP486     -0.2442
    243  CE2       -9.2520  -16.7600  124.8190 C.ar  486  TRP486      0.0810
    244  CE3       -8.4670  -18.3880  123.2100 C.ar  486  TRP486      0.0012
    245  CZ2       -9.9600  -16.0640  123.8380 C.ar  486  TRP486      0.0191
    246  CZ3       -9.1660  -17.6930  122.2330 C.ar  486  TRP486      0.0001
    247  CH2       -9.9030  -16.5430  122.5510 C.ar  486  TRP486      0.0015
@<TRIPOS>BOND
     1    94    93    1
     2    94    97    1
     3    94    95    1
     4    97    98    1
     5    95    96    2
     6   107   106    2
     7    98    99    1
     8   104   105    1
     9    99   100    1
    10   106   105    1
    11    84    83    2
    12   102   101    1
    13   105   108    1
    14    83    82    1
    15   139   140    1
    16   100   101    2
    17   101   103    1
    18   141   140    1
    19   141   142    2
    20   113   114    1
    21    73    74    1
    22   140   143    1
    23    82    81    1
    24    82    85    1
    25   118   119    1
    26   118   117    1
    27   108   109    1
    28   114   117    1
    29   114   115    1
    30   144   145    1
    31    77    74    1
    32    77    78    1
    33   119   120    1
    34   109   110    1
    35    74    75    1
    36    85    86    1
    37    79    78    2
    38   115   116    2
    39   120   121    2
    40    78    80   am
    41   145   146    1
    42    87    86   ar
    43    87    89   ar
    44    75    76    2
    45    86    88   ar
    46   110   111    2
    47   110   112   am
    48   146   147    2
    49   121   123    1
    50   121   122    1
    51   132   130   ar
    52   131   130   ar
    53   148   149    1
    54   152   149    1
    55   152   153    1
    56   149   150    1
    57    55    56    1
    58    55    52    1
    59    61    63   ar
    60    61    58   ar
    61   130   129    1
    62    89    91   ar
    63    63    64   ar
    64    51    52    1
    65    56    58   ar
    66    56    57   ar
    67    58    60   ar
    68    52    53    1
    69   154   153   ar
    70    88    90   ar
    71   136   135    2
    72   153   155   ar
    73    64    62   ar
    74    57    59   ar
    75    60    62   ar
    76    60    59   ar
    77   124   125    1
    78   150   151    2
    79   135   134    1
    80   168   167    2
    81    91    90   ar
    82    91    92    1
    83   137   134    1
    84   137   138    1
    85   169   170    1
    86   169   166    1
    87   129   128    1
    88   133   134    1
    89   133   126   am
    90    53    54    2
    91    53    65   am
    92    41    42    2
    93    41    40    1
    94   170   171   ar
    95   170   172   ar
    96   125   128    1
    97   125   126    1
    98   167   166    1
    99   175   172   ar
   100   175   177   ar
   101   209   208   ar
   102   171   173   ar
   103   172   174   ar
   104   126   127    2
   105   177   178   ar
   106   166   165    1
   107    40    43    1
   108    40    39    1
   109    65    66    1
   110   173   174   ar
   111   174   176   ar
   112    46    48   ar
   113    46    44   ar
   114   210   208   ar
   115    48    49   ar
   116   178   176   ar
   117   208   207    1
   118    43    44    1
   119   165   158   am
   120    44    45   ar
   121    71    70   ar
   122   246   247   ar
   123   246   244   ar
   124    66    67    1
   125    66    69    1
   126    49    50    1
   127    49    47   ar
   128   247   245   ar
   129    67    68    2
   130   207   206    1
   131   156   157    1
   132   158   157    1
   133   158   159    2
   134   206   203    1
   135    45    47   ar
   136   164   162   am
   137    70    69    1
   138    70    72   ar
   139   161   162    1
   140   161   160    1
   141   244   241   ar
   142   157   160    1
   143   162   163    2
   144   245   243   ar
   145   185   187   ar
   146   185   184   ar
   147   187   188   ar
   148   202   203    1
   149     8     7    1
   150     8     9    1
   151   184   183    1
   152   184   186   ar
   153   183   180    1
   154   203   204    1
   155   188   186   ar
   156   188   190   ar
   157   220   218   ar
   158   220   221   ar
   159   186   189   ar
   160     6     7    1
   161     6     5    1
   162   190   192   ar
   163   241   243   ar
   164   241   239   ar
   165     2     1    1
   166     2     5    1
   167     2     3    1
   168   182   181    2
   169   222   221    1
   170   243   242   ar
   171   189   191   ar
   172    36    34   ar
   173    36    38   ar
   174   192   191   ar
   175     4     3    2
   176   218   216   ar
   177    26    25    1
   178    27    25    1
   179    34    33   ar
   180   221   219   ar
   181   204   205    2
   182   204   211   am
   183   180   181    1
   184   180   179    1
   185    38    37   ar
   186    15    16    1
   187    15    14    1
   188   239   238    1
   189   239   240   ar
   190    25    24    2
   191   238   235    1
   192   211   212    1
   193   242   240   ar
   194    16    10    1
   195    33    32    1
   196    33    35   ar
   197   216   215    1
   198   216   217   ar
   199   200   199   ar
   200    37    35   ar
   201    32    29    1
   202   219   217   ar
   203   215   212    1
   204    14    11    1
   205    29    30    1
   206    29    28    1
   207    24    23    1
   208   235   234    1
   209   235   236    1
   210   212   213    1
   211    30    31    2
   212    20    19    2
   213    10    11    1
   214   199   198    1
   215   199   201   ar
   216   232   233   ar
   217   232   230   ar
   218   233   231   ar
   219    23    22    1
   220   198   197    1
   221    11    12    1
   222   214   213    2
   223    22    21    1
   224   237   236    2
   225    28    19   am
   226   196   195    2
   227    19    18    1
   228   230   228   ar
   229    21    18    1
   230   231   229   ar
   231   195   194    1
   232    12    13    2
   233   197   194    1
   234    18    17    1
   235   194   193    1
   236   228   229   ar
   237   228   227    1
   238   225   226    2
   239   225   224    1
   240   227   224    1
   241   224   223    1
