@<TRIPOS>MOLECULE
tmp/5z68C00.pdb
 146 140 0 0 0
SMALL
GASTEIGER

@<TRIPOS>ATOM
      1  N          6.9930   39.8130  -66.0540 N.3    20  ARG20      -0.1231
      2  CA         6.7190   38.5240  -66.6900 C.3    20  ARG20       0.1694
      3  C          5.7410   38.7510  -67.8410 C.2    20  ARG20       0.2592
      4  O          6.0420   39.5340  -68.7280 O.2    20  ARG20      -0.2718
      5  CB         6.2050   37.5030  -65.6650 C.3    20  ARG20       0.0321
      6  CG         7.1430   37.3960  -64.4560 C.3    20  ARG20       0.0489
      7  CD         7.4090   35.9760  -63.9610 C.3    20  ARG20       0.2205
      8  NE         8.4640   35.2760  -64.6990 N.pl3  20  ARG20      -0.0865
      9  CZ         9.3770   34.4810  -64.1390 C.cat  20  ARG20       0.5346
     10  NH1        9.3930   34.2790  -62.8290 N.pl3  20  ARG20       0.1354
     11  NH2       10.2840   33.8810  -64.8930 N.pl3  20  ARG20       0.1354
     12  N          4.5730   38.1240  -67.8370 N.am   21  ASN21      -0.1974
     13  CA         3.6980   38.2860  -68.9900 C.3    21  ASN21       0.1688
     14  C          2.4840   39.1590  -68.7020 C.2    21  ASN21       0.2292
     15  O          1.6380   39.3530  -69.5860 O.2    21  ASN21      -0.2864
     16  CB         3.2380   36.9230  -69.5250 C.3    21  ASN21       0.1181
     17  CG         1.9470   36.4360  -68.8820 C.2    21  ASN21       0.2629
     18  OD1        1.8150   36.4570  -67.6630 O.2    21  ASN21      -0.2716
     19  ND2        0.9890   35.9970  -69.7050 N.am   21  ASN21      -0.0877
     20  N         -6.8450   30.1450  -67.4420 N.3    39  LEU39      -0.1231
     21  CA        -6.3290   28.8880  -67.9870 C.3    39  LEU39       0.1693
     22  C         -4.8330   28.8030  -67.7660 C.2    39  LEU39       0.2592
     23  O         -4.2750   29.5700  -66.9960 O.2    39  LEU39      -0.2718
     24  CB        -6.5750   28.8070  -69.4970 C.3    39  LEU39       0.0284
     25  CG        -8.0740   28.8230  -69.8900 C.3    39  LEU39       0.0019
     26  CD1       -8.5740   30.2590  -70.1670 C.3    39  LEU39       0.0001
     27  CD2       -8.3460   27.9030  -71.0600 C.3    39  LEU39       0.0001
     28  N         -4.1830   27.8590  -68.4250 N.am   40  ASN40      -0.1960
     29  CA        -2.7790   27.5590  -68.1430 C.3    40  ASN40       0.1819
     30  C         -1.8960   28.5680  -68.8500 C.2    40  ASN40       0.2621
     31  O         -2.2440   29.0400  -69.9370 O.2    40  ASN40      -0.2715
     32  CB        -2.4000   26.1280  -68.5730 C.3    40  ASN40       0.1195
     33  CG        -3.0910   25.0640  -67.7420 C.2    40  ASN40       0.2630
     34  OD1       -2.4740   24.4430  -66.8710 O.2    40  ASN40      -0.2716
     35  ND2       -4.3820   24.8430  -68.0090 N.am   40  ASN40      -0.0877
     36  N         -0.7680   28.8950  -68.2200 N.am   41  ALA41      -0.1963
     37  CA         0.2170   29.8170  -68.7850 C.3    41  ALA41       0.1728
     38  C         -0.3960   31.2100  -69.0010 C.2    41  ALA41       0.2616
     39  O         -0.2850   31.8100  -70.0710 O.2    41  ALA41      -0.2715
     40  CB         0.7870   29.2590  -70.0910 C.3    41  ALA41       0.0334
     41  N         -1.0230   31.7280  -67.9550 N.am   42  GLN42      -0.1963
     42  CA        -1.7950   32.9560  -68.0600 C.3    42  GLN42       0.1733
     43  C         -1.3710   34.0290  -67.0710 C.2    42  GLN42       0.2617
     44  O         -1.9030   35.1200  -67.1020 O.2    42  GLN42      -0.2715
     45  CB        -3.2750   32.6340  -67.8860 C.3    42  GLN42       0.0408
     46  CG        -3.8460   31.9190  -69.0800 C.3    42  GLN42       0.0908
     47  CD        -3.5970   32.6730  -70.3550 C.2    42  GLN42       0.2608
     48  OE1       -3.5790   33.9000  -70.3650 O.2    42  GLN42      -0.2717
     49  NE2       -3.3990   31.9510  -71.4420 N.am   42  GLN42      -0.0878
     50  N         -0.4230   33.7030  -66.2000 N.am   43  GLY43      -0.1940
     51  CA         0.1470   34.6700  -65.2910 C.3    43  GLY43       0.2014
     52  C         -0.3280   34.5790  -63.8590 C.2    43  GLY43       0.2639
     53  O          0.0870   35.3980  -63.0360 O.2    43  GLY43      -0.2714
     54  N         -1.1920   33.6090  -63.5520 N.am   44  LYS44      -0.1963
     55  CA        -1.6680   33.4420  -62.1760 C.3    44  LYS44       0.1728
     56  C         -0.5030   33.3640  -61.1900 C.2    44  LYS44       0.2617
     57  O         -0.4780   34.0740  -60.1910 O.2    44  LYS44      -0.2715
     58  CB        -2.5510   32.2010  -62.0320 C.3    44  LYS44       0.0311
     59  CG        -3.7930   32.1970  -62.9050 C.3    44  LYS44       0.0038
     60  CD        -4.6380   30.9420  -62.7000 C.3    44  LYS44       0.0206
     61  CE        -3.9630   29.6990  -63.2600 C.3    44  LYS44       0.1093
     62  NZ        -4.6180   29.2390  -64.5060 N.3    44  LYS44      -0.1314
     63  N          0.4730   32.5180  -61.4750 N.am   45  SER45      -0.1936
     64  CA         1.6160   32.3850  -60.5820 C.3    45  SER45       0.2055
     65  C          2.5270   33.6070  -60.7220 C.2    45  SER45       0.2643
     66  O          3.2690   33.9640  -59.7970 O.2    45  SER45      -0.2714
     67  CB         2.3930   31.0880  -60.8670 C.3    45  SER45       0.2130
     68  OG         1.7000   29.9410  -60.4040 O.3    45  SER45      -0.2179
     69  N          2.4720   34.2460  -61.8840 N.am   46  ASN46      -0.1971
     70  CA         3.2490   35.4520  -62.0920 C.3    46  ASN46       0.1688
     71  C          2.7570   36.5710  -61.1800 C.2    46  ASN46       0.2292
     72  O          3.5550   37.2830  -60.5570 O.2    46  ASN46      -0.2864
     73  CB         3.1700   35.8990  -63.5440 C.3    46  ASN46       0.1181
     74  CG         3.9210   34.9880  -64.4780 C.2    46  ASN46       0.2629
     75  OD1        4.8100   34.2420  -64.0580 O.2    46  ASN46      -0.2716
     76  ND2        3.5840   35.0570  -65.7630 N.am   46  ASN46      -0.0877
     77  N          9.6550   31.2000  -56.8000 N.3    61  ARG61      -0.1245
     78  CA        10.0510   30.2050  -57.7850 C.3    61  ARG61       0.1563
     79  C         11.5520   30.0500  -57.9700 C.2    61  ARG61       0.2260
     80  O         11.9970   29.1550  -58.6740 O.2    61  ARG61      -0.2867
     81  CB         9.4390   30.5330  -59.1220 C.3    61  ARG61       0.0307
     82  CG         7.9590   30.6450  -59.0790 C.3    61  ARG61       0.0489
     83  CD         7.4940   31.5830  -60.1590 C.3    61  ARG61       0.2205
     84  NE         6.5090   30.9430  -60.9940 N.pl3  61  ARG61      -0.0865
     85  CZ         5.9070   31.5370  -62.0110 C.cat  61  ARG61       0.5346
     86  NH1        6.2080   32.8070  -62.2940 N.pl3  61  ARG61       0.1354
     87  NH2        5.0080   30.8530  -62.7340 N.pl3  61  ARG61       0.1354
     88  N         15.0210   37.3340  -65.1500 N.3    67  GLU67      -0.1245
     89  CA        13.9810   36.5140  -65.7760 C.3    67  GLU67       0.1567
     90  C         12.5770   37.0010  -65.4450 C.2    67  GLU67       0.2260
     91  O         11.6260   36.6460  -66.1380 O.2    67  GLU67      -0.2867
     92  CB        14.1310   35.0540  -65.3700 C.3    67  GLU67       0.0388
     93  CG        15.4260   34.3980  -65.8470 C.3    67  GLU67       0.1160
     94  CD        15.7420   33.0910  -65.1210 C.2    67  GLU67       0.3649
     95  OE1       14.9080   32.6360  -64.3030 O.co2  67  GLU67      -0.2457
     96  OE2       16.8290   32.5230  -65.3720 O.co2  67  GLU67      -0.2457
     97  N         11.8040   40.2250  -65.6700 N.3    69  VAL69      -0.1231
     98  CA        11.6430   41.2170  -66.7290 C.3    69  VAL69       0.1692
     99  C         10.9820   40.6350  -67.9910 C.2    69  VAL69       0.2592
    100  O         11.5790   39.7920  -68.6780 O.2    69  VAL69      -0.2718
    101  CB        13.0000   41.7990  -67.1350 C.3    69  VAL69       0.0266
    102  CG1       12.8270   42.7540  -68.2730 C.3    69  VAL69       0.0020
    103  CG2       13.7030   42.4440  -65.9580 C.3    69  VAL69       0.0020
    104  N          9.7580   41.0870  -68.2740 N.am   70  LYS70      -0.1966
    105  CA         9.0040   40.7650  -69.4940 C.3    70  LYS70       0.1728
    106  C          9.8770   40.6950  -70.7370 C.2    70  LYS70       0.2616
    107  O         10.7220   41.5510  -70.9390 O.2    70  LYS70      -0.2715
    108  CB         7.9050   41.8040  -69.7050 C.3    70  LYS70       0.0311
    109  CG         7.0810   41.6770  -70.9790 C.3    70  LYS70       0.0038
    110  CD         5.6650   42.1820  -70.6810 C.3    70  LYS70       0.0206
    111  CE         4.8460   42.4620  -71.9250 C.3    70  LYS70       0.1093
    112  NZ         3.4570   42.8570  -71.5470 N.3    70  LYS70      -0.1314
    113  N          9.6760   39.6640  -71.5540 N.am   71  PHE71      -0.1974
    114  CA        10.5340   39.4100  -72.7080 C.3    71  PHE71       0.1639
    115  C         10.6240   40.6590  -73.5560 C.2    71  PHE71       0.2290
    116  O          9.6060   41.3050  -73.8310 O.2    71  PHE71      -0.2864
    117  CB        10.0180   38.2480  -73.5850 C.3    71  PHE71       0.0560
    118  CG         9.8780   36.9280  -72.8670 C.ar   71  PHE71      -0.0200
    119  CD1       10.7660   36.5620  -71.8620 C.ar   71  PHE71      -0.0042
    120  CD2        8.8510   36.0500  -73.2130 C.ar   71  PHE71      -0.0042
    121  CE1       10.6290   35.3620  -71.2090 C.ar   71  PHE71      -0.0003
    122  CE2        8.7120   34.8590  -72.5700 C.ar   71  PHE71      -0.0003
    123  CZ         9.5970   34.5180  -71.5570 C.ar   71  PHE71      -0.0000
    124  N         -1.3730   28.9450  -54.4740 N.3   323  ASP323     -0.1225
    125  CA        -1.0680   28.7260  -55.8860 C.3   323  ASP323      0.1805
    126  C         -1.3270   27.2910  -56.3280 C.2   323  ASP323      0.2597
    127  O         -0.4880   26.4280  -56.1180 O.2   323  ASP323     -0.2718
    128  CB         0.3920   29.0910  -56.1730 C.3   323  ASP323      0.1424
    129  CG         0.6700   29.2850  -57.6530 C.2   323  ASP323      0.3668
    130  OD1       -0.3020   29.3360  -58.4470 O.co2 323  ASP323     -0.2456
    131  OD2        1.8660   29.4040  -58.0160 O.co2 323  ASP323     -0.2456
    132  N         -2.4840   27.0470  -56.9440 N.am  324  ASP324     -0.1974
    133  CA        -2.8370   25.7360  -57.5180 C.3   324  ASP324      0.1709
    134  C         -2.8820   24.5880  -56.5110 C.2   324  ASP324      0.2293
    135  O         -2.1080   23.6380  -56.6120 O.2   324  ASP324     -0.2864
    136  CB        -1.8670   25.3650  -58.6460 C.3   324  ASP324      0.1436
    137  CG        -2.3420   25.8450  -60.0110 C.2   324  ASP324      0.3671
    138  OD1       -3.3680   26.5690  -60.0770 O.co2 324  ASP324     -0.2456
    139  OD2       -1.6810   25.5080  -61.0220 O.co2 324  ASP324     -0.2456
    140  N         -7.7670   26.9290  -61.9140 N.3   351  THR351     -0.1218
    141  CA        -8.0310   26.7360  -63.3370 C.3   351  THR351      0.1862
    142  C         -9.5070   27.0010  -63.6340 C.2   351  THR351      0.2287
    143  O         -9.8350   27.8710  -64.4520 O.2   351  THR351     -0.2866
    144  CB        -7.6590   25.3060  -63.8180 C.3   351  THR351      0.1770
    145  OG1       -8.5760   24.3610  -63.2600 O.3   351  THR351     -0.2211
    146  CG2       -6.2250   24.9310  -63.4150 C.3   351  THR351      0.0375
@<TRIPOS>BOND
     1   116   115    2
     2   117   118    1
     3   117   114    1
     4   115   114    1
     5   120   118   ar
     6   120   122   ar
     7   118   119   ar
     8   114   113    1
     9   122   123   ar
    10   111   112    1
    11   111   110    1
    12   119   121   ar
    13   123   121   ar
    14   113   106   am
    15    49    47   am
    16    27    25    1
    17   109   110    1
    18   109   108    1
    19   107   106    2
    20   106   105    1
    21    48    47    2
    22    47    46    1
    23    26    25    1
    24    40    37    1
    25    39    38    2
    26    31    30    2
    27    25    24    1
    28    19    17   am
    29   108   105    1
    30    15    14    2
    31    16    13    1
    32    16    17    1
    33    24    21    1
    34   105   104    1
    35    46    45    1
    36    38    37    1
    37    38    41   am
    38    13    14    1
    39    13    12    1
    40    17    18    2
    41    30    36   am
    42    30    29    1
    43    37    36    1
    44     4     3    2
    45   100    99    2
    46    32    29    1
    47    32    33    1
    48    28    29    1
    49    28    22   am
    50   104    99   am
    51   102   101    1
    52    42    41    1
    53    42    45    1
    54    42    43    1
    55    35    33   am
    56    99    98    1
    57    21    22    1
    58    21    20    1
    59     3    12   am
    60     3     2    1
    61    22    23    2
    62    33    34    2
    63   101    98    1
    64   101   103    1
    65    44    43    2
    66    43    50   am
    67    98    97    1
    68     2     1    1
    69     2     5    1
    70    50    51    1
    71    91    90    2
    72    93    92    1
    73    93    94    1
    74    89    90    1
    75    89    92    1
    76    89    88    1
    77    76    74   am
    78     5     6    1
    79    96    94   ar
    80    51    52    1
    81    94    95   ar
    82    11     9    1
    83     8     9    2
    84     8     7    1
    85    62    61    1
    86    74    75    2
    87    74    73    1
    88     6     7    1
    89   143   142    2
    90     9    10    1
    91    52    54   am
    92    52    53    2
    93   144   146    1
    94   144   141    1
    95   144   145    1
    96   142   141    1
    97    54    55    1
    98    73    70    1
    99   141   140    1
   100    61    60    1
   101    59    60    1
   102    59    58    1
   103    87    85    1
   104    86    85    1
   105    55    58    1
   106    55    56    1
   107    70    69    1
   108    70    71    1
   109    85    84    2
   110    69    65   am
   111    63    56   am
   112    63    64    1
   113    56    57    2
   114    71    72    2
   115   139   137   ar
   116    84    83    1
   117    67    64    1
   118    67    68    1
   119    65    64    1
   120    65    66    2
   121    83    82    1
   122   138   137   ar
   123   137   136    1
   124    81    82    1
   125    81    78    1
   126    80    79    2
   127   136   133    1
   128   130   129   ar
   129   131   129   ar
   130    79    78    1
   131    78    77    1
   132   129   128    1
   133   133   132    1
   134   133   134    1
   135   132   126   am
   136   135   134    2
   137   126   127    2
   138   126   125    1
   139   128   125    1
   140   125   124    1
