@<TRIPOS>MOLECULE
tmp/5z6bA02.pdb
 108 107 0 0 0
SMALL
GASTEIGER

@<TRIPOS>ATOM
      1  N         -4.8080   -2.3300   -9.1160 N.3    39  TRP39      -0.1241
      2  CA        -3.7690   -3.2700   -9.5340 C.3    39  TRP39       0.1605
      3  C         -3.9990   -4.6840   -8.9930 C.2    39  TRP39       0.2264
      4  O         -4.0170   -5.6520   -9.7590 O.2    39  TRP39      -0.2867
      5  CB        -2.4130   -2.7140   -9.0990 C.3    39  TRP39       0.0550
      6  CG        -1.2580   -3.6490   -9.1670 C.ar   39  TRP39       0.0003
      7  CD1       -0.8000   -4.4560   -8.1650 C.ar   39  TRP39       0.0946
      8  CD2       -0.3710   -3.8420  -10.2750 C.ar   39  TRP39       0.0152
      9  NE1        0.3040   -5.1560   -8.5920 N.ar   39  TRP39      -0.2442
     10  CE2        0.5890   -4.7950   -9.8820 C.ar   39  TRP39       0.0810
     11  CE3       -0.3110   -3.3200  -11.5730 C.ar   39  TRP39       0.0012
     12  CZ2        1.6050   -5.2290  -10.7330 C.ar   39  TRP39       0.0191
     13  CZ3        0.7010   -3.7470  -12.4160 C.ar   39  TRP39       0.0001
     14  CH2        1.6450   -4.6960  -11.9940 C.ar   39  TRP39       0.0015
     15  N          5.2350    5.1570    2.8120 N.3   159  ASN159     -0.1240
     16  CA         3.9410    4.5470    2.5430 C.3   159  ASN159      0.1653
     17  C          3.9760    3.0310    2.6730 C.2   159  ASN159      0.2266
     18  O          2.9370    2.3940    2.4850 O.2   159  ASN159     -0.2867
     19  CB         3.4760    4.9030    1.1310 C.3   159  ASN159      0.1155
     20  CG         4.3060    4.2150    0.0910 C.2   159  ASN159      0.2627
     21  OD1        5.5280    4.3780    0.0710 O.2   159  ASN159     -0.2716
     22  ND2        3.6690    3.4120   -0.7580 N.am  159  ASN159     -0.0877
     23  N          5.7890   -0.4380   -0.9970 N.3   162  HIS162     -0.1227
     24  CA         4.9470   -1.5070   -1.4740 C.3   162  HIS162      0.1737
     25  C          4.9430   -1.5250   -2.9880 C.2   162  HIS162      0.2438
     26  O          4.7340   -0.4780   -3.6110 O.2   162  HIS162     -0.2733
     27  CB         3.5270   -1.3210   -0.9550 C.3   162  HIS162      0.0758
     28  CG         2.6010   -2.3990   -1.4010 C.ar  162  HIS162      0.0818
     29  ND1        2.6350   -3.6700   -0.8720 N.ar  162  HIS162     -0.2268
     30  CD2        1.6560   -2.4130   -2.3690 C.ar  162  HIS162      0.1154
     31  CE1        1.7330   -4.4180   -1.4830 C.ar  162  HIS162      0.1986
     32  NE2        1.1280   -3.6810   -2.3980 N.ar  162  HIS162     -0.2212
     33  N          5.1300   -2.6800   -3.6300 N.am  163  PRO163     -0.2729
     34  CA         5.3360   -3.9930   -3.0240 C.3   163  PRO163      0.1401
     35  C          6.8130   -4.3420   -2.9590 C.2   163  PRO163      0.2269
     36  O          7.6160   -3.7030   -3.6470 O.2   163  PRO163     -0.2865
     37  CB         4.6000   -4.9100   -3.9890 C.3   163  PRO163      0.0296
     38  CG         4.9160   -4.2990   -5.3360 C.3   163  PRO163      0.0237
     39  CD         4.9890   -2.7870   -5.0980 C.3   163  PRO163      0.0939
     40  N         -8.5720    2.2970   -2.4490 N.3   222  GLY222     -0.1210
     41  CA        -8.3890    2.8860   -3.7590 C.3   222  GLY222      0.1956
     42  C         -7.5560    4.1300   -3.5630 C.2   222  GLY222      0.2611
     43  O         -7.2140    4.5010   -2.4350 O.2   222  GLY222     -0.2717
     44  N         -7.2460    4.7820   -4.6800 N.am  223  MET223     -0.1979
     45  CA        -6.1670    5.7630   -4.6640 C.3   223  MET223      0.1605
     46  C         -6.4810    6.9610   -3.7840 C.2   223  MET223      0.2287
     47  O         -5.5620    7.5670   -3.2170 O.2   223  MET223     -0.2864
     48  CB        -5.8600    6.2230   -6.0790 C.3   223  MET223      0.0413
     49  CG        -4.6080    7.0490   -6.1680 C.3   223  MET223      0.0598
     50  SD        -4.2160    7.2870   -7.9000 S.3   223  MET223     -0.1393
     51  CE        -3.7450    5.6050   -8.3250 C.3   223  MET223      0.0692
     52  N         -4.9840    6.4540   -0.4120 N.3   226  ASP226     -0.1239
     53  CA        -3.5620    6.1640   -0.2810 C.3   226  ASP226      0.1674
     54  C         -2.9110    7.1460    0.6920 C.2   226  ASP226      0.2266
     55  O         -3.3870    8.2660    0.8880 O.2   226  ASP226     -0.2867
     56  CB        -2.8820    6.2170   -1.6570 C.3   226  ASP226      0.1410
     57  CG        -1.6730    5.2880   -1.7610 C.2   226  ASP226      0.3668
     58  OD1       -1.2070    4.7710   -0.7150 O.co2 226  ASP226     -0.2456
     59  OD2       -1.1900    5.0720   -2.9010 O.co2 226  ASP226     -0.2456
     60  N          5.8890    8.8240   -0.4000 N.3   236  THR236     -0.1203
     61  CA         5.4200    7.6030   -1.0390 C.3   236  THR236      0.1994
     62  C          6.3980    7.1860   -2.1290 C.2   236  THR236      0.2618
     63  O          7.0140    8.0260   -2.7960 O.2   236  THR236     -0.2717
     64  CB         3.9900    7.7910   -1.5630 C.3   236  THR236      0.1784
     65  OG1        3.4130    6.5250   -1.8980 O.3   236  THR236     -0.2211
     66  CG2        3.9350    8.7250   -2.7650 C.3   236  THR236      0.0376
     67  N          6.5630    5.8730   -2.2750 N.am  237  TRP237     -0.1961
     68  CA         7.4980    5.2830   -3.2310 C.3   237  TRP237      0.1771
     69  C          6.7300    4.7740   -4.4460 C.2   237  TRP237      0.2619
     70  O          6.0260    3.7670   -4.3640 O.2   237  TRP237     -0.2715
     71  CB         8.2660    4.1340   -2.5830 C.3   237  TRP237      0.0590
     72  CG         9.2410    4.5480   -1.5090 C.ar  237  TRP237      0.0006
     73  CD1        8.9440    4.9910   -0.2500 C.ar  237  TRP237      0.0946
     74  CD2       10.6690    4.5230   -1.6030 C.ar  237  TRP237      0.0152
     75  NE1       10.1030    5.2550    0.4440 N.ar  237  TRP237     -0.2442
     76  CE2       11.1760    4.9830   -0.3640 C.ar  237  TRP237      0.0810
     77  CE3       11.5710    4.1780   -2.6170 C.ar  237  TRP237      0.0012
     78  CZ2       12.5410    5.0780   -0.1100 C.ar  237  TRP237      0.0191
     79  CZ3       12.9220    4.2680   -2.3600 C.ar  237  TRP237      0.0001
     80  CH2       13.3950    4.7160   -1.1170 C.ar  237  TRP237      0.0015
     81  N          6.8740    5.4540   -5.5790 N.am  238  ASN238     -0.1972
     82  CA         6.0530    5.1520   -6.7450 C.3   238  ASN238      0.1688
     83  C          6.8050    5.5260   -8.0090 C.2   238  ASN238      0.2292
     84  O          7.8880    6.1100   -7.9670 O.2   238  ASN238     -0.2864
     85  CB         4.7240    5.9130   -6.7130 C.3   238  ASN238      0.1181
     86  CG         3.8160    5.4630   -5.5930 C.2   238  ASN238      0.2629
     87  OD1        3.8410    6.0330   -4.4980 O.2   238  ASN238     -0.2716
     88  ND2        3.0130    4.4410   -5.8520 N.am  238  ASN238     -0.0877
     89  N          2.9810    8.1530  -11.7110 N.3   242  GLN242     -0.1245
     90  CA         1.9500    8.0110  -10.6870 C.3   242  GLN242      0.1566
     91  C          1.7870    9.2710   -9.8580 C.2   242  GLN242      0.2260
     92  O          0.7520    9.4330   -9.2020 O.2   242  GLN242     -0.2867
     93  CB         2.2860    6.8310   -9.7820 C.3   242  GLN242      0.0367
     94  CG         2.3930    5.5240  -10.5460 C.3   242  GLN242      0.0905
     95  CD         2.5160    4.3530   -9.6070 C.2   242  GLN242      0.2608
     96  OE1        3.6040    4.0310   -9.1390 O.2   242  GLN242     -0.2717
     97  NE2        1.3890    3.7240   -9.2980 N.am  242  GLN242     -0.0878
     98  N         -1.7940   11.2370   -7.9550 N.3   246  PHE246     -0.1241
     99  CA        -1.7430   11.7920   -6.6050 C.3   246  PHE246      0.1605
    100  C         -2.0010   13.2950   -6.6230 C.2   246  PHE246      0.2264
    101  O         -2.7800   13.8090   -5.8130 O.2   246  PHE246     -0.2867
    102  CB        -0.3870   11.5120   -5.9630 C.3   246  PHE246      0.0534
    103  CG        -0.0950   10.0620   -5.7300 C.ar  246  PHE246     -0.0203
    104  CD1       -1.0930    9.1840   -5.3390 C.ar  246  PHE246     -0.0042
    105  CD2        1.1980    9.5920   -5.8590 C.ar  246  PHE246     -0.0042
    106  CE1       -0.8000    7.8470   -5.0900 C.ar  246  PHE246     -0.0003
    107  CE2        1.4990    8.2550   -5.6200 C.ar  246  PHE246     -0.0003
    108  CZ         0.4980    7.3840   -5.2370 C.ar  246  PHE246     -0.0000
@<TRIPOS>BOND
     1    13    14   ar
     2    13    11   ar
     3    14    12   ar
     4    89    90    1
     5    11     8   ar
     6    12    10   ar
     7    90    91    1
     8    90    93    1
     9    94    93    1
    10    94    95    1
    11     8    10   ar
    12     8     6   ar
    13    10     9   ar
    14    91    92    2
    15     4     3    2
    16    95    97   am
    17    95    96    2
    18     2     1    1
    19     2     5    1
    20     2     3    1
    21     6     5    1
    22     6     7   ar
    23     9     7   ar
    24    51    50    1
    25    83    84    2
    26    83    82    1
    27    98    99    1
    28    50    49    1
    29    82    85    1
    30    82    81    1
    31    85    86    1
    32   100    99    1
    33   100   101    2
    34    99   102    1
    35    49    48    1
    36    48    45    1
    37   102   103    1
    38   105   103   ar
    39   105   107   ar
    40    88    86   am
    41   103   104   ar
    42   107   108   ar
    43    86    87    2
    44    81    69   am
    45   104   106   ar
    46    38    39    1
    47    38    37    1
    48   108   106   ar
    49    39    33    1
    50    44    45    1
    51    44    42   am
    52    45    46    1
    53    69    70    2
    54    69    68    1
    55    37    34    1
    56    46    47    2
    57    41    42    1
    58    41    40    1
    59    36    35    2
    60    33    34    1
    61    33    25   am
    62    26    25    2
    63    42    43    2
    64    68    71    1
    65    68    67    1
    66    34    35    1
    67    25    24    1
    68    59    57   ar
    69    63    62    2
    70    66    64    1
    71    77    79   ar
    72    77    74   ar
    73    71    72    1
    74    32    30   ar
    75    32    31   ar
    76    30    28   ar
    77    79    80   ar
    78    67    62   am
    79    62    61    1
    80    65    64    1
    81    57    56    1
    82    57    58   ar
    83    56    53    1
    84    74    72   ar
    85    74    76   ar
    86    64    61    1
    87    72    73   ar
    88    31    29   ar
    89    24    23    1
    90    24    27    1
    91    28    27    1
    92    28    29   ar
    93    80    78   ar
    94    61    60    1
    95    22    20   am
    96    52    53    1
    97    76    78   ar
    98    76    75   ar
    99    53    54    1
   100    73    75   ar
   101    21    20    2
   102    20    19    1
   103    54    55    2
   104    19    16    1
   105    18    17    2
   106    16    17    1
   107    16    15    1
