@<TRIPOS>MOLECULE
tmp/5z6bA01.pdb
 132 134 0 0 0
SMALL
GASTEIGER

@<TRIPOS>ATOM
      1  N         -5.7860   -1.3720  -15.2510 N.3     7  TRP7       -0.1241
      2  CA        -5.7390   -1.1340  -13.8140 C.3     7  TRP7        0.1605
      3  C         -5.3960    0.3300  -13.5720 C.2     7  TRP7        0.2264
      4  O         -4.8410    1.0110  -14.4410 O.2     7  TRP7       -0.2867
      5  CB        -4.7210   -2.0530  -13.0960 C.3     7  TRP7        0.0550
      6  CG        -3.3080   -1.5900  -13.2930 C.ar    7  TRP7        0.0003
      7  CD1       -2.6560   -0.5990  -12.5950 C.ar    7  TRP7        0.0946
      8  CD2       -2.3960   -2.0320  -14.3090 C.ar    7  TRP7        0.0152
      9  NE1       -1.3970   -0.4050  -13.1180 N.ar    7  TRP7       -0.2442
     10  CE2       -1.2120   -1.2810  -14.1610 C.ar    7  TRP7        0.0810
     11  CE3       -2.4670   -3.0030  -15.3250 C.ar    7  TRP7        0.0012
     12  CZ2       -0.1060   -1.4630  -14.9910 C.ar    7  TRP7        0.0191
     13  CZ3       -1.3730   -3.1830  -16.1470 C.ar    7  TRP7        0.0001
     14  CH2       -0.2040   -2.4220  -15.9740 C.ar    7  TRP7        0.0015
     15  N         -4.8080   -2.3300   -9.1160 N.3    39  TRP39      -0.1241
     16  CA        -3.7690   -3.2700   -9.5340 C.3    39  TRP39       0.1605
     17  C         -3.9990   -4.6840   -8.9930 C.2    39  TRP39       0.2264
     18  O         -4.0170   -5.6520   -9.7590 O.2    39  TRP39      -0.2867
     19  CB        -2.4130   -2.7140   -9.0990 C.3    39  TRP39       0.0550
     20  CG        -1.2580   -3.6490   -9.1670 C.ar   39  TRP39       0.0003
     21  CD1       -0.8000   -4.4560   -8.1650 C.ar   39  TRP39       0.0946
     22  CD2       -0.3710   -3.8420  -10.2750 C.ar   39  TRP39       0.0152
     23  NE1        0.3040   -5.1560   -8.5920 N.ar   39  TRP39      -0.2442
     24  CE2        0.5890   -4.7950   -9.8820 C.ar   39  TRP39       0.0810
     25  CE3       -0.3110   -3.3200  -11.5730 C.ar   39  TRP39       0.0012
     26  CZ2        1.6050   -5.2290  -10.7330 C.ar   39  TRP39       0.0191
     27  CZ3        0.7010   -3.7470  -12.4160 C.ar   39  TRP39       0.0001
     28  CH2        1.6450   -4.6960  -11.9940 C.ar   39  TRP39       0.0015
     29  N          1.6160   -5.5670  -17.8000 N.3    62  ASP62      -0.1239
     30  CA         2.8280   -5.1560  -17.1070 C.3    62  ASP62       0.1674
     31  C          3.9530   -6.1320  -17.4230 C.2    62  ASP62       0.2266
     32  O          3.7060   -7.3190  -17.6500 O.2    62  ASP62      -0.2867
     33  CB         2.6130   -5.1060  -15.5900 C.3    62  ASP62       0.1410
     34  CG         3.7390   -4.3890  -14.8800 C.2    62  ASP62       0.3668
     35  OD1        3.8260   -3.1480  -15.0020 O.co2  62  ASP62      -0.2456
     36  OD2        4.5560   -5.0780  -14.2230 O.co2  62  ASP62      -0.2456
     37  N          5.7890   -0.4380   -0.9970 N.3   162  HIS162     -0.1227
     38  CA         4.9470   -1.5070   -1.4740 C.3   162  HIS162      0.1737
     39  C          4.9430   -1.5250   -2.9880 C.2   162  HIS162      0.2438
     40  O          4.7340   -0.4780   -3.6110 O.2   162  HIS162     -0.2733
     41  CB         3.5270   -1.3210   -0.9550 C.3   162  HIS162      0.0758
     42  CG         2.6010   -2.3990   -1.4010 C.ar  162  HIS162      0.0818
     43  ND1        2.6350   -3.6700   -0.8720 N.ar  162  HIS162     -0.2268
     44  CD2        1.6560   -2.4130   -2.3690 C.ar  162  HIS162      0.1154
     45  CE1        1.7330   -4.4180   -1.4830 C.ar  162  HIS162      0.1986
     46  NE2        1.1280   -3.6810   -2.3980 N.ar  162  HIS162     -0.2212
     47  N          5.1300   -2.6800   -3.6300 N.am  163  PRO163     -0.2729
     48  CA         5.3360   -3.9930   -3.0240 C.3   163  PRO163      0.1401
     49  C          6.8130   -4.3420   -2.9590 C.2   163  PRO163      0.2269
     50  O          7.6160   -3.7030   -3.6470 O.2   163  PRO163     -0.2865
     51  CB         4.6000   -4.9100   -3.9890 C.3   163  PRO163      0.0296
     52  CG         4.9160   -4.2990   -5.3360 C.3   163  PRO163      0.0237
     53  CD         4.9890   -2.7870   -5.0980 C.3   163  PRO163      0.0939
     54  N          8.4450   -6.7110   -4.2730 N.3   165  ASP165     -0.1225
     55  CA         9.0360   -7.1300   -5.5420 C.3   165  ASP165      0.1805
     56  C          9.4900   -5.9630   -6.4090 C.2   165  ASP165      0.2598
     57  O         10.1950   -6.1870   -7.3970 O.2   165  ASP165     -0.2718
     58  CB         8.0620   -7.9950   -6.3430 C.3   165  ASP165      0.1424
     59  CG         6.8100   -7.2520   -6.7350 C.2   165  ASP165      0.3668
     60  OD1        6.8180   -6.6400   -7.8250 O.co2 165  ASP165     -0.2456
     61  OD2        5.8330   -7.2870   -5.9480 O.co2 165  ASP165     -0.2456
     62  N          9.1270   -4.7310   -6.0700 N.am  166  ILE166     -0.1966
     63  CA         9.6950   -3.5660   -6.7320 C.3   166  ILE166      0.1727
     64  C         10.8410   -2.9750   -5.9220 C.2   166  ILE166      0.2616
     65  O         11.9120   -2.6910   -6.4630 O.2   166  ILE166     -0.2715
     66  CB         8.5920   -2.5150   -7.0040 C.3   166  ILE166      0.0290
     67  CG1        7.5530   -3.0810   -7.9790 C.3   166  ILE166      0.0022
     68  CG2        9.1810   -1.2130   -7.5570 C.3   166  ILE166      0.0023
     69  CD1        8.1530   -3.6190   -9.2740 C.3   166  ILE166      0.0001
     70  N         10.6620   -2.8290   -4.6160 N.am  167  PHE167     -0.1974
     71  CA        11.6240   -2.0300   -3.8680 C.3   167  PHE167      0.1639
     72  C         12.7810   -2.8390   -3.3050 C.2   167  PHE167      0.2290
     73  O         13.8840   -2.2960   -3.1900 O.2   167  PHE167     -0.2864
     74  CB        10.8650   -1.2000   -2.8300 C.3   167  PHE167      0.0560
     75  CG         9.9980   -0.1930   -3.5000 C.ar  167  PHE167     -0.0200
     76  CD1       10.5830    0.8620   -4.1840 C.ar  167  PHE167     -0.0042
     77  CD2        8.6320   -0.3870   -3.6150 C.ar  167  PHE167     -0.0042
     78  CE1        9.8060    1.7740   -4.8860 C.ar  167  PHE167     -0.0003
     79  CE2        7.8520    0.5080   -4.3340 C.ar  167  PHE167     -0.0003
     80  CZ         8.4300    1.5780   -4.9690 C.ar  167  PHE167     -0.0000
     81  N          6.5630    5.8730   -2.2750 N.3   237  TRP237     -0.1227
     82  CA         7.4980    5.2830   -3.2310 C.3   237  TRP237      0.1737
     83  C          6.7300    4.7740   -4.4460 C.2   237  TRP237      0.2595
     84  O          6.0260    3.7670   -4.3640 O.2   237  TRP237     -0.2718
     85  CB         8.2660    4.1340   -2.5830 C.3   237  TRP237      0.0564
     86  CG         9.2410    4.5480   -1.5090 C.ar  237  TRP237      0.0003
     87  CD1        8.9440    4.9910   -0.2500 C.ar  237  TRP237      0.0946
     88  CD2       10.6690    4.5230   -1.6030 C.ar  237  TRP237      0.0152
     89  NE1       10.1030    5.2550    0.4440 N.ar  237  TRP237     -0.2442
     90  CE2       11.1760    4.9830   -0.3640 C.ar  237  TRP237      0.0810
     91  CE3       11.5710    4.1780   -2.6170 C.ar  237  TRP237      0.0012
     92  CZ2       12.5410    5.0780   -0.1100 C.ar  237  TRP237      0.0191
     93  CZ3       12.9220    4.2680   -2.3600 C.ar  237  TRP237      0.0001
     94  CH2       13.3950    4.7160   -1.1170 C.ar  237  TRP237      0.0015
     95  N          6.8740    5.4540   -5.5790 N.am  238  ASN238     -0.1960
     96  CA         6.0530    5.1520   -6.7450 C.3   238  ASN238      0.1819
     97  C          6.8050    5.5260   -8.0090 C.2   238  ASN238      0.2621
     98  O          7.8880    6.1100   -7.9670 O.2   238  ASN238     -0.2715
     99  CB         4.7240    5.9130   -6.7130 C.3   238  ASN238      0.1195
    100  CG         3.8160    5.4630   -5.5930 C.2   238  ASN238      0.2630
    101  OD1        3.8410    6.0330   -4.4980 O.2   238  ASN238     -0.2716
    102  ND2        3.0130    4.4410   -5.8520 N.am  238  ASN238     -0.0877
    103  N          6.2200    5.1750   -9.1530 N.am  239  TYR239     -0.1974
    104  CA         6.8290    5.5900  -10.4040 C.3   239  TYR239      0.1639
    105  C          6.4490    7.0290  -10.7320 C.2   239  TYR239      0.2290
    106  O          5.4000    7.5360  -10.3180 O.2   239  TYR239     -0.2864
    107  CB         6.4240    4.6400  -11.5310 C.3   239  TYR239      0.0560
    108  CG         7.0570    3.2760  -11.3950 C.ar  239  TYR239     -0.0198
    109  CD1        8.3370    3.0250  -11.8810 C.ar  239  TYR239     -0.0009
    110  CD2        6.3790    2.2410  -10.7690 C.ar  239  TYR239     -0.0009
    111  CE1        8.9180    1.7600  -11.7680 C.ar  239  TYR239      0.0417
    112  CE2        6.9620    0.9740  -10.6270 C.ar  239  TYR239      0.0417
    113  CZ         8.2300    0.7500  -11.1320 C.ar  239  TYR239      0.1957
    114  OH         8.8020   -0.4960  -11.0130 O.3   239  TYR239     -0.2866
    115  N          2.9810    8.1530  -11.7110 N.3   242  GLN242     -0.1245
    116  CA         1.9500    8.0110  -10.6870 C.3   242  GLN242      0.1566
    117  C          1.7870    9.2710   -9.8580 C.2   242  GLN242      0.2260
    118  O          0.7520    9.4330   -9.2020 O.2   242  GLN242     -0.2867
    119  CB         2.2860    6.8310   -9.7820 C.3   242  GLN242      0.0367
    120  CG         2.3930    5.5240  -10.5460 C.3   242  GLN242      0.0905
    121  CD         2.5160    4.3530   -9.6070 C.2   242  GLN242      0.2608
    122  OE1        3.6040    4.0310   -9.1390 O.2   242  GLN242     -0.2717
    123  NE2        1.3890    3.7240   -9.2980 N.am  242  GLN242     -0.0878
    124  N         12.0470    2.5360  -17.3880 N.3   271  LYS271     -0.1245
    125  CA        11.2250    1.3270  -17.4170 C.3   271  LYS271      0.1561
    126  C         10.0590    1.4840  -18.3920 C.2   271  LYS271      0.2260
    127  O          9.4920    2.5710  -18.5100 O.2   271  LYS271     -0.2867
    128  CB        10.6830    1.0210  -16.0200 C.3   271  LYS271      0.0271
    129  CG         9.9990   -0.3450  -15.8900 C.3   271  LYS271      0.0035
    130  CD         9.3660   -0.5230  -14.5220 C.3   271  LYS271      0.0206
    131  CE         7.8700   -0.7100  -14.6150 C.3   271  LYS271      0.1093
    132  NZ         7.3630   -1.5850  -13.5100 N.3   271  LYS271     -0.1314
@<TRIPOS>BOND
     1   127   126    2
     2   126   125    1
     3    29    30    1
     4    32    31    2
     5    31    30    1
     6   125   124    1
     7   125   128    1
     8    30    33    1
     9    13    14   ar
    10    13    11   ar
    11   128   129    1
    12    14    12   ar
    13   129   130    1
    14    33    34    1
    15    11     8   ar
    16     1     2    1
    17    35    34   ar
    18    12    10   ar
    19    34    36   ar
    20   131   130    1
    21   131   132    1
    22     4     3    2
    23     8    10   ar
    24     8     6   ar
    25    10     9   ar
    26     2     3    1
    27     2     5    1
    28     6     5    1
    29     6     7   ar
    30     9     7   ar
    31    27    28   ar
    32    27    25   ar
    33    28    26   ar
    34   109   111   ar
    35   109   108   ar
    36   111   113   ar
    37   115   116    1
    38    25    22   ar
    39   107   108    1
    40   107   104    1
    41   108   110   ar
    42   113   114    1
    43   113   112   ar
    44   110   112   ar
    45    26    24   ar
    46   105   104    1
    47   105   106    2
    48   116   117    1
    49   116   119    1
    50   120   119    1
    51   120   121    1
    52   104   103    1
    53    22    24   ar
    54    22    20   ar
    55    24    23   ar
    56   117   118    2
    57    18    17    2
    58   121   123   am
    59   121   122    2
    60    16    15    1
    61    16    19    1
    62    16    17    1
    63    69    67    1
    64    20    19    1
    65    20    21   ar
    66   103    97   am
    67    23    21   ar
    68    97    98    2
    69    97    96    1
    70    67    66    1
    71    60    59   ar
    72    68    66    1
    73    57    56    2
    74    66    63    1
    75    96    99    1
    76    96    95    1
    77    59    58    1
    78    59    61   ar
    79    63    62    1
    80    63    64    1
    81    99   100    1
    82    65    64    2
    83    56    62   am
    84    56    55    1
    85    58    55    1
    86    64    70   am
    87   102   100   am
    88   100   101    2
    89    95    83   am
    90    55    54    1
    91    52    53    1
    92    52    51    1
    93    53    47    1
    94    80    78   ar
    95    80    79   ar
    96    78    76   ar
    97    70    71    1
    98    83    84    2
    99    83    82    1
   100    79    77   ar
   101    76    75   ar
   102    51    48    1
   103    71    72    1
   104    71    74    1
   105    50    49    2
   106    47    48    1
   107    47    39   am
   108    77    75   ar
   109    40    39    2
   110    75    74    1
   111    72    73    2
   112    82    85    1
   113    82    81    1
   114    48    49    1
   115    39    38    1
   116    91    93   ar
   117    91    88   ar
   118    85    86    1
   119    46    44   ar
   120    46    45   ar
   121    44    42   ar
   122    93    94   ar
   123    88    86   ar
   124    88    90   ar
   125    86    87   ar
   126    45    43   ar
   127    38    37    1
   128    38    41    1
   129    42    41    1
   130    42    43   ar
   131    94    92   ar
   132    90    92   ar
   133    90    89   ar
   134    87    89   ar
