@<TRIPOS>MOLECULE
tmp/5z6bA00.pdb
 119 114 0 0 0
SMALL
GASTEIGER

@<TRIPOS>ATOM
      1  N         -5.7860   -1.3720  -15.2510 N.3     7  TRP7       -0.1227
      2  CA        -5.7390   -1.1340  -13.8140 C.3     7  TRP7        0.1737
      3  C         -5.3960    0.3300  -13.5720 C.2     7  TRP7        0.2596
      4  O         -4.8410    1.0110  -14.4410 O.2     7  TRP7       -0.2718
      5  CB        -4.7210   -2.0530  -13.0960 C.3     7  TRP7        0.0564
      6  CG        -3.3080   -1.5900  -13.2930 C.ar    7  TRP7        0.0003
      7  CD1       -2.6560   -0.5990  -12.5950 C.ar    7  TRP7        0.0946
      8  CD2       -2.3960   -2.0320  -14.3090 C.ar    7  TRP7        0.0152
      9  NE1       -1.3970   -0.4050  -13.1180 N.ar    7  TRP7       -0.2442
     10  CE2       -1.2120   -1.2810  -14.1610 C.ar    7  TRP7        0.0810
     11  CE3       -2.4670   -3.0030  -15.3250 C.ar    7  TRP7        0.0012
     12  CZ2       -0.1060   -1.4630  -14.9910 C.ar    7  TRP7        0.0191
     13  CZ3       -1.3730   -3.1830  -16.1470 C.ar    7  TRP7        0.0001
     14  CH2       -0.2040   -2.4220  -15.9740 C.ar    7  TRP7        0.0015
     15  N         -5.7390    0.8110  -12.3860 N.am    8  GLY8       -0.1957
     16  CA        -5.3580    2.1430  -11.9640 C.3     8  GLY8        0.1869
     17  C         -6.3470    2.7010  -10.9610 C.2     8  GLY8        0.2309
     18  O         -7.1960    1.9860  -10.4240 O.2     8  GLY8       -0.2863
     19  N         -7.0010    7.9830  -13.5340 N.3    12  ARG12      -0.1245
     20  CA        -6.7910    7.2950  -14.8000 C.3    12  ARG12       0.1563
     21  C         -8.1150    6.8910  -15.4340 C.2    12  ARG12       0.2260
     22  O         -8.2920    7.0260  -16.6530 O.2    12  ARG12      -0.2867
     23  CB        -5.9030    6.0730  -14.5860 C.3    12  ARG12       0.0307
     24  CG        -5.7030    5.2360  -15.8520 C.3    12  ARG12       0.0489
     25  CD        -4.6570    4.1450  -15.6020 C.3    12  ARG12       0.2205
     26  NE        -3.3760    4.7610  -15.2890 N.pl3  12  ARG12      -0.0865
     27  CZ        -2.3730    4.1520  -14.6670 C.cat  12  ARG12       0.5346
     28  NH1       -2.4690    2.8710  -14.3190 N.pl3  12  ARG12       0.1354
     29  NH2       -1.2590    4.8300  -14.4050 N.pl3  12  ARG12       0.1354
     30  N         -4.8080   -2.3300   -9.1160 N.3    39  TRP39      -0.1241
     31  CA        -3.7690   -3.2700   -9.5340 C.3    39  TRP39       0.1605
     32  C         -3.9990   -4.6840   -8.9930 C.2    39  TRP39       0.2264
     33  O         -4.0170   -5.6520   -9.7590 O.2    39  TRP39      -0.2867
     34  CB        -2.4130   -2.7140   -9.0990 C.3    39  TRP39       0.0550
     35  CG        -1.2580   -3.6490   -9.1670 C.ar   39  TRP39       0.0003
     36  CD1       -0.8000   -4.4560   -8.1650 C.ar   39  TRP39       0.0946
     37  CD2       -0.3710   -3.8420  -10.2750 C.ar   39  TRP39       0.0152
     38  NE1        0.3040   -5.1560   -8.5920 N.ar   39  TRP39      -0.2442
     39  CE2        0.5890   -4.7950   -9.8820 C.ar   39  TRP39       0.0810
     40  CE3       -0.3110   -3.3200  -11.5730 C.ar   39  TRP39       0.0012
     41  CZ2        1.6050   -5.2290  -10.7330 C.ar   39  TRP39       0.0191
     42  CZ3        0.7010   -3.7470  -12.4160 C.ar   39  TRP39       0.0001
     43  CH2        1.6450   -4.6960  -11.9940 C.ar   39  TRP39       0.0015
     44  N          1.6160   -5.5670  -17.8000 N.3    62  ASP62      -0.1239
     45  CA         2.8280   -5.1560  -17.1070 C.3    62  ASP62       0.1674
     46  C          3.9530   -6.1320  -17.4230 C.2    62  ASP62       0.2266
     47  O          3.7060   -7.3190  -17.6500 O.2    62  ASP62      -0.2867
     48  CB         2.6130   -5.1060  -15.5900 C.3    62  ASP62       0.1410
     49  CG         3.7390   -4.3890  -14.8800 C.2    62  ASP62       0.3668
     50  OD1        3.8260   -3.1480  -15.0020 O.co2  62  ASP62      -0.2456
     51  OD2        4.5560   -5.0780  -14.2230 O.co2  62  ASP62      -0.2456
     52  N          8.7060    5.2690  -17.5050 N.3   114  ASN114     -0.1240
     53  CA         8.7010    5.9010  -16.1950 C.3   114  ASN114      0.1653
     54  C          9.9460    5.4980  -15.4180 C.2   114  ASN114      0.2266
     55  O         10.7870    4.7220  -15.8830 O.2   114  ASN114     -0.2867
     56  CB         7.4080    5.5890  -15.4200 C.3   114  ASN114      0.1155
     57  CG         7.1740    4.0920  -15.2020 C.2   114  ASN114      0.2627
     58  OD1        8.0240    3.2520  -15.4920 O.2   114  ASN114     -0.2716
     59  ND2        5.9910    3.7630  -14.6850 N.am  114  ASN114     -0.0877
     60  N          9.1270   -4.7310   -6.0700 N.3   166  ILE166     -0.1245
     61  CA         9.6950   -3.5660   -6.7320 C.3   166  ILE166      0.1561
     62  C         10.8410   -2.9750   -5.9220 C.2   166  ILE166      0.2260
     63  O         11.9120   -2.6910   -6.4630 O.2   166  ILE166     -0.2867
     64  CB         8.5920   -2.5150   -7.0040 C.3   166  ILE166      0.0252
     65  CG1        7.5530   -3.0810   -7.9790 C.3   166  ILE166      0.0019
     66  CG2        9.1810   -1.2130   -7.5570 C.3   166  ILE166      0.0019
     67  CD1        8.1530   -3.6190   -9.2740 C.3   166  ILE166      0.0001
     68  N          6.2200    5.1750   -9.1530 N.3   239  TYR239     -0.1241
     69  CA         6.8290    5.5900  -10.4040 C.3   239  TYR239      0.1605
     70  C          6.4490    7.0290  -10.7320 C.2   239  TYR239      0.2264
     71  O          5.4000    7.5360  -10.3180 O.2   239  TYR239     -0.2867
     72  CB         6.4240    4.6400  -11.5310 C.3   239  TYR239      0.0534
     73  CG         7.0570    3.2760  -11.3950 C.ar  239  TYR239     -0.0201
     74  CD1        8.3370    3.0250  -11.8810 C.ar  239  TYR239     -0.0009
     75  CD2        6.3790    2.2410  -10.7690 C.ar  239  TYR239     -0.0009
     76  CE1        8.9180    1.7600  -11.7680 C.ar  239  TYR239      0.0417
     77  CE2        6.9620    0.9740  -10.6270 C.ar  239  TYR239      0.0417
     78  CZ         8.2300    0.7500  -11.1320 C.ar  239  TYR239      0.1957
     79  OH         8.8020   -0.4960  -11.0130 O.3   239  TYR239     -0.2866
     80  N          5.2230    8.6230  -13.2500 N.3   241  ASN241     -0.1225
     81  CA         3.9240    8.9720  -13.8200 C.3   241  ASN241      0.1785
     82  C          2.8180    8.9560  -12.7700 C.2   241  ASN241      0.2597
     83  O          1.8140    9.6610  -12.9220 O.2   241  ASN241     -0.2718
     84  CB         3.5700    8.0150  -14.9580 C.3   241  ASN241      0.1169
     85  CG         3.3940    6.5970  -14.4670 C.2   241  ASN241      0.2627
     86  OD1        4.3370    5.9980  -13.9580 O.2   241  ASN241     -0.2716
     87  ND2        2.1780    6.0650  -14.5790 N.am  241  ASN241     -0.0877
     88  N          2.9810    8.1530  -11.7110 N.am  242  GLN242     -0.1979
     89  CA         1.9500    8.0110  -10.6870 C.3   242  GLN242      0.1601
     90  C          1.7870    9.2710   -9.8580 C.2   242  GLN242      0.2287
     91  O          0.7520    9.4330   -9.2020 O.2   242  GLN242     -0.2864
     92  CB         2.2860    6.8310   -9.7820 C.3   242  GLN242      0.0394
     93  CG         2.3930    5.5240  -10.5460 C.3   242  GLN242      0.0908
     94  CD         2.5160    4.3530   -9.6070 C.2   242  GLN242      0.2608
     95  OE1        3.6040    4.0310   -9.1390 O.2   242  GLN242     -0.2717
     96  NE2        1.3890    3.7240   -9.2980 N.am  242  GLN242     -0.0878
     97  N         12.0470    2.5360  -17.3880 N.3   271  LYS271     -0.1245
     98  CA        11.2250    1.3270  -17.4170 C.3   271  LYS271      0.1561
     99  C         10.0590    1.4840  -18.3920 C.2   271  LYS271      0.2260
    100  O          9.4920    2.5710  -18.5100 O.2   271  LYS271     -0.2867
    101  CB        10.6830    1.0210  -16.0200 C.3   271  LYS271      0.0271
    102  CG         9.9990   -0.3450  -15.8900 C.3   271  LYS271      0.0035
    103  CD         9.3660   -0.5230  -14.5220 C.3   271  LYS271      0.0206
    104  CE         7.8700   -0.7100  -14.6150 C.3   271  LYS271      0.1093
    105  NZ         7.3630   -1.5850  -13.5100 N.3   271  LYS271     -0.1314
    106  N          6.5230    1.5710  -18.7830 N.3   273  SER273     -0.1202
    107  CA         5.5810    1.8270  -17.6970 C.3   273  SER273      0.2020
    108  C          4.4890    0.7760  -17.6490 C.2   273  SER273      0.2618
    109  O          4.0890    0.3320  -16.5680 O.2   273  SER273     -0.2717
    110  CB         4.9600    3.2050  -17.8730 C.3   273  SER273      0.2103
    111  OG         4.2630    3.2440  -19.1210 O.3   273  SER273     -0.2182
    112  N          3.9880    0.3820  -18.8150 N.am  274  MET274     -0.1979
    113  CA         2.9260   -0.5950  -18.9930 C.3   274  MET274      0.1605
    114  C          2.7800   -0.7740  -20.4970 C.2   274  MET274      0.2287
    115  O          3.4140   -0.0640  -21.2850 O.2   274  MET274     -0.2864
    116  CB         1.6140   -0.1390  -18.3690 C.3   274  MET274      0.0413
    117  CG         1.1590    1.2250  -18.9320 C.3   274  MET274      0.0598
    118  SD        -0.2150    1.8720  -17.9970 S.3   274  MET274     -0.1393
    119  CE         0.6460    2.5740  -16.5920 C.3   274  MET274      0.0692
@<TRIPOS>BOND
     1   115   114    2
     2   114   113    1
     3   111   110    1
     4   113   112    1
     5   113   116    1
     6   117   116    1
     7   117   118    1
     8   112   108   am
     9   106   107    1
    10   100    99    2
    11    99    98    1
    12   118   119    1
    13   110   107    1
    14    44    45    1
    15   107   108    1
    16    47    46    2
    17   108   109    2
    18    52    53    1
    19    46    45    1
    20    98    97    1
    21    98   101    1
    22    45    48    1
    23    22    21    2
    24    53    56    1
    25    53    54    1
    26    13    14   ar
    27    13    11   ar
    28   101   102    1
    29    14    12   ar
    30   102   103    1
    31    55    54    2
    32    24    25    1
    33    24    23    1
    34    25    26    1
    35    48    49    1
    36    58    57    2
    37    21    20    1
    38    56    57    1
    39    11     8   ar
    40    26    27    2
    41     1     2    1
    42    57    59   am
    43    50    49   ar
    44    12    10   ar
    45    84    85    1
    46    84    81    1
    47    49    51   ar
    48    20    23    1
    49    20    19    1
    50    27    29    1
    51    27    28    1
    52   104   103    1
    53   104   105    1
    54    87    85   am
    55    85    86    2
    56     4     3    2
    57     8    10   ar
    58     8     6   ar
    59    10     9   ar
    60    81    80    1
    61    81    82    1
    62     2     3    1
    63     2     5    1
    64     3    15   am
    65     6     5    1
    66     6     7   ar
    67     9     7   ar
    68    83    82    2
    69    82    88   am
    70    42    43   ar
    71    42    40   ar
    72    15    16    1
    73    43    41   ar
    74    16    17    1
    75    74    76   ar
    76    74    73   ar
    77    76    78   ar
    78    88    89    1
    79    40    37   ar
    80    72    73    1
    81    72    69    1
    82    73    75   ar
    83    78    79    1
    84    78    77   ar
    85    17    18    2
    86    75    77   ar
    87    41    39   ar
    88    70    69    1
    89    70    71    2
    90    89    90    1
    91    89    92    1
    92    93    92    1
    93    93    94    1
    94    69    68    1
    95    37    39   ar
    96    37    35   ar
    97    39    38   ar
    98    90    91    2
    99    33    32    2
   100    94    96   am
   101    94    95    2
   102    31    30    1
   103    31    34    1
   104    31    32    1
   105    67    65    1
   106    35    34    1
   107    35    36   ar
   108    38    36   ar
   109    65    64    1
   110    66    64    1
   111    64    61    1
   112    61    60    1
   113    61    62    1
   114    63    62    2
