@<TRIPOS>MOLECULE
tmp/5z6sA01.pdb
 212 199 0 0 0
SMALL
GASTEIGER

@<TRIPOS>ATOM
      1  N         11.8050   39.2950   93.8710 N.3    44  ILE44      -0.1245
      2  CA        10.7170   39.8740   94.6480 C.3    44  ILE44       0.1561
      3  C          9.4430   39.2660   94.0780 C.2    44  ILE44       0.2260
      4  O          9.0670   39.5510   92.9390 O.2    44  ILE44      -0.2867
      5  CB        10.6830   41.4100   94.5090 C.3    44  ILE44       0.0252
      6  CG1       11.9590   42.0060   95.1100 C.3    44  ILE44       0.0019
      7  CG2        9.4460   41.9670   95.1910 C.3    44  ILE44       0.0019
      8  CD1       12.0530   43.5110   95.0000 C.3    44  ILE44       0.0001
      9  N          9.7080   41.6050   99.1060 N.3    50  LEU50      -0.1245
     10  CA         9.9270   42.9990   98.7310 C.3    50  LEU50       0.1561
     11  C         10.5880   43.7020   99.9170 C.2    50  LEU50       0.2260
     12  O         11.4930   44.5240   99.7510 O.2    50  LEU50      -0.2867
     13  CB         8.5950   43.6810   98.3940 C.3    50  LEU50       0.0270
     14  CG         8.6420   45.1890   98.1210 C.3    50  LEU50       0.0019
     15  CD1        9.6250   45.4930   97.0060 C.3    50  LEU50       0.0001
     16  CD2        7.2660   45.6710   97.7310 C.3    50  LEU50       0.0001
     17  N         14.1770   42.6750  100.0850 N.3    53  GLY53      -0.1210
     18  CA        14.9370   43.3060   99.0190 C.3    53  GLY53       0.1956
     19  C         15.2100   44.7860   99.1940 C.2    53  GLY53       0.2611
     20  O         16.1790   45.3050   98.6430 O.2    53  GLY53      -0.2717
     21  N         14.3650   45.4720   99.9540 N.am   54  GLU54      -0.1979
     22  CA        14.5460   46.9030  100.1780 C.3    54  GLU54       0.1602
     23  C         15.8580   47.1240  100.9250 C.2    54  GLU54       0.2287
     24  O         16.3140   48.2520  101.1030 O.2    54  GLU54      -0.2864
     25  CB        13.3640   47.4560  100.9850 C.3    54  GLU54       0.0415
     26  CG        13.3290   48.9730  101.1190 C.3    54  GLU54       0.1163
     27  CD        14.1870   49.4910  102.2600 C.2    54  GLU54       0.3649
     28  OE1       14.3180   50.7290  102.3890 O.co2  54  GLU54      -0.2457
     29  OE2       14.7240   48.6660  103.0300 O.co2  54  GLU54      -0.2457
     30  N         18.6360   45.5480   97.3800 N.3    57  ILE57      -0.1245
     31  CA        18.7440   46.3620   96.1740 C.3    57  ILE57       0.1561
     32  C         19.0310   47.8250   96.4930 C.2    57  ILE57       0.2260
     33  O         20.0260   48.3820   96.0180 O.2    57  ILE57      -0.2867
     34  CB        17.4540   46.2750   95.3310 C.3    57  ILE57       0.0252
     35  CG1       17.2080   44.8230   94.9180 C.3    57  ILE57       0.0019
     36  CG2       17.5750   47.1610   94.0960 C.3    57  ILE57       0.0019
     37  CD1       15.9420   44.6100   94.1250 C.3    57  ILE57       0.0001
     38  N          5.0000   52.9390   96.5270 N.3    64  ARG64      -0.1231
     39  CA         6.4520   52.8740   96.5180 C.3    64  ARG64       0.1694
     40  C          6.9290   52.2430   95.2150 C.2    64  ARG64       0.2591
     41  O          7.9050   52.6910   94.6160 O.2    64  ARG64      -0.2718
     42  CB         6.9410   52.0510   97.7050 C.3    64  ARG64       0.0321
     43  CG         6.6720   52.6910   99.0580 C.3    64  ARG64       0.0489
     44  CD         6.9100   51.6870  100.1610 C.3    64  ARG64       0.2205
     45  NE         8.1710   50.9810   99.9690 N.pl3  64  ARG64      -0.0865
     46  CZ         8.4980   49.8590  100.5980 C.cat  64  ARG64       0.5346
     47  NH1        7.6490   49.3190  101.4650 N.pl3  64  ARG64       0.1354
     48  NH2        9.6630   49.2690  100.3500 N.pl3  64  ARG64       0.1354
     49  N          6.2350   51.1980   94.7810 N.am   65  ILE65      -0.1980
     50  CA         6.5930   50.5210   93.5410 C.3    65  ILE65       0.1595
     51  C          6.3450   51.4610   92.3710 C.2    65  ILE65       0.2287
     52  O          7.2190   51.6530   91.5250 O.2    65  ILE65      -0.2864
     53  CB         5.7680   49.2250   93.3510 C.3    65  ILE65       0.0276
     54  CG1        6.2150   48.1810   94.3780 C.3    65  ILE65       0.0022
     55  CG2        5.9320   48.6920   91.9280 C.3    65  ILE65       0.0022
     56  CD1        5.4220   46.8950   94.3360 C.3    65  ILE65       0.0001
     57  N          8.7720   54.0440   92.1880 N.3    68  GLY68      -0.1210
     58  CA        10.0670   53.4670   91.8800 C.3    68  GLY68       0.1956
     59  C         10.2120   53.3920   90.3720 C.2    68  GLY68       0.2612
     60  O         11.2830   53.6550   89.8230 O.2    68  GLY68      -0.2717
     61  N          9.1220   53.0250   89.7030 N.am   69  CYS69      -0.1970
     62  CA         9.1120   52.9350   88.2470 C.3    69  CYS69       0.1712
     63  C          9.3240   54.3310   87.6790 C.2    69  CYS69       0.2296
     64  O         10.0420   54.5040   86.6980 O.2    69  CYS69      -0.2864
     65  CB         7.7750   52.3850   87.7450 C.3    69  CYS69       0.0983
     66  SG         7.4600   50.6510   88.1600 S.3    69  CYS69      -0.0798
     67  N         12.9200   55.2730   87.8270 N.3    72  ARG72      -0.1231
     68  CA        13.6750   54.5560   86.8050 C.3    72  ARG72       0.1694
     69  C         13.4170   55.2500   85.4680 C.2    72  ARG72       0.2592
     70  O         14.3120   55.3510   84.6280 O.2    72  ARG72      -0.2718
     71  CB        13.2360   53.0850   86.7290 C.3    72  ARG72       0.0321
     72  CG        13.7400   52.3300   85.4980 C.3    72  ARG72       0.0489
     73  CD        15.2590   52.4140   85.3360 C.3    72  ARG72       0.2205
     74  NE        15.6720   51.8970   84.0310 N.pl3  72  ARG72      -0.0865
     75  CZ        16.6620   52.4050   83.3010 C.cat  72  ARG72       0.5346
     76  NH1       17.3520   53.4440   83.7430 N.pl3  72  ARG72       0.1354
     77  NH2       16.9490   51.8820   82.1160 N.pl3  72  ARG72       0.1354
     78  N         12.1950   55.7370   85.2710 N.am   73  SER73      -0.1952
     79  CA        11.8600   56.4250   84.0280 C.3    73  SER73       0.1924
     80  C         12.6990   57.6920   83.8860 C.2    73  SER73       0.2314
     81  O         13.1600   58.0190   82.7950 O.2    73  SER73      -0.2863
     82  CB        10.3690   56.7750   83.9880 C.3    73  SER73       0.2116
     83  OG         9.5860   55.5960   83.8800 O.3    73  SER73      -0.2180
     84  N          8.8190   58.0220   76.1670 N.3   107  HIS107     -0.1241
     85  CA         8.0790   56.8850   76.7080 C.3   107  HIS107      0.1621
     86  C          8.0020   55.7070   75.7440 C.2   107  HIS107      0.2264
     87  O          8.0430   54.5500   76.1670 O.2   107  HIS107     -0.2867
     88  CB         6.6760   57.3030   77.1540 C.3   107  HIS107      0.0745
     89  CG         6.6640   57.9960   78.4790 C.ar  107  HIS107      0.0817
     90  ND1        6.9910   59.3260   78.6260 N.ar  107  HIS107     -0.2268
     91  CD2        6.4460   57.5220   79.7290 C.ar  107  HIS107      0.1154
     92  CE1        6.9770   59.6420   79.9090 C.ar  107  HIS107      0.1986
     93  NE2        6.6500   58.5650   80.5990 N.ar  107  HIS107     -0.2212
     94  N         11.2180   54.1090   76.2040 N.3   110  ILE110     -0.1231
     95  CA        11.2710   53.4420   77.5040 C.3   110  ILE110      0.1692
     96  C         10.5800   52.0820   77.4420 C.2   110  ILE110      0.2592
     97  O         11.1110   51.0900   77.9360 O.2   110  ILE110     -0.2718
     98  CB        10.6010   54.2880   78.6160 C.3   110  ILE110      0.0266
     99  CG1       11.4580   55.5190   78.9160 C.3   110  ILE110      0.0019
    100  CG2       10.4330   53.4450   79.8920 C.3   110  ILE110      0.0020
    101  CD1       10.7940   56.5230   79.8500 C.3   110  ILE110      0.0001
    102  N          9.4020   52.0190   76.8260 N.am  111  TYR111     -0.1976
    103  CA         8.7170   50.7400   76.7680 C.3   111  TYR111      0.1639
    104  C          9.3830   49.7500   75.8250 C.2   111  TYR111      0.2290
    105  O          9.2960   48.5400   76.0310 O.2   111  TYR111     -0.2864
    106  CB         7.2350   50.9540   76.4520 C.3   111  TYR111      0.0560
    107  CG         6.5790   51.7210   77.5740 C.ar  111  TYR111     -0.0198
    108  CD1        6.8450   51.3870   78.9050 C.ar  111  TYR111     -0.0009
    109  CD2        5.7720   52.8250   77.3230 C.ar  111  TYR111     -0.0009
    110  CE1        6.3340   52.1390   79.9540 C.ar  111  TYR111      0.0417
    111  CE2        5.2530   53.5870   78.3730 C.ar  111  TYR111      0.0417
    112  CZ         5.5420   53.2370   79.6820 C.ar  111  TYR111      0.1957
    113  OH         5.0580   53.9890   80.7280 O.3   111  TYR111     -0.2866
    114  N         12.2940   48.4800   77.9320 N.3   114  LEU114     -0.1245
    115  CA        11.8280   47.7200   79.0890 C.3   114  LEU114      0.1561
    116  C         11.5990   46.2690   78.6660 C.2   114  LEU114      0.2260
    117  O         11.8890   45.3390   79.4200 O.2   114  LEU114     -0.2867
    118  CB        10.5280   48.3180   79.6260 C.3   114  LEU114      0.0270
    119  CG         9.9020   47.7010   80.8840 C.3   114  LEU114      0.0019
    120  CD1       10.8730   47.7730   82.0550 C.3   114  LEU114      0.0001
    121  CD2        8.6170   48.4530   81.2190 C.3   114  LEU114      0.0001
    122  N         14.2210   43.8580   79.2080 N.3   117  LEU117     -0.1245
    123  CA        14.4080   43.3960   80.5820 C.3   117  LEU117      0.1561
    124  C         13.2790   42.5030   81.0880 C.2   117  LEU117      0.2260
    125  O         13.2870   42.0910   82.2510 O.2   117  LEU117     -0.2867
    126  CB        14.5350   44.5940   81.5280 C.3   117  LEU117      0.0270
    127  CG        15.5250   45.7130   81.1940 C.3   117  LEU117      0.0019
    128  CD1       15.5550   46.7000   82.3520 C.3   117  LEU117      0.0001
    129  CD2       16.9110   45.1470   80.9610 C.3   117  LEU117      0.0001
    130  N         10.2090   41.1320   85.4920 N.3   123  VAL123     -0.1231
    131  CA        11.0870   42.1680   84.9560 C.3   123  VAL123      0.1692
    132  C         12.3060   42.4760   85.8340 C.2   123  VAL123      0.2592
    133  O         12.2200   42.4870   87.0650 O.2   123  VAL123     -0.2718
    134  CB        10.2780   43.4650   84.7440 C.3   123  VAL123      0.0266
    135  CG1        9.7120   43.9450   86.0780 C.3   123  VAL123      0.0020
    136  CG2       11.1410   44.5340   84.1000 C.3   123  VAL123      0.0020
    137  N         13.4440   42.7160   85.1910 N.am  124  LEU124     -0.1966
    138  CA        14.6700   43.0480   85.9060 C.3   124  LEU124      0.1728
    139  C         14.5710   44.4820   86.3960 C.2   124  LEU124      0.2616
    140  O         14.0760   45.3580   85.6830 O.2   124  LEU124     -0.2715
    141  CB        15.8860   42.9100   84.9880 C.3   124  LEU124      0.0311
    142  CG        16.2400   41.5030   84.5150 C.3   124  LEU124      0.0022
    143  CD1       17.4030   41.5880   83.5400 C.3   124  LEU124      0.0001
    144  CD2       16.6030   40.6220   85.7080 C.3   124  LEU124      0.0001
    145  N         15.0440   44.7220   87.6130 N.am  125  ILE125     -0.1963
    146  CA        15.0000   46.0550   88.1830 C.3   125  ILE125      0.1727
    147  C         16.3800   46.4930   88.6660 C.2   125  ILE125      0.2616
    148  O         17.2340   45.6640   88.9760 O.2   125  ILE125     -0.2715
    149  CB        13.9940   46.1230   89.3520 C.3   125  ILE125      0.0290
    150  CG1       14.3490   45.0790   90.4080 C.3   125  ILE125      0.0022
    151  CG2       12.5760   45.8840   88.8310 C.3   125  ILE125      0.0023
    152  CD1       13.3570   45.0000   91.5560 C.3   125  ILE125      0.0001
    153  N         16.5790   47.8050   88.7180 N.am  126  SER126     -0.1950
    154  CA        17.8410   48.3980   89.1400 C.3   126  SER126      0.1924
    155  C         19.0330   47.7260   88.4650 C.2   126  SER126      0.2314
    156  O         19.9280   47.2070   89.1260 O.2   126  SER126     -0.2863
    157  CB        17.9890   48.3220   90.6590 C.3   126  SER126      0.2116
    158  OG        19.1380   49.0420   91.0780 O.3   126  SER126     -0.2180
    159  N         11.4740   41.3650   89.6520 N.3   132  MET132     -0.1245
    160  CA        10.1510   41.4460   90.2500 C.3   132  MET132      0.1570
    161  C          9.1930   40.6670   89.3620 C.2   132  MET132      0.2261
    162  O          9.1210   40.9000   88.1490 O.2   132  MET132     -0.2867
    163  CB         9.7080   42.9040   90.3740 C.3   132  MET132      0.0387
    164  CG         8.4230   43.0870   91.1710 C.3   132  MET132      0.0595
    165  SD         8.0920   44.8140   91.5620 S.3   132  MET132     -0.1393
    166  CE         9.2890   45.0910   92.8790 C.3   132  MET132      0.0692
    167  N          3.3240   42.0440   90.6650 N.3   137  LEU137     -0.1245
    168  CA         2.9190   43.3560   90.1820 C.3   137  LEU137      0.1561
    169  C          1.4190   43.4560   89.9190 C.2   137  LEU137      0.2260
    170  O          0.8060   44.4840   90.2000 O.2   137  LEU137     -0.2867
    171  CB         3.7090   43.7160   88.9200 C.3   137  LEU137      0.0270
    172  CG         5.1760   44.0620   89.2040 C.3   137  LEU137      0.0019
    173  CD1        6.0080   43.9650   87.9280 C.3   137  LEU137      0.0001
    174  CD2        5.2500   45.4600   89.8060 C.3   137  LEU137      0.0001
    175  N         -1.0270   48.3610   86.2000 N.3   147  PHE147     -0.1227
    176  CA        -0.1040   49.3940   85.7500 C.3   147  PHE147      0.1736
    177  C          0.8530   48.8810   84.6760 C.2   147  PHE147      0.2595
    178  O          1.0220   49.5120   83.6310 O.2   147  PHE147     -0.2718
    179  CB         0.6940   49.9260   86.9450 C.3   147  PHE147      0.0547
    180  CG         1.7570   50.9230   86.5790 C.ar  147  PHE147     -0.0202
    181  CD1        1.4390   52.0720   85.8600 C.ar  147  PHE147     -0.0042
    182  CD2        3.0790   50.7230   86.9710 C.ar  147  PHE147     -0.0042
    183  CE1        2.4230   53.0090   85.5370 C.ar  147  PHE147     -0.0003
    184  CE2        4.0680   51.6540   86.6540 C.ar  147  PHE147     -0.0003
    185  CZ         3.7390   52.8000   85.9350 C.ar  147  PHE147     -0.0000
    186  N          1.4640   47.7270   84.9250 N.am  148  MET148     -0.1979
    187  CA         2.4300   47.1700   83.9840 C.3   148  MET148      0.1605
    188  C          1.9790   46.0420   83.0600 C.2   148  MET148      0.2287
    189  O          2.6420   45.7590   82.0610 O.2   148  MET148     -0.2864
    190  CB         3.6730   46.7130   84.7420 C.3   148  MET148      0.0413
    191  CG         4.5380   47.8500   85.2310 C.3   148  MET148      0.0598
    192  SD         6.0380   47.2330   85.9750 S.3   148  MET148     -0.1393
    193  CE         6.9300   46.6690   84.5130 C.3   148  MET148      0.0692
    194  N          2.2830   46.4610   79.4400 N.3   151  LYS151     -0.1245
    195  CA         3.6680   46.5290   78.9950 C.3   151  LYS151      0.1561
    196  C          4.2290   45.1190   78.8630 C.2   151  LYS151      0.2260
    197  O          5.0230   44.8490   77.9630 O.2   151  LYS151     -0.2867
    198  CB         4.5200   47.3460   79.9680 C.3   151  LYS151      0.0271
    199  CG         4.2930   48.8530   79.8780 C.3   151  LYS151      0.0035
    200  CD         3.3720   49.3560   80.9770 C.3   151  LYS151      0.0206
    201  CE         3.2460   50.8680   80.9310 C.3   151  LYS151      0.1093
    202  NZ         2.6110   51.4200   82.1540 N.3   151  LYS151     -0.1314
    203  N         -1.1920   54.5010   79.0660 N.3   233  HIS233     -0.1241
    204  CA        -0.4170   54.7870   80.2640 C.3   233  HIS233      0.1621
    205  C         -0.7920   56.1770   80.7790 C.2   233  HIS233      0.2264
    206  O         -1.0880   56.3610   81.9630 O.2   233  HIS233     -0.2867
    207  CB         1.0780   54.7200   79.9250 C.3   233  HIS233      0.0745
    208  CG         1.9790   55.1510   81.0370 C.ar  233  HIS233      0.0817
    209  ND1        2.1210   54.4330   82.2050 N.ar  233  HIS233     -0.2268
    210  CD2        2.7910   56.2280   81.1570 C.ar  233  HIS233      0.1154
    211  CE1        2.9810   55.0490   82.9960 C.ar  233  HIS233      0.1986
    212  NE2        3.4030   56.1410   82.3840 N.ar  233  HIS233     -0.2212
@<TRIPOS>BOND
     1    86    87    2
     2    86    85    1
     3   104   105    2
     4   104   103    1
     5    84    85    1
     6    94    95    1
     7   106   103    1
     8   106   107    1
     9    85    88    1
    10   103   102    1
    11   102    96   am
    12    88    89    1
    13   109   107   ar
    14   109   111   ar
    15    96    95    1
    16    96    97    2
    17    95    98    1
    18   107   108   ar
    19   114   115    1
    20   197   196    2
    21   111   112   ar
    22    89    90   ar
    23    89    91   ar
    24    98    99    1
    25    98   100    1
    26    90    92   ar
    27   116   115    1
    28   116   117    2
    29   196   195    1
    30   108   110   ar
    31    99   101    1
    32   195   194    1
    33   195   198    1
    34   203   204    1
    35   115   118    1
    36   122   123    1
    37   118   119    1
    38   112   110   ar
    39   112   113    1
    40    91    93   ar
    41   199   198    1
    42   199   200    1
    43    92    93   ar
    44   207   204    1
    45   207   208    1
    46   204   205    1
    47   123   124    1
    48   123   126    1
    49   205   206    2
    50   119   121    1
    51   119   120    1
    52   201   200    1
    53   201   202    1
    54   129   127    1
    55   208   210   ar
    56   208   209   ar
    57   124   125    2
    58   210   212   ar
    59   127   126    1
    60   127   128    1
    61   189   188    2
    62    77    75    1
    63   209   211   ar
    64   212   211   ar
    65    81    80    2
    66   188   187    1
    67    75    76    1
    68    75    74    2
    69   143   142    1
    70   178   177    2
    71    83    82    1
    72    80    79    1
    73   187   190    1
    74   187   186    1
    75    82    79    1
    76    79    78    1
    77    74    73    1
    78   136   134    1
    79   193   192    1
    80   142   141    1
    81   142   144    1
    82    70    69    2
    83   177   186   am
    84   177   176    1
    85   190   191    1
    86   134   131    1
    87   134   135    1
    88   131   130    1
    89   131   132    1
    90   141   138    1
    91   137   132   am
    92   137   138    1
    93   191   192    1
    94    78    69   am
    95    73    72    1
    96    69    68    1
    97    72    71    1
    98   183   181   ar
    99   183   185   ar
   100   140   139    2
   101   176   175    1
   102   176   179    1
   103   132   133    2
   104   181   180   ar
   105   138   139    1
   106   185   184   ar
   107   139   145   am
   108   180   179    1
   109   180   182   ar
   110   184   182   ar
   111    64    63    2
   112    71    68    1
   113    68    67    1
   114   145   146    1
   115    63    62    1
   116    65    66    1
   117    65    62    1
   118   173   172    1
   119   162   161    2
   120   146   147    1
   121   146   149    1
   122    62    61    1
   123   155   156    2
   124   155   154    1
   125   147   153   am
   126   147   148    2
   127   153   154    1
   128   151   149    1
   129   171   172    1
   130   171   168    1
   131   154   157    1
   132   172   174    1
   133   149   150    1
   134   161   160    1
   135   159   160    1
   136    61    59   am
   137    60    59    2
   138   169   168    1
   139   169   170    2
   140   168   167    1
   141   160   163    1
   142    59    58    1
   143   163   164    1
   144   150   152    1
   145   157   158    1
   146   164   165    1
   147    52    51    2
   148   165   166    1
   149    58    57    1
   150    55    53    1
   151    51    50    1
   152     4     3    2
   153    53    50    1
   154    53    54    1
   155    50    49    1
   156     1     2    1
   157     3     2    1
   158    36    34    1
   159    37    35    1
   160    56    54    1
   161     5     2    1
   162     5     6    1
   163     5     7    1
   164    41    40    2
   165    49    40   am
   166    35    34    1
   167     8     6    1
   168    40    39    1
   169    34    31    1
   170    33    32    2
   171    31    32    1
   172    31    30    1
   173    39    38    1
   174    39    42    1
   175    15    14    1
   176    42    43    1
   177    16    14    1
   178    14    13    1
   179    13    10    1
   180    20    19    2
   181    10     9    1
   182    10    11    1
   183    18    19    1
   184    18    17    1
   185    43    44    1
   186    19    21   am
   187    12    11    2
   188    21    22    1
   189    45    44    1
   190    45    46    2
   191    22    23    1
   192    22    25    1
   193    48    46    1
   194    46    47    1
   195    23    24    2
   196    25    26    1
   197    26    27    1
   198    27    28   ar
   199    27    29   ar
