@<TRIPOS>MOLECULE
tmp/5z72A00.pdb
 131 127 0 0 0
SMALL
GASTEIGER

@<TRIPOS>ATOM
      1  N        -29.1280   -0.8330   11.6740 N.3     8  ALA8       -0.1231
      2  CA       -30.0790    0.2030   11.8800 C.3     8  ALA8        0.1694
      3  C        -29.9260    1.1800   10.7270 C.2     8  ALA8        0.2593
      4  O        -28.7880    1.4640   10.3100 O.2     8  ALA8       -0.2718
      5  CB       -29.8590    0.9000   13.2440 C.3     8  ALA8        0.0304
      6  N        -31.0520    1.7120   10.2470 N.am    9  SER9       -0.1938
      7  CA       -31.1010    2.4510    8.9480 C.3     9  SER9        0.2055
      8  C        -30.1910    3.6030    8.8140 C.2     9  SER9        0.2642
      9  O        -29.4720    3.6610    7.8240 O.2     9  SER9       -0.2714
     10  CB       -32.4960    2.9790    8.6790 C.3     9  SER9        0.2130
     11  OG       -33.3350    1.8710    8.4500 O.3     9  SER9       -0.2179
     12  N        -30.2170    4.5170    9.8010 N.am   10  ILE10      -0.1977
     13  CA       -29.3880    5.7160    9.7180 C.3    10  ILE10       0.1596
     14  C        -27.9200    5.3560    9.8130 C.2    10  ILE10       0.2287
     15  O        -27.0860    6.0650    9.2860 O.2    10  ILE10      -0.2864
     16  CB       -29.6850    6.7770   10.8260 C.3    10  ILE10       0.0276
     17  CG1      -29.4350    6.2030   12.2360 C.3    10  ILE10       0.0022
     18  CG2      -31.0600    7.2740   10.7000 C.3    10  ILE10       0.0022
     19  CD1      -29.7810    7.1430   13.3930 C.3    10  ILE10       0.0001
     20  N        -32.7910   -1.5130    8.6780 N.3    37  GLY37      -0.1210
     21  CA       -34.1390   -1.2500    9.1630 C.3    37  GLY37       0.1956
     22  C        -34.2060   -0.6280   10.5290 C.2    37  GLY37       0.2612
     23  O        -33.2370   -0.0120   11.0150 O.2    37  GLY37      -0.2717
     24  N        -35.3720   -0.7610   11.1460 N.am   38  TRP38      -0.1962
     25  CA       -35.4980   -0.4020   12.5530 C.3    38  TRP38       0.1771
     26  C        -34.5560   -1.2100   13.4150 C.2    38  TRP38       0.2620
     27  O        -34.1930   -2.3350   13.0760 O.2    38  TRP38      -0.2715
     28  CB       -36.9220   -0.6260   13.0310 C.3    38  TRP38       0.0590
     29  CG       -37.8250    0.4020   12.5550 C.ar   38  TRP38       0.0006
     30  CD1      -37.4930    1.4530   11.7810 C.ar   38  TRP38       0.0946
     31  CD2      -39.2170    0.4940   12.7910 C.ar   38  TRP38       0.0152
     32  NE1      -38.5660    2.2290   11.5600 N.ar   38  TRP38      -0.2442
     33  CE2      -39.6570    1.6660   12.1660 C.ar   38  TRP38       0.0810
     34  CE3      -40.1370   -0.2820   13.4950 C.ar   38  TRP38       0.0012
     35  CZ2      -40.9950    2.0840   12.1970 C.ar   38  TRP38       0.0191
     36  CZ3      -41.4510    0.1320   13.5390 C.ar   38  TRP38       0.0001
     37  CH2      -41.8680    1.3100   12.8840 C.ar   38  TRP38       0.0015
     38  N        -34.1830   -0.6640   14.5600 N.am   39  SER39      -0.1936
     39  CA       -33.2660   -1.4140   15.4520 C.3    39  SER39       0.2055
     40  C        -33.9280   -2.7050   15.9220 C.2    39  SER39       0.2643
     41  O        -33.2930   -3.7500   15.9610 O.2    39  SER39      -0.2714
     42  CB       -32.8160   -0.5640   16.6720 C.3    39  SER39       0.2130
     43  OG       -31.7420    0.3100   16.2950 O.3    39  SER39      -0.2179
     44  N        -35.2180   -2.6550   16.2400 N.am   40  SER40      -0.1949
     45  CA       -35.9250   -3.8610   16.6810 C.3    40  SER40       0.1924
     46  C        -35.8580   -4.9600   15.5530 C.2    40  SER40       0.2314
     47  O        -35.6170   -6.1620   15.8170 O.2    40  SER40      -0.2863
     48  CB       -37.3620   -3.4980   17.0620 C.3    40  SER40       0.2116
     49  OG       -38.0910   -2.8870   15.9690 O.3    40  SER40      -0.2180
     50  N        -29.1840    0.4200   17.6250 N.3    57  ARG57      -0.1245
     51  CA       -29.1700    1.6290   18.4340 C.3    57  ARG57       0.1563
     52  C        -30.0400    1.4470   19.6550 C.2    57  ARG57       0.2260
     53  O        -30.8900    0.5620   19.6700 O.2    57  ARG57      -0.2867
     54  CB       -29.6590    2.8280   17.6360 C.3    57  ARG57       0.0307
     55  CG       -29.1640    2.8380   16.2830 C.3    57  ARG57       0.0489
     56  CD       -28.7240    4.1720   15.7730 C.3    57  ARG57       0.2205
     57  NE       -29.2900    5.3480   16.4130 N.pl3  57  ARG57      -0.0865
     58  CZ       -28.6100    6.4850   16.5570 C.cat  57  ARG57       0.5346
     59  NH1      -27.3480    6.5550   16.1440 N.pl3  57  ARG57       0.1354
     60  NH2      -29.1780    7.5490   17.1030 N.pl3  57  ARG57       0.1354
     61  N        -40.4490   11.6340   13.8800 N.3    97  PHE97      -0.1241
     62  CA       -40.1790   10.2330   13.5410 C.3    97  PHE97       0.1605
     63  C        -40.7970    9.3930   14.6190 C.2    97  PHE97       0.2264
     64  O        -40.8940    9.8430   15.7520 O.2    97  PHE97      -0.2867
     65  CB       -38.6820    9.9600   13.4030 C.3    97  PHE97       0.0534
     66  CG       -38.3170    8.5030   13.4730 C.ar   97  PHE97      -0.0203
     67  CD1      -38.3500    7.7070   12.3500 C.ar   97  PHE97      -0.0042
     68  CD2      -37.8950    7.9270   14.6780 C.ar   97  PHE97      -0.0042
     69  CE1      -37.9840    6.3490   12.4220 C.ar   97  PHE97      -0.0003
     70  CE2      -37.5340    6.5700   14.7550 C.ar   97  PHE97      -0.0003
     71  CZ       -37.5730    5.7850   13.6450 C.ar   97  PHE97      -0.0000
     72  N        -41.0430    5.0600   15.7380 N.3    99  SER99      -0.1202
     73  CA       -40.9070    3.6550   15.4920 C.3    99  SER99       0.2020
     74  C        -41.2630    2.9580   16.7330 C.2    99  SER99       0.2619
     75  O        -41.8230    3.5900   17.6270 O.2    99  SER99      -0.2717
     76  CB       -39.4970    3.3180   15.0700 C.3    99  SER99       0.2103
     77  OG       -38.6210    3.6580   16.0860 O.3    99  SER99      -0.2182
     78  N        -40.9220    1.6740   16.8310 N.am  100  ASP100     -0.1959
     79  CA       -41.0820    0.9820   18.1100 C.3   100  ASP100      0.1840
     80  C        -39.8390    1.1030   19.0350 C.2   100  ASP100      0.2622
     81  O        -39.8320    0.5920   20.1340 O.2   100  ASP100     -0.2715
     82  CB       -41.4450   -0.4860   17.8960 C.3   100  ASP100      0.1450
     83  CG       -40.3470   -1.2910   17.2400 C.2   100  ASP100      0.3671
     84  OD1      -39.3940   -0.6820   16.7130 O.co2 100  ASP100     -0.2456
     85  OD2      -40.4630   -2.5440   17.2330 O.co2 100  ASP100     -0.2456
     86  N        -38.8040    1.8080   18.6200 N.am  101  SER101     -0.1950
     87  CA       -37.7170    2.1240   19.5410 C.3   101  SER101      0.1924
     88  C        -38.2040    3.1700   20.5300 C.2   101  SER101      0.2314
     89  O        -39.3750    3.5700   20.4440 O.2   101  SER101     -0.2863
     90  CB       -36.4990    2.6360   18.7800 C.3   101  SER101      0.2116
     91  OG       -36.6350    4.0090   18.4380 O.3   101  SER101     -0.2180
     92  N        -36.7690    6.2840   20.7590 N.3   103  TYR103     -0.1241
     93  CA       -36.5110    7.6420   20.2040 C.3   103  TYR103      0.1605
     94  C        -37.6750    8.6220   20.4690 C.2   103  TYR103      0.2264
     95  O        -37.5360    9.7440   20.9930 O.2   103  TYR103     -0.2867
     96  CB       -36.2790    7.5600   18.6580 C.3   103  TYR103      0.0534
     97  CG       -35.6080    8.7810   18.0130 C.ar  103  TYR103     -0.0201
     98  CD1      -34.2230    8.9270   18.0280 C.ar  103  TYR103     -0.0009
     99  CD2      -36.3440    9.7890   17.4420 C.ar  103  TYR103     -0.0009
    100  CE1      -33.5870   10.0390   17.4530 C.ar  103  TYR103      0.0417
    101  CE2      -35.7150   10.9170   16.8580 C.ar  103  TYR103      0.0417
    102  CZ       -34.3450   11.0290   16.8700 C.ar  103  TYR103      0.1957
    103  OH       -33.7100   12.1280   16.2960 O.3   103  TYR103     -0.2866
    104  N        -39.4850    6.7770    9.0940 N.3   127  GLN127     -0.1231
    105  CA       -38.0550    6.6580    8.9240 C.3   127  GLN127      0.1698
    106  C        -37.4810    8.0270    9.0880 C.2   127  GLN127      0.2592
    107  O        -38.1050    9.0130    8.7650 O.2   127  GLN127     -0.2718
    108  CB       -37.6430    6.0790    7.5760 C.3   127  GLN127      0.0381
    109  CG       -37.9280    4.6000    7.3420 C.3   127  GLN127      0.0905
    110  CD       -37.0290    3.6420    8.0980 C.2   127  GLN127      0.2608
    111  OE1      -36.1180    4.0330    8.8420 O.2   127  GLN127     -0.2717
    112  NE2      -37.2780    2.3620    7.8950 N.am  127  GLN127     -0.0878
    113  N        -36.2790    8.0670    9.6310 N.am  128  ILE128     -0.1980
    114  CA       -35.6490    9.3090   10.0740 C.3   128  ILE128      0.1595
    115  C        -35.1690   10.1580    8.9180 C.2   128  ILE128      0.2287
    116  O        -35.3170   11.3910    8.9290 O.2   128  ILE128     -0.2864
    117  CB       -34.4430    9.0240   11.0340 C.3   128  ILE128      0.0276
    118  CG1      -34.9540    8.7560   12.4570 C.3   128  ILE128      0.0022
    119  CG2      -33.4310   10.1980   11.0860 C.3   128  ILE128      0.0022
    120  CD1      -33.9170    8.1790   13.4150 C.3   128  ILE128      0.0001
    121  N        -27.9380    9.2250   22.1090 N.3   168  ARG168     -0.1245
    122  CA       -28.3400    7.8920   21.7380 C.3   168  ARG168      0.1563
    123  C        -27.1060    7.0440   21.3970 C.2   168  ARG168      0.2260
    124  O        -26.1770    7.4950   20.6840 O.2   168  ARG168     -0.2867
    125  CB       -29.3120    7.9790   20.5660 C.3   168  ARG168      0.0307
    126  CG       -30.3530    6.9690   20.6560 C.3   168  ARG168      0.0489
    127  CD       -31.6550    7.3860   20.1160 C.3   168  ARG168      0.2205
    128  NE       -32.4580    6.1700   20.0100 N.pl3 168  ARG168     -0.0865
    129  CZ       -33.1590    5.6380   21.0080 C.cat 168  ARG168      0.5346
    130  NH1      -33.2220    6.2610   22.1740 N.pl3 168  ARG168      0.1354
    131  NH2      -33.8360    4.5060   20.8150 N.pl3 168  ARG168      0.1354
@<TRIPOS>BOND
     1   109   108    1
     2   109   110    1
     3   108   105    1
     4     9     8    2
     5   112   110   am
     6   110   111    2
     7    11    10    1
     8    20    21    1
     9    10     7    1
    10   107   106    2
    11     8     7    1
    12     8    12   am
    13   115   116    2
    14   115   114    1
    15   105   106    1
    16   105   104    1
    17     7     6    1
    18   106   113   am
    19    21    22    1
    20    15    14    2
    21   113   114    1
    22    13    12    1
    23    13    14    1
    24    13    16    1
    25   114   117    1
    26     6     3   am
    27     4     3    2
    28    22    23    2
    29    22    24   am
    30    18    16    1
    31     3     2    1
    32    16    17    1
    33   117   119    1
    34   117   118    1
    35    24    25    1
    36    32    30   ar
    37    32    33   ar
    38     1     2    1
    39    30    29   ar
    40     2     5    1
    41    33    35   ar
    42    33    31   ar
    43    35    37   ar
    44    17    19    1
    45    67    69   ar
    46    67    66   ar
    47    69    71   ar
    48   118   120    1
    49    25    28    1
    50    25    26    1
    51    29    31   ar
    52    29    28    1
    53    31    34   ar
    54    37    36   ar
    55    27    26    2
    56    65    66    1
    57    65    62    1
    58    26    38   am
    59    66    68   ar
    60    34    36   ar
    61    62    61    1
    62    62    63    1
    63    71    70   ar
    64    38    39    1
    65    63    64    2
    66    68    70   ar
    67    76    73    1
    68    76    77    1
    69    39    40    1
    70    39    42    1
    71    73    72    1
    72    73    74    1
    73    46    47    2
    74    46    45    1
    75    56    55    1
    76    56    57    1
    77    40    41    2
    78    40    44   am
    79    49    48    1
    80    59    58    1
    81    44    45    1
    82    55    54    1
    83    43    42    1
    84   103   102    1
    85    57    58    2
    86    58    60    1
    87    45    48    1
    88    84    83   ar
    89    74    78   am
    90    74    75    2
    91    78    79    1
    92   101   102   ar
    93   101    99   ar
    94   102   100   ar
    95    85    83   ar
    96    83    82    1
    97    99    97   ar
    98   100    98   ar
    99    50    51    1
   100    54    51    1
   101    82    79    1
   102    97    98   ar
   103    97    96    1
   104    79    80    1
   105    51    52    1
   106    91    90    1
   107    86    80   am
   108    86    87    1
   109    96    93    1
   110    90    87    1
   111    80    81    2
   112    87    88    1
   113    52    53    2
   114   128   127    1
   115   128   129    2
   116   127   126    1
   117    93    94    1
   118    93    92    1
   119    89    88    2
   120    94    95    2
   121   125   126    1
   122   125   122    1
   123   124   123    2
   124   131   129    1
   125   129   130    1
   126   123   122    1
   127   122   121    1
