@<TRIPOS>MOLECULE
tmp/5z74B00.pdb
 167 161 0 0 0
SMALL
GASTEIGER

@<TRIPOS>ATOM
      1  N         60.4170  -23.1350   20.2360 N.3    27  ALA27      -0.1245
      2  CA        60.6670  -21.7210   20.5160 C.3    27  ALA27       0.1562
      3  C         62.1030  -21.4950   20.9800 C.2    27  ALA27       0.2260
      4  O         62.7460  -20.5110   20.6000 O.2    27  ALA27      -0.2867
      5  CB        59.6880  -21.2120   21.5630 C.3    27  ALA27       0.0290
      6  N         57.2930  -27.8760   21.8440 N.3    34  GLN34      -0.1245
      7  CA        56.3730  -26.7310   21.6550 C.3    34  GLN34       0.1566
      8  C         56.6650  -25.8040   20.4660 C.2    34  GLN34       0.2260
      9  O         57.6480  -25.0670   20.4820 O.2    34  GLN34      -0.2867
     10  CB        56.3460  -25.8820   22.9200 C.3    34  GLN34       0.0367
     11  CG        55.1670  -24.9310   22.9820 C.3    34  GLN34       0.0905
     12  CD        55.1510  -24.1290   24.2670 C.2    34  GLN34       0.2608
     13  OE1       56.1590  -23.5410   24.6520 O.2    34  GLN34      -0.2717
     14  NE2       54.0080  -24.1010   24.9380 N.am   34  GLN34      -0.0878
     15  N         55.4570  -22.4930   18.4420 N.3    36  PHE36      -0.1241
     16  CA        54.6430  -21.2740   18.3240 C.3    36  PHE36       0.1605
     17  C         54.5030  -20.8540   16.8680 C.2    36  PHE36       0.2264
     18  O         55.4860  -20.7880   16.1350 O.2    36  PHE36      -0.2867
     19  CB        55.2490  -20.1130   19.1120 C.3    36  PHE36       0.0534
     20  CG        54.9050  -20.1280   20.5710 C.ar   36  PHE36      -0.0203
     21  CD1       55.6020  -20.9440   21.4460 C.ar   36  PHE36      -0.0042
     22  CD2       53.8880  -19.3230   21.0740 C.ar   36  PHE36      -0.0042
     23  CE1       55.2940  -20.9650   22.7960 C.ar   36  PHE36      -0.0003
     24  CE2       53.5750  -19.3380   22.4270 C.ar   36  PHE36      -0.0003
     25  CZ        54.2780  -20.1660   23.2880 C.ar   36  PHE36      -0.0000
     26  N         53.6670  -17.8700   15.4540 N.3    38  ARG38      -0.1231
     27  CA        54.3550  -16.6270   15.0980 C.3    38  ARG38       0.1694
     28  C         55.8670  -16.8280   15.0490 C.2    38  ARG38       0.2592
     29  O         56.5240  -16.3030   14.1540 O.2    38  ARG38      -0.2718
     30  CB        53.9920  -15.4640   16.0340 C.3    38  ARG38       0.0321
     31  CG        54.5380  -15.5520   17.4530 C.3    38  ARG38       0.0489
     32  CD        54.2170  -14.2780   18.2130 C.3    38  ARG38       0.2205
     33  NE        52.7870  -14.1880   18.4830 N.pl3  38  ARG38      -0.0865
     34  CZ        52.1710  -14.7640   19.5120 C.cat  38  ARG38       0.5346
     35  NH1       52.8520  -15.4860   20.3970 N.pl3  38  ARG38       0.1354
     36  NH2       50.8580  -14.6220   19.6550 N.pl3  38  ARG38       0.1354
     37  N         56.4070  -17.5910   15.9990 N.am   39  ASP39      -0.1974
     38  CA        57.8380  -17.9190   16.0010 C.3    39  ASP39       0.1709
     39  C         58.2490  -18.7090   14.7610 C.2    39  ASP39       0.2293
     40  O         59.3450  -18.5220   14.2360 O.2    39  ASP39      -0.2864
     41  CB        58.2220  -18.7230   17.2410 C.3    39  ASP39       0.1436
     42  CG        58.0820  -17.9230   18.5150 C.2    39  ASP39       0.3671
     43  OD1       57.0000  -17.3430   18.7140 O.co2  39  ASP39      -0.2456
     44  OD2       59.0400  -17.8780   19.3180 O.co2  39  ASP39      -0.2456
     45  N         47.8910  -17.5470   31.4450 N.3   107  ILE107     -0.1245
     46  CA        47.7160  -16.4700   32.4190 C.3   107  ILE107      0.1561
     47  C         46.7150  -15.4470   31.8900 C.2   107  ILE107      0.2260
     48  O         46.0660  -14.7580   32.6670 O.2   107  ILE107     -0.2867
     49  CB        49.0490  -15.7990   32.8390 C.3   107  ILE107      0.0252
     50  CG1       49.7090  -15.0490   31.6790 C.3   107  ILE107      0.0019
     51  CG2       49.9970  -16.8400   33.4270 C.3   107  ILE107      0.0019
     52  CD1       50.8190  -14.1230   32.1350 C.3   107  ILE107      0.0001
     53  N         52.9570   -9.2010   21.2600 N.3   169  ILE169     -0.1231
     54  CA        52.8260   -8.6680   22.6140 C.3   169  ILE169      0.1692
     55  C         51.5830   -9.3120   23.2070 C.2   169  ILE169      0.2592
     56  O         50.4590   -8.8810   22.9500 O.2   169  ILE169     -0.2718
     57  CB        52.7360   -7.1280   22.6160 C.3   169  ILE169      0.0266
     58  CG1       54.0580   -6.5440   22.1040 C.3   169  ILE169      0.0019
     59  CG2       52.4350   -6.5920   24.0160 C.3   169  ILE169      0.0020
     60  CD1       53.9810   -5.1010   21.6630 C.3   169  ILE169      0.0001
     61  N         51.7970  -10.3720   23.9760 N.am  170  ASP170     -0.1960
     62  CA        50.6960  -11.1630   24.5070 C.3   170  ASP170      0.1840
     63  C         50.5530  -10.9900   26.0210 C.2   170  ASP170      0.2621
     64  O         50.0920  -11.8900   26.7150 O.2   170  ASP170     -0.2715
     65  CB        50.8330  -12.6410   24.1080 C.3   170  ASP170      0.1450
     66  CG        52.1880  -13.2420   24.4670 C.2   170  ASP170      0.3671
     67  OD1       53.1000  -12.5130   24.9020 O.co2 170  ASP170     -0.2456
     68  OD2       52.3430  -14.4660   24.2940 O.co2 170  ASP170     -0.2456
     69  N         50.9600   -9.8210   26.5110 N.am  171  ARG171     -0.1977
     70  CA        50.6860   -9.3930   27.8810 C.3   171  ARG171      0.1597
     71  C         50.0890   -7.9890   27.8310 C.2   171  ARG171      0.2287
     72  O         49.9960   -7.3780   26.7590 O.2   171  ARG171     -0.2864
     73  CB        51.9570   -9.4450   28.7300 C.3   171  ARG171      0.0334
     74  CG        52.5190  -10.8570   28.8470 C.3   171  ARG171      0.0492
     75  CD        53.9050  -10.8980   29.4700 C.3   171  ARG171      0.2205
     76  NE        53.8920  -10.6280   30.9090 N.pl3 171  ARG171     -0.0865
     77  CZ        53.8710  -11.5580   31.8690 C.cat 171  ARG171      0.5346
     78  NH1       53.8560  -12.8550   31.5750 N.pl3 171  ARG171      0.1354
     79  NH2       53.8670  -11.1900   33.1440 N.pl3 171  ARG171      0.1354
     80  N         57.3210   -8.4340   34.5180 N.3   341  LYS341     -0.1245
     81  CA        58.0710   -8.7790   33.3270 C.3   341  LYS341      0.1561
     82  C         58.2120   -7.6140   32.3550 C.2   341  LYS341      0.2260
     83  O         59.1490   -7.5620   31.5880 O.2   341  LYS341     -0.2867
     84  CB        57.5380  -10.0210   32.6290 C.3   341  LYS341      0.0271
     85  CG        58.3380  -10.3480   31.3790 C.3   341  LYS341      0.0035
     86  CD        58.0880  -11.7410   30.8300 C.3   341  LYS341      0.0206
     87  CE        59.3320  -12.5970   30.9250 C.3   341  LYS341      0.1093
     88  NZ        59.2480  -13.8080   30.0680 N.3   341  LYS341     -0.1314
     89  N         61.6110   -6.4760   27.6920 N.3   347  TYR347     -0.1227
     90  CA        60.6390   -7.3950   27.1040 C.3   347  TYR347      0.1736
     91  C         59.7020   -6.6490   26.1360 C.2   347  TYR347      0.2595
     92  O         60.1860   -6.0110   25.2020 O.2   347  TYR347     -0.2718
     93  CB        59.9070   -8.1650   28.2210 C.3   347  TYR347      0.0548
     94  CG        59.3900   -9.5330   27.8100 C.ar  347  TYR347     -0.0200
     95  CD1       60.2390  -10.4540   27.2130 C.ar  347  TYR347     -0.0009
     96  CD2       58.0670   -9.9170   28.0400 C.ar  347  TYR347     -0.0009
     97  CE1       59.8010  -11.7050   26.8410 C.ar  347  TYR347      0.0417
     98  CE2       57.6170  -11.1780   27.6690 C.ar  347  TYR347      0.0417
     99  CZ        58.4950  -12.0640   27.0650 C.ar  347  TYR347      0.1957
    100  OH        58.1000  -13.3230   26.6820 O.3   347  TYR347     -0.2866
    101  N         58.3870   -6.7120   26.3470 N.am  348  HIS348     -0.1975
    102  CA        57.4280   -6.0280   25.4680 C.3   348  HIS348      0.1656
    103  C         57.4620   -4.5110   25.5940 C.2   348  HIS348      0.2291
    104  O         57.1410   -3.8010   24.6420 O.2   348  HIS348     -0.2864
    105  CB        56.0050   -6.5110   25.7400 C.3   348  HIS348      0.0771
    106  CG        55.8140   -7.9700   25.4960 C.ar  348  HIS348      0.0820
    107  ND1       55.0250   -8.7640   26.2980 N.ar  348  HIS348     -0.2267
    108  CD2       56.3230   -8.7840   24.5430 C.ar  348  HIS348      0.1154
    109  CE1       55.0490  -10.0030   25.8470 C.ar  348  HIS348      0.1986
    110  NE2       55.8350  -10.0440   24.7870 N.ar  348  HIS348     -0.2212
    111  N         64.3000   -6.8200   20.3320 N.3   353  TRP353     -0.1241
    112  CA        63.9880   -8.1700   19.8860 C.3   353  TRP353      0.1605
    113  C         64.6830   -8.4480   18.5650 C.2   353  TRP353      0.2264
    114  O         64.2580   -7.9420   17.5220 O.2   353  TRP353     -0.2867
    115  CB        62.4780   -8.3290   19.7160 C.3   353  TRP353      0.0550
    116  CG        61.7660   -8.3060   21.0100 C.ar  353  TRP353      0.0003
    117  CD1       61.5820   -7.2250   21.8180 C.ar  353  TRP353      0.0946
    118  CD2       61.1610   -9.4130   21.6750 C.ar  353  TRP353      0.0152
    119  NE1       60.8910   -7.5880   22.9430 N.ar  353  TRP353     -0.2442
    120  CE2       60.6190   -8.9280   22.8820 C.ar  353  TRP353      0.0810
    121  CE3       61.0230  -10.7710   21.3710 C.ar  353  TRP353      0.0012
    122  CZ2       59.9470   -9.7490   23.7820 C.ar  353  TRP353      0.0191
    123  CZ3       60.3570  -11.5860   22.2650 C.ar  353  TRP353      0.0001
    124  CH2       59.8270  -11.0730   23.4570 C.ar  353  TRP353      0.0015
    125  N         66.5940  -14.4280   23.3980 N.3   389  GLU389     -0.1245
    126  CA        65.2360  -14.0590   23.0000 C.3   389  GLU389      0.1567
    127  C         65.0740  -12.5490   22.8640 C.2   389  GLU389      0.2260
    128  O         64.4670  -12.0670   21.9050 O.2   389  GLU389     -0.2867
    129  CB        64.2720  -14.6060   24.0560 C.3   389  GLU389      0.0388
    130  CG        62.7950  -14.2670   23.9060 C.3   389  GLU389      0.1160
    131  CD        61.9840  -14.7640   25.0950 C.2   389  GLU389      0.3649
    132  OE1       62.5920  -15.2420   26.0820 O.co2 389  GLU389     -0.2457
    133  OE2       60.7380  -14.6850   25.0460 O.co2 389  GLU389     -0.2457
    134  N         65.4200  -16.2420   27.1520 N.3   404  ARG404     -0.1245
    135  CA        65.9110  -17.5950   26.9420 C.3   404  ARG404      0.1563
    136  C         67.0580  -17.5660   25.9550 C.2   404  ARG404      0.2260
    137  O         67.1390  -16.6750   25.1090 O.2   404  ARG404     -0.2867
    138  CB        64.8140  -18.5020   26.4150 C.3   404  ARG404      0.0307
    139  CG        63.7140  -18.7800   27.4180 C.3   404  ARG404      0.0489
    140  CD        62.5660  -19.4810   26.7240 C.3   404  ARG404      0.2205
    141  NE        61.8530  -18.5500   25.8550 N.pl3 404  ARG404     -0.0865
    142  CZ        60.8020  -18.8630   25.1040 C.cat 404  ARG404      0.5346
    143  NH1       60.2250  -17.9230   24.3640 N.pl3 404  ARG404      0.1354
    144  NH2       60.3200  -20.1010   25.0940 N.pl3 404  ARG404      0.1354
    145  N         67.0510  -18.8820   21.3500 N.3   407  GLN407     -0.1245
    146  CA        65.6890  -18.5860   20.9570 C.3   407  GLN407      0.1566
    147  C         65.6190  -18.7060   19.4350 C.2   407  GLN407      0.2260
    148  O         66.3390  -18.0150   18.7170 O.2   407  GLN407     -0.2867
    149  CB        65.2950  -17.1900   21.4200 C.3   407  GLN407      0.0367
    150  CG        63.8370  -16.8550   21.1580 C.3   407  GLN407      0.0905
    151  CD        62.8680  -17.5050   22.1210 C.2   407  GLN407      0.2608
    152  OE1       63.2310  -17.9230   23.2230 O.2   407  GLN407     -0.2717
    153  NE2       61.6090  -17.5840   21.7060 N.am  407  GLN407     -0.0878
    154  N         63.5330  -17.8680   16.9150 N.3   409  TRP409     -0.1241
    155  CA        63.2810  -16.7440   15.9950 C.3   409  TRP409      0.1605
    156  C         64.3950  -15.6950   16.0210 C.2   409  TRP409      0.2264
    157  O         64.5350  -14.9240   15.0750 O.2   409  TRP409     -0.2867
    158  CB        61.8670  -16.1400   16.0930 C.3   409  TRP409      0.0550
    159  CG        61.4240  -15.5270   17.3730 C.ar  409  TRP409      0.0003
    160  CD1       62.0930  -15.4710   18.5560 C.ar  409  TRP409      0.0946
    161  CD2       60.1560  -14.9110   17.5960 C.ar  409  TRP409      0.0152
    162  NE1       61.3220  -14.8360   19.5040 N.ar  409  TRP409     -0.2442
    163  CE2       60.1230  -14.4900   18.9380 C.ar  409  TRP409      0.0810
    164  CE3       59.0420  -14.6710   16.7820 C.ar  409  TRP409      0.0012
    165  CZ2       59.0210  -13.8340   19.4880 C.ar  409  TRP409      0.0191
    166  CZ3       57.9470  -14.0230   17.3280 C.ar  409  TRP409      0.0001
    167  CH2       57.9450  -13.6130   18.6710 C.ar  409  TRP409      0.0015
@<TRIPOS>BOND
     1    29    28    2
     2    40    39    2
     3    39    38    1
     4    28    27    1
     5    28    37   am
     6   157   156    2
     7    27    26    1
     8    27    30    1
     9   155   156    1
    10   155   158    1
    11   155   154    1
    12    37    38    1
    13    38    41    1
    14    30    31    1
    15   158   159    1
    16    18    17    2
    17   164   166   ar
    18   164   161   ar
    19    17    16    1
    20    41    42    1
    21   166   167   ar
    22   159   161   ar
    23   159   160   ar
    24    31    32    1
    25   114   113    2
    26   161   163   ar
    27    32    33    1
    28    16    15    1
    29    16    19    1
    30    33    34    2
    31    42    43   ar
    32    42    44   ar
    33   160   162   ar
    34   113   112    1
    35   167   165   ar
    36   148   147    2
    37   163   165   ar
    38   163   162   ar
    39    19    20    1
    40   147   146    1
    41    34    36    1
    42    34    35    1
    43   115   112    1
    44   115   116    1
    45   112   111    1
    46     1     2    1
    47     8     9    2
    48     8     7    1
    49     2     3    1
    50     2     5    1
    51    20    22   ar
    52    20    21   ar
    53     4     3    2
    54   146   145    1
    55   146   149    1
    56   116   118   ar
    57   116   117   ar
    58    22    24   ar
    59   150   149    1
    60   150   151    1
    61    53    54    1
    62   121   118   ar
    63   121   123   ar
    64    21    23   ar
    65     7     6    1
    66     7    10    1
    67    60    58    1
    68   118   120   ar
    69   153   151   am
    70   117   119   ar
    71   128   127    2
    72    58    57    1
    73   151   152    2
    74   123   124   ar
    75    24    25   ar
    76    54    57    1
    77    54    55    1
    78    57    59    1
    79    23    25   ar
    80   127   126    1
    81   120   119   ar
    82   120   122   ar
    83    10    11    1
    84    56    55    2
    85    11    12    1
    86   126   125    1
    87   126   129    1
    88    55    61   am
    89   124   122   ar
    90   130   129    1
    91   130   131    1
    92    61    62    1
    93    65    66    1
    94    65    62    1
    95    12    13    2
    96    12    14   am
    97    68    66   ar
    98   143   142    1
    99    66    67   ar
   100    62    63    1
   101   108   110   ar
   102   108   106   ar
   103   104   103    2
   104   110   109   ar
   105   133   131   ar
   106   144   142    1
   107   131   132   ar
   108   142   141    2
   109   137   136    2
   110    92    91    2
   111   102   103    1
   112   102   105    1
   113   102   101    1
   114   106   105    1
   115   106   107   ar
   116   109   107   ar
   117   141   140    1
   118   136   135    1
   119    63    69   am
   120    63    64    2
   121    91   101   am
   122    91    90    1
   123   138   135    1
   124   138   139    1
   125    69    70    1
   126   100    99    1
   127   140   139    1
   128    72    71    2
   129    97    99   ar
   130    97    95   ar
   131   135   134    1
   132    99    98   ar
   133    90    89    1
   134    90    93    1
   135    95    94   ar
   136    98    96   ar
   137    94    96   ar
   138    94    93    1
   139    71    70    1
   140    70    73    1
   141    73    74    1
   142    74    75    1
   143    75    76    1
   144    88    87    1
   145    86    87    1
   146    86    85    1
   147    76    77    2
   148    85    84    1
   149    45    46    1
   150    78    77    1
   151    83    82    2
   152    50    52    1
   153    50    49    1
   154    77    79    1
   155    47    46    1
   156    47    48    2
   157    82    81    1
   158    46    49    1
   159    84    81    1
   160    49    51    1
   161    81    80    1
