@<TRIPOS>MOLECULE
tmp/5z79C01.pdb
 168 163 0 0 0
SMALL
GASTEIGER

@<TRIPOS>ATOM
      1  N        -28.5620   20.2620   23.2200 N.3   158  LEU158     -0.1245
      2  CA       -29.1240   21.4980   23.7640 C.3   158  LEU158      0.1561
      3  C        -28.1120   22.6100   23.9390 C.2   158  LEU158      0.2260
      4  O        -28.4130   23.7660   23.6820 O.2   158  LEU158     -0.2867
      5  CB       -29.7380   21.2450   25.1280 C.3   158  LEU158      0.0270
      6  CG       -30.5030   22.4490   25.6530 C.3   158  LEU158      0.0019
      7  CD1      -31.7640   22.5950   24.8350 C.3   158  LEU158      0.0001
      8  CD2      -30.8380   22.3130   27.1230 C.3   158  LEU158      0.0001
      9  N        -27.7740   26.3140   21.9190 N.3   162  LYS162     -0.1245
     10  CA       -27.7040   27.6230   22.5520 C.3   162  LYS162      0.1561
     11  C        -26.4230   28.3150   22.1550 C.2   162  LYS162      0.2260
     12  O        -26.4120   29.5100   22.0240 O.2   162  LYS162     -0.2867
     13  CB       -27.8200   27.5240   24.0680 C.3   162  LYS162      0.0271
     14  CG       -29.1480   26.9560   24.5750 C.3   162  LYS162      0.0035
     15  CD       -30.3220   27.3100   23.6510 C.3   162  LYS162      0.0206
     16  CE       -31.6760   27.0200   24.3040 C.3   162  LYS162      0.1093
     17  NZ       -32.1500   28.1110   25.2280 N.3   162  LYS162     -0.1314
     18  N        -27.4730   29.7350   18.8340 N.3   165  GLU165     -0.1245
     19  CA       -28.2590   30.9210   19.1800 C.3   165  GLU165      0.1567
     20  C        -27.4230   32.1680   19.5550 C.2   165  GLU165      0.2260
     21  O        -27.6960   33.2600   19.0310 O.2   165  GLU165     -0.2867
     22  CB       -29.2310   30.6340   20.3240 C.3   165  GLU165      0.0388
     23  CG       -30.5080   29.9220   19.8940 C.3   165  GLU165      0.1160
     24  CD       -31.5590   29.8090   21.0330 C.2   165  GLU165      0.3649
     25  OE1      -31.8040   30.8280   21.7480 O.co2 165  GLU165     -0.2457
     26  OE2      -32.1620   28.6930   21.1960 O.co2 165  GLU165     -0.2457
     27  N        -38.0630   37.7740   19.1600 N.3   171  ARG171     -0.1245
     28  CA       -36.7780   37.1070   19.2360 C.3   171  ARG171      0.1563
     29  C        -36.2210   36.8740   17.8350 C.2   171  ARG171      0.2260
     30  O        -36.9720   36.6030   16.8830 O.2   171  ARG171     -0.2867
     31  CB       -36.9180   35.7630   19.9520 C.3   171  ARG171      0.0307
     32  CG       -37.2460   34.6560   18.9640 C.3   171  ARG171      0.0489
     33  CD       -37.3390   33.2820   19.5530 C.3   171  ARG171      0.2205
     34  NE       -38.5250   33.0540   20.3840 N.pl3 171  ARG171     -0.0865
     35  CZ       -38.5370   32.9960   21.7180 C.cat 171  ARG171      0.5346
     36  NH1      -37.4140   33.1710   22.4430 N.pl3 171  ARG171      0.1354
     37  NH2      -39.7080   32.7710   22.3340 N.pl3 171  ARG171      0.1354
     38  N        -34.6940   31.0830   17.7320 N.3   174  ASP174     -0.1225
     39  CA       -34.9560   30.1420   18.8160 C.3   174  ASP174      0.1805
     40  C        -34.8270   28.7450   18.2280 C.2   174  ASP174      0.2598
     41  O        -35.3790   28.4790   17.1630 O.2   174  ASP174     -0.2718
     42  CB       -36.3960   30.3500   19.2840 C.3   174  ASP174      0.1424
     43  CG       -36.7810   29.5490   20.5590 C.2   174  ASP174      0.3668
     44  OD1      -35.8690   29.2340   21.4330 O.co2 174  ASP174     -0.2456
     45  OD2      -38.0390   29.2640   20.7060 O.co2 174  ASP174     -0.2456
     46  N        -34.0920   27.8550   18.8910 N.am  175  ILE175     -0.1966
     47  CA       -34.0240   26.4590   18.4310 C.3   175  ILE175      0.1727
     48  C        -34.2130   25.5100   19.5940 C.2   175  ILE175      0.2616
     49  O        -33.4310   25.4900   20.5190 O.2   175  ILE175     -0.2715
     50  CB       -32.6860   26.0870   17.7710 C.3   175  ILE175      0.0290
     51  CG1      -32.2190   27.1250   16.7680 C.3   175  ILE175      0.0022
     52  CG2      -32.7990   24.7350   17.0950 C.3   175  ILE175      0.0023
     53  CD1      -30.8130   26.8410   16.2910 C.3   175  ILE175      0.0001
     54  N        -35.2560   24.7110   19.4990 N.am  176  ASP176     -0.1957
     55  CA       -35.6510   23.7840   20.5290 C.3   176  ASP176      0.1840
     56  C        -35.5400   22.3360   19.9640 C.2   176  ASP176      0.2621
     57  O        -35.6060   22.0960   18.7330 O.2   176  ASP176     -0.2715
     58  CB       -37.1100   24.0360   20.9630 C.3   176  ASP176      0.1450
     59  CG       -37.4250   25.5170   21.3700 C.2   176  ASP176      0.3671
     60  OD1      -36.7060   26.1300   22.2410 O.co2 176  ASP176     -0.2456
     61  OD2      -38.4780   26.0370   20.8620 O.co2 176  ASP176     -0.2456
     62  N        -35.3200   21.3880   20.8700 N.am  177  ILE177     -0.1977
     63  CA       -35.3330   19.9720   20.5610 C.3   177  ILE177      0.1596
     64  C        -36.6980   19.3980   20.8720 C.2   177  ILE177      0.2287
     65  O        -37.1210   19.3870   22.0140 O.2   177  ILE177     -0.2864
     66  CB       -34.2840   19.2150   21.3820 C.3   177  ILE177      0.0276
     67  CG1      -32.8950   19.7870   21.1180 C.3   177  ILE177      0.0022
     68  CG2      -34.3120   17.7470   21.0150 C.3   177  ILE177      0.0022
     69  CD1      -31.8200   19.2500   22.0460 C.3   177  ILE177      0.0001
     70  N        -28.2120   30.1480   30.3650 N.3   225  LYS225     -0.1231
     71  CA       -29.3140   30.1690   29.4170 C.3   225  LYS225      0.1693
     72  C        -30.0110   28.7920   29.4500 C.2   225  LYS225      0.2592
     73  O        -30.9000   28.5320   28.6240 O.2   225  LYS225     -0.2718
     74  CB       -28.8250   30.5150   28.0030 C.3   225  LYS225      0.0285
     75  CG       -27.5290   31.3250   27.9010 C.3   225  LYS225      0.0035
     76  CD       -27.6980   32.8470   28.0080 C.3   225  LYS225      0.0206
     77  CE       -26.3460   33.5750   28.0580 C.3   225  LYS225      0.1093
     78  NZ       -25.3620   33.1150   27.0250 N.3   225  LYS225     -0.1314
     79  N        -29.6070   27.9260   30.3960 N.am  226  ILE226     -0.1966
     80  CA       -30.1270   26.5500   30.4950 C.3   226  ILE226      0.1727
     81  C        -30.6580   26.2130   31.8880 C.2   226  ILE226      0.2616
     82  O        -29.9010   25.8910   32.7940 O.2   226  ILE226     -0.2715
     83  CB       -29.0630   25.5030   30.1010 C.3   226  ILE226      0.0290
     84  CG1      -28.6530   25.6990   28.6370 C.3   226  ILE226      0.0022
     85  CG2      -29.5890   24.0850   30.2980 C.3   226  ILE226      0.0023
     86  CD1      -27.4180   24.9180   28.2020 C.3   226  ILE226      0.0001
     87  N        -31.9700   26.2460   32.0570 N.am  227  GLU227     -0.1963
     88  CA       -32.5840   25.8820   33.3090 C.3   227  GLU227      0.1733
     89  C        -32.9000   24.4250   33.3260 C.2   227  GLU227      0.2616
     90  O        -32.5750   23.7570   34.2510 O.2   227  GLU227     -0.2715
     91  CB       -33.8790   26.6550   33.5690 C.3   227  GLU227      0.0429
     92  CG       -34.3310   26.6080   35.0310 C.3   227  GLU227      0.1163
     93  CD       -35.8350   26.5450   35.2280 C.2   227  GLU227      0.3649
     94  OE1      -36.5300   27.3690   34.6360 O.co2 227  GLU227     -0.2457
     95  OE2      -36.3280   25.6840   35.9820 O.co2 227  GLU227     -0.2457
     96  N        -33.5160   23.9010   32.2880 N.am  228  PHE228     -0.1960
     97  CA       -33.8190   22.4770   32.3000 C.3   228  PHE228      0.1771
     98  C        -33.7400   21.7770   30.9410 C.2   228  PHE228      0.2619
     99  O        -33.4160   22.3960   29.9280 O.2   228  PHE228     -0.2715
    100  CB       -35.1820   22.2790   32.9460 C.3   228  PHE228      0.0574
    101  CG       -36.2880   22.8960   32.1900 C.ar  228  PHE228     -0.0200
    102  CD1      -36.6040   24.2190   32.3840 C.ar  228  PHE228     -0.0042
    103  CD2      -37.0240   22.1460   31.2820 C.ar  228  PHE228     -0.0042
    104  CE1      -37.6480   24.8010   31.6960 C.ar  228  PHE228     -0.0003
    105  CE2      -38.0730   22.7170   30.5810 C.ar  228  PHE228     -0.0003
    106  CZ       -38.3850   24.0520   30.7800 C.ar  228  PHE228     -0.0000
    107  N        -33.9960   20.4680   30.9510 N.am  229  LEU229     -0.1963
    108  CA       -34.0230   19.6330   29.7600 C.3   229  LEU229      0.1728
    109  C        -35.1980   18.6760   29.7680 C.2   229  LEU229      0.2616
    110  O        -35.4080   17.9080   30.6840 O.2   229  LEU229     -0.2715
    111  CB       -32.7480   18.8250   29.6350 C.3   229  LEU229      0.0311
    112  CG       -32.7010   17.9920   28.3680 C.3   229  LEU229      0.0022
    113  CD1      -33.0040   18.8560   27.1540 C.3   229  LEU229      0.0001
    114  CD2      -31.3260   17.3860   28.2350 C.3   229  LEU229      0.0001
    115  N        -35.9410   18.6740   28.6930 N.am  230  CYS230     -0.1954
    116  CA       -37.2200   18.0570   28.7270 C.3   230  CYS230      0.1843
    117  C        -37.6290   17.5860   27.2910 C.2   230  CYS230      0.2625
    118  O        -37.9870   18.3850   26.4440 O.2   230  CYS230     -0.2714
    119  CB       -38.1480   19.0550   29.4250 C.3   230  CYS230      0.0997
    120  SG       -39.8980   18.7790   29.2080 S.3   230  CYS230     -0.0797
    121  N        -37.4730   16.2780   27.0400 N.am  231  ILE231     -0.1977
    122  CA       -37.8010   15.6190   25.7950 C.3   231  ILE231      0.1596
    123  C        -38.9430   14.6390   26.0360 C.2   231  ILE231      0.2287
    124  O        -38.8380   13.7980   26.9100 O.2   231  ILE231     -0.2864
    125  CB       -36.6210   14.7900   25.2600 C.3   231  ILE231      0.0276
    126  CG1      -35.5690   15.6760   24.6260 C.3   231  ILE231      0.0022
    127  CG2      -37.0650   13.8620   24.1390 C.3   231  ILE231      0.0022
    128  CD1      -34.8610   16.5550   25.6080 C.3   231  ILE231      0.0001
    129  N        -40.2110   18.1010   23.9860 N.3   233  HIS233     -0.1226
    130  CA       -40.3990   19.4900   24.4080 C.3   233  HIS233      0.1752
    131  C        -41.7870   19.6670   25.0250 C.2   233  HIS233      0.2596
    132  O        -42.7910   19.1550   24.5010 O.2   233  HIS233     -0.2718
    133  CB       -40.2260   20.4290   23.2070 C.3   233  HIS233      0.0759
    134  CG       -40.2460   21.8850   23.5500 C.ar  233  HIS233      0.0818
    135  ND1      -41.4090   22.5700   23.8070 N.ar  233  HIS233     -0.2268
    136  CD2      -39.2490   22.7970   23.6220 C.ar  233  HIS233      0.1154
    137  CE1      -41.1280   23.8380   24.0390 C.ar  233  HIS233      0.1986
    138  NE2      -39.8240   24.0030   23.9230 N.ar  233  HIS233     -0.2212
    139  N        -41.8200   20.4050   26.1270 N.am  234  VAL234     -0.1966
    140  CA       -43.0300   20.6110   26.9120 C.3   234  VAL234      0.1727
    141  C        -44.3080   20.9250   26.1270 C.2   234  VAL234      0.2616
    142  O        -45.3900   20.4880   26.5140 O.2   234  VAL234     -0.2715
    143  CB       -42.8280   21.8000   27.8620 C.3   234  VAL234      0.0290
    144  CG1      -44.0100   21.9200   28.8100 C.3   234  VAL234      0.0023
    145  CG2      -41.5470   21.6390   28.6570 C.3   234  VAL234      0.0023
    146  N        -44.1740   21.7270   25.0600 N.am  235  TYR235     -0.1974
    147  CA       -45.3140   22.2540   24.2520 C.3   235  TYR235      0.1639
    148  C        -45.6130   21.4710   23.0070 C.2   235  TYR235      0.2290
    149  O        -46.5670   21.8060   22.3150 O.2   235  TYR235     -0.2864
    150  CB       -45.1160   23.7380   23.8890 C.3   235  TYR235      0.0560
    151  CG       -45.3910   24.5930   25.0850 C.ar  235  TYR235     -0.0198
    152  CD1      -46.6790   24.7740   25.5400 C.ar  235  TYR235     -0.0009
    153  CD2      -44.3700   25.1390   25.8040 C.ar  235  TYR235     -0.0009
    154  CE1      -46.9410   25.5140   26.6630 C.ar  235  TYR235      0.0417
    155  CE2      -44.6130   25.8740   26.9380 C.ar  235  TYR235      0.0417
    156  CZ       -45.9010   26.0610   27.3660 C.ar  235  TYR235      0.1957
    157  OH       -46.1400   26.8000   28.5130 O.3   235  TYR235     -0.2866
    158  N        -48.9320   22.9380   21.1670 N.3   239  ARG239     -0.1245
    159  CA       -48.8510   24.0450   20.1930 C.3   239  ARG239      0.1563
    160  C        -49.2220   23.6710   18.7600 C.2   239  ARG239      0.2260
    161  O        -48.5970   22.7760   18.1490 O.2   239  ARG239     -0.2867
    162  CB       -47.4530   24.6740   20.1600 C.3   239  ARG239      0.0307
    163  CG       -47.4130   25.9950   20.8930 C.3   239  ARG239      0.0489
    164  CD       -46.0170   26.5700   21.0480 C.3   239  ARG239      0.2205
    165  NE       -45.9440   27.3870   22.2550 N.pl3 239  ARG239     -0.0865
    166  CZ       -44.8370   27.5880   22.9650 C.cat 239  ARG239      0.5346
    167  NH1      -43.6750   27.0440   22.5920 N.pl3 239  ARG239      0.1354
    168  NH2      -44.8840   28.3320   24.0640 N.pl3 239  ARG239      0.1354
@<TRIPOS>BOND
     1    53    51    1
     2    51    50    1
     3    30    29    2
     4    52    50    1
     5    41    40    2
     6    38    39    1
     7    50    47    1
     8    29    28    1
     9   161   160    2
    10    40    39    1
    11    40    46   am
    12    47    46    1
    13    47    48    1
    14    57    56    2
    15   160   159    1
    16    39    42    1
    17    18    19    1
    18    32    33    1
    19    32    31    1
    20    21    20    2
    21    27    28    1
    22    19    20    1
    23    19    22    1
    24    28    31    1
    25    42    43    1
    26    54    48   am
    27    54    55    1
    28    33    34    1
    29    48    49    2
    30    23    22    1
    31    23    24    1
    32    56    55    1
    33    56    62   am
    34   162   159    1
    35   162   163    1
    36   159   158    1
    37    34    35    2
    38    55    58    1
    39    43    45   ar
    40    43    44   ar
    41    63    62    1
    42    63    64    1
    43    63    66    1
    44    61    59   ar
    45    64    65    2
    46   163   164    1
    47    58    59    1
    48    68    66    1
    49    24    26   ar
    50    24    25   ar
    51   164   165    1
    52    67    66    1
    53    67    69    1
    54    59    60   ar
    55    35    37    1
    56    35    36    1
    57     9    10    1
    58    12    11    2
    59    11    10    1
    60   165   166    2
    61   149   148    2
    62    10    13    1
    63   167   166    1
    64   166   168    1
    65   148   147    1
    66   133   134    1
    67   133   130    1
    68     1     2    1
    69   134   136   ar
    70   134   135   ar
    71   136   138   ar
    72    15    16    1
    73    15    14    1
    74     4     3    2
    75     2     3    1
    76     2     5    1
    77   135   137   ar
    78   150   147    1
    79   150   151    1
    80   138   137   ar
    81   129   130    1
    82    13    14    1
    83   127   125    1
    84   147   146    1
    85    16    17    1
    86   130   131    1
    87   132   131    2
    88   126   125    1
    89   126   128    1
    90     7     6    1
    91   131   139   am
    92   146   141   am
    93   151   152   ar
    94   151   153   ar
    95     5     6    1
    96   125   122    1
    97   152   154   ar
    98     6     8    1
    99   122   123    1
   100   122   121    1
   101   153   155   ar
   102   123   124    2
   103   139   140    1
   104   141   142    2
   105   141   140    1
   106   118   117    2
   107   154   156   ar
   108   140   143    1
   109   155   156   ar
   110    78    77    1
   111   121   117   am
   112   113   112    1
   113   117   116    1
   114   156   157    1
   115   143   145    1
   116   143   144    1
   117    75    74    1
   118    75    76    1
   119    74    71    1
   120    76    77    1
   121    86    84    1
   122   114   112    1
   123   112   111    1
   124    73    72    2
   125    84    83    1
   126   115   116    1
   127   115   109   am
   128   116   119    1
   129   120   119    1
   130    71    72    1
   131    71    70    1
   132    72    79   am
   133   111   108    1
   134   108   109    1
   135   108   107    1
   136   109   110    2
   137    99    98    2
   138    83    85    1
   139    83    80    1
   140    79    80    1
   141    80    81    1
   142   105   106   ar
   143   105   103   ar
   144   106   104   ar
   145    98   107   am
   146    98    97    1
   147   103   101   ar
   148   104   102   ar
   149    81    87   am
   150    81    82    2
   151    87    88    1
   152   101   102   ar
   153   101   100    1
   154    96    97    1
   155    96    89   am
   156    97   100    1
   157    88    89    1
   158    88    91    1
   159    89    90    2
   160    91    92    1
   161    94    93   ar
   162    92    93    1
   163    93    95   ar
