@<TRIPOS>MOLECULE
tmp/5z79C02.pdb
 93 92 0 0 0
SMALL
GASTEIGER

@<TRIPOS>ATOM
      1  N        -39.0570   26.7290  -30.4000 N.3   315  PHE315     -0.1241
      2  CA       -40.1840   26.6050  -31.3360 C.3   315  PHE315      0.1605
      3  C        -40.7810   27.9410  -31.8130 C.2   315  PHE315      0.2264
      4  O        -41.0090   28.1180  -32.9990 O.2   315  PHE315     -0.2867
      5  CB       -41.2360   25.5610  -30.8550 C.3   315  PHE315      0.0534
      6  CG       -42.1380   26.0220  -29.7420 C.ar  315  PHE315     -0.0203
      7  CD1      -41.7130   26.0060  -28.4380 C.ar  315  PHE315     -0.0042
      8  CD2      -43.4470   26.4280  -30.0020 C.ar  315  PHE315     -0.0042
      9  CE1      -42.5340   26.4210  -27.4090 C.ar  315  PHE315     -0.0003
     10  CE2      -44.2730   26.8400  -28.9490 C.ar  315  PHE315     -0.0003
     11  CZ       -43.8090   26.8250  -27.6460 C.ar  315  PHE315     -0.0000
     12  N        -36.1270   22.1010  -25.9480 N.3   349  SER349     -0.1202
     13  CA       -36.6750   20.8000  -25.5440 C.3   349  SER349      0.2020
     14  C        -37.9260   20.4640  -26.3240 C.2   349  SER349      0.2619
     15  O        -38.5580   19.4230  -26.0960 O.2   349  SER349     -0.2717
     16  CB       -37.0520   20.8050  -24.0580 C.3   349  SER349      0.2103
     17  OG       -36.0120   21.3010  -23.2230 O.3   349  SER349     -0.2182
     18  N        -38.2890   21.3420  -27.2450 N.am  350  ALA350     -0.1965
     19  CA       -39.4910   21.1800  -28.0550 C.3   350  ALA350      0.1713
     20  C        -39.4660   19.8910  -28.9000 C.2   350  ALA350      0.2458
     21  O        -38.3880   19.3760  -29.1740 O.2   350  ALA350     -0.2730
     22  CB       -39.6370   22.4040  -28.9450 C.3   350  ALA350      0.0333
     23  N        -40.6510   19.3820  -29.3300 N.am  351  PRO351     -0.2727
     24  CA       -40.7700   18.1000  -30.0700 C.3   351  PRO351      0.1402
     25  C        -39.8910   17.9780  -31.2880 C.2   351  PRO351      0.2269
     26  O        -39.8670   18.8680  -32.1190 O.2   351  PRO351     -0.2865
     27  CB       -42.2280   18.0720  -30.5170 C.3   351  PRO351      0.0296
     28  CG       -42.9400   18.9320  -29.5420 C.3   351  PRO351      0.0237
     29  CD       -41.9740   19.9990  -29.1180 C.3   351  PRO351      0.0939
     30  N        -40.6780   11.3680  -26.3310 N.3   462  MET462     -0.1245
     31  CA       -41.7560   11.7880  -25.4440 C.3   462  MET462      0.1570
     32  C        -43.1640   11.6500  -26.0300 C.2   462  MET462      0.2261
     33  O        -44.0570   11.0890  -25.4060 O.2   462  MET462     -0.2867
     34  CB       -41.5170   13.2100  -24.8910 C.3   462  MET462      0.0387
     35  CG       -41.0510   14.2800  -25.8650 C.3   462  MET462      0.0595
     36  SD       -41.1770   15.9540  -25.1960 S.3   462  MET462     -0.1393
     37  CE       -42.8850   16.2390  -25.6900 C.3   462  MET462      0.0692
     38  N        -47.6240   19.1990  -22.1350 N.3   503  GLY503     -0.1210
     39  CA       -46.9720   19.0050  -23.4220 C.3   503  GLY503      0.1956
     40  C        -45.9030   17.9400  -23.4710 C.2   503  GLY503      0.2611
     41  O        -45.6440   17.4200  -24.5430 O.2   503  GLY503     -0.2717
     42  N        -45.2830   17.6190  -22.3340 N.am  504  PHE504     -0.1976
     43  CA       -44.1830   16.6380  -22.2740 C.3   504  PHE504      0.1639
     44  C        -44.6430   15.2140  -21.9150 C.2   504  PHE504      0.2290
     45  O        -44.9770   14.9400  -20.7710 O.2   504  PHE504     -0.2864
     46  CB       -43.1640   17.0240  -21.2280 C.3   504  PHE504      0.0560
     47  CG       -42.3080   18.1830  -21.5860 C.ar  504  PHE504     -0.0200
     48  CD1      -42.7030   19.4550  -21.2880 C.ar  504  PHE504     -0.0042
     49  CD2      -41.0730   17.9840  -22.1350 C.ar  504  PHE504     -0.0042
     50  CE1      -41.8830   20.5200  -21.5570 C.ar  504  PHE504     -0.0003
     51  CE2      -40.2520   19.0430  -22.4230 C.ar  504  PHE504     -0.0003
     52  CZ       -40.6560   20.3140  -22.1310 C.ar  504  PHE504     -0.0000
     53  N        -52.4550   15.7890  -26.1140 N.3   508  HIS508     -0.1241
     54  CA       -53.1920   16.9980  -25.8090 C.3   508  HIS508      0.1621
     55  C        -54.3830   16.7650  -24.8130 C.2   508  HIS508      0.2264
     56  O        -54.3760   17.3380  -23.7130 O.2   508  HIS508     -0.2867
     57  CB       -53.5940   17.6770  -27.1230 C.3   508  HIS508      0.0745
     58  CG       -52.4300   17.9390  -28.0420 C.ar  508  HIS508      0.0817
     59  ND1      -52.5810   18.2360  -29.3780 N.ar  508  HIS508     -0.2268
     60  CD2      -51.0960   17.9360  -27.8120 C.ar  508  HIS508      0.1154
     61  CE1      -51.3930   18.4170  -29.9250 C.ar  508  HIS508      0.1986
     62  NE2      -50.4750   18.2370  -28.9980 N.ar  508  HIS508     -0.2212
     63  N        -47.7580   26.3170  -26.3070 N.3   533  LYS533     -0.1231
     64  CA       -47.7480   24.8690  -26.5940 C.3   533  LYS533      0.1693
     65  C        -48.8720   24.3960  -27.5310 C.2   533  LYS533      0.2592
     66  O        -49.8430   25.0970  -27.7490 O.2   533  LYS533     -0.2718
     67  CB       -47.7480   24.0630  -25.2740 C.3   533  LYS533      0.0285
     68  CG       -46.5080   24.3520  -24.4780 C.3   533  LYS533      0.0035
     69  CD       -46.1780   23.2890  -23.4610 C.3   533  LYS533      0.0206
     70  CE       -45.0490   23.8140  -22.5560 C.3   533  LYS533      0.1093
     71  NZ       -43.9450   22.8360  -22.3810 N.3   533  LYS533     -0.1314
     72  N        -48.7170   23.1880  -28.0590 N.am  534  ARG534     -0.1966
     73  CA       -49.5920   22.6740  -29.1270 C.3   534  ARG534      0.1729
     74  C        -51.0250   22.4600  -28.6270 C.2   534  ARG534      0.2616
     75  O        -51.9820   22.7440  -29.3670 O.2   534  ARG534     -0.2715
     76  CB       -49.0630   21.3510  -29.7210 C.3   534  ARG534      0.0348
     77  CG       -47.6920   21.4130  -30.3630 C.3   534  ARG534      0.0492
     78  CD       -47.2100   20.0040  -30.6560 C.3   534  ARG534      0.2205
     79  NE       -46.6810   19.3160  -29.4830 N.pl3 534  ARG534     -0.0865
     80  CZ       -46.3490   18.0210  -29.4180 C.cat 534  ARG534      0.5346
     81  NH1      -46.5070   17.2060  -30.4400 N.pl3 534  ARG534      0.1354
     82  NH2      -45.8420   17.5100  -28.3030 N.pl3 534  ARG534      0.1354
     83  N        -51.1650   21.9850  -27.3890 N.am  535  PHE535     -0.1974
     84  CA       -52.4490   21.5360  -26.8690 C.3   535  PHE535      0.1639
     85  C        -53.4600   22.6860  -26.8080 C.2   535  PHE535      0.2290
     86  O        -54.6500   22.4480  -26.6860 O.2   535  PHE535     -0.2864
     87  CB       -52.2880   20.8570  -25.4710 C.3   535  PHE535      0.0560
     88  CG       -52.0780   21.8400  -24.3270 C.ar  535  PHE535     -0.0200
     89  CD1      -50.8220   22.3080  -24.0170 C.ar  535  PHE535     -0.0042
     90  CD2      -53.1530   22.3210  -23.6100 C.ar  535  PHE535     -0.0042
     91  CE1      -50.6370   23.2340  -22.9980 C.ar  535  PHE535     -0.0003
     92  CE2      -52.9850   23.2350  -22.6030 C.ar  535  PHE535     -0.0003
     93  CZ       -51.7220   23.6940  -22.2860 C.ar  535  PHE535     -0.0000
@<TRIPOS>BOND
     1     4     3    2
     2    26    25    2
     3     3     2    1
     4     2     5    1
     5     2     1    1
     6    25    24    1
     7     5     6    1
     8    78    77    1
     9    78    79    1
    10    27    24    1
    11    27    28    1
    12    81    80    1
    13    77    76    1
    14    24    23    1
    15     8     6   ar
    16     8    10   ar
    17    61    59   ar
    18    61    62   ar
    19     6     7   ar
    20    76    73    1
    21    28    29    1
    22    79    80    2
    23    80    82    1
    24    59    58   ar
    25    75    74    2
    26    23    29    1
    27    23    20   am
    28    21    20    2
    29    73    74    1
    30    73    72    1
    31    62    60   ar
    32    10    11   ar
    33    22    19    1
    34    20    19    1
    35    74    83   am
    36     7     9   ar
    37    72    65   am
    38    19    18    1
    39    58    60   ar
    40    58    57    1
    41    66    65    2
    42    11     9   ar
    43    65    64    1
    44    83    84    1
    45    18    14   am
    46    57    54    1
    47    84    85    1
    48    84    87    1
    49    85    86    2
    50    64    63    1
    51    64    67    1
    52    30    31    1
    53    14    15    2
    54    14    13    1
    55    53    54    1
    56    32    31    1
    57    32    33    2
    58    12    13    1
    59    35    36    1
    60    35    34    1
    61    54    55    1
    62    37    36    1
    63    13    16    1
    64    87    88    1
    65    31    34    1
    66    67    68    1
    67    55    56    2
    68    41    40    2
    69    68    69    1
    70    88    89   ar
    71    88    90   ar
    72    16    17    1
    73    89    91   ar
    74    90    92   ar
    75    40    39    1
    76    40    42   am
    77    69    70    1
    78    39    38    1
    79    91    93   ar
    80    92    93   ar
    81    70    71    1
    82    51    49   ar
    83    51    52   ar
    84    42    43    1
    85    43    44    1
    86    43    46    1
    87    49    47   ar
    88    52    50   ar
    89    44    45    2
    90    47    48   ar
    91    47    46    1
    92    50    48   ar
