@<TRIPOS>MOLECULE
tmp/5z79C00.pdb
 182 168 0 0 0
SMALL
GASTEIGER

@<TRIPOS>ATOM
      1  N        -40.1270   33.9160  -19.9870 N.3   307  ILE307     -0.1245
      2  CA       -39.2690   32.9690  -20.6910 C.3   307  ILE307      0.1561
      3  C        -38.2790   33.7080  -21.5640 C.2   307  ILE307      0.2260
      4  O        -38.6790   34.5170  -22.4110 O.2   307  ILE307     -0.2867
      5  CB       -40.1090   32.0760  -21.6300 C.3   307  ILE307      0.0252
      6  CG1      -41.1410   31.2970  -20.8450 C.3   307  ILE307      0.0019
      7  CG2      -39.2340   31.0990  -22.3970 C.3   307  ILE307      0.0019
      8  CD1      -42.1360   30.5780  -21.7050 C.3   307  ILE307      0.0001
      9  N        -35.3300   32.7300  -24.2220 N.3   309  ASN309     -0.1240
     10  CA       -34.6440   31.6520  -24.8980 C.3   309  ASN309      0.1653
     11  C        -33.4410   32.2430  -25.5690 C.2   309  ASN309      0.2266
     12  O        -33.5720   33.0900  -26.4430 O.2   309  ASN309     -0.2867
     13  CB       -35.5590   30.9550  -25.9070 C.3   309  ASN309      0.1155
     14  CG       -36.4470   29.9270  -25.2620 C.2   309  ASN309      0.2627
     15  OD1      -35.9690   28.9790  -24.6500 O.2   309  ASN309     -0.2716
     16  ND2      -37.7420   30.1000  -25.3910 N.am  309  ASN309     -0.0877
     17  N        -35.6840   27.4900  -30.9710 N.3   314  SER314     -0.1202
     18  CA       -36.7360   27.2430  -29.9930 C.3   314  SER314      0.2020
     19  C        -38.0390   27.5320  -30.6740 C.2   314  SER314      0.2619
     20  O        -38.1210   28.4750  -31.4200 O.2   314  SER314     -0.2717
     21  CB       -36.5360   28.0830  -28.7080 C.3   314  SER314      0.2103
     22  OG       -35.7610   27.3740  -27.7400 O.3   314  SER314     -0.2182
     23  N        -39.0570   26.7290  -30.4000 N.am  315  PHE315     -0.1961
     24  CA       -40.1840   26.6050  -31.3360 C.3   315  PHE315      0.1771
     25  C        -40.7810   27.9410  -31.8130 C.2   315  PHE315      0.2620
     26  O        -41.0090   28.1180  -32.9990 O.2   315  PHE315     -0.2715
     27  CB       -41.2360   25.5610  -30.8550 C.3   315  PHE315      0.0574
     28  CG       -42.1380   26.0220  -29.7420 C.ar  315  PHE315     -0.0200
     29  CD1      -41.7130   26.0060  -28.4380 C.ar  315  PHE315     -0.0042
     30  CD2      -43.4470   26.4280  -30.0020 C.ar  315  PHE315     -0.0042
     31  CE1      -42.5340   26.4210  -27.4090 C.ar  315  PHE315     -0.0003
     32  CE2      -44.2730   26.8400  -28.9490 C.ar  315  PHE315     -0.0003
     33  CZ       -43.8090   26.8250  -27.6460 C.ar  315  PHE315     -0.0000
     34  N        -40.8900   28.9020  -30.9030 N.am  316  SER316     -0.1950
     35  CA       -41.4480   30.2310  -31.1910 C.3   316  SER316      0.1924
     36  C        -40.4460   31.4420  -31.2140 C.2   316  SER316      0.2314
     37  O        -40.8350   32.5300  -31.6410 O.2   316  SER316     -0.2863
     38  CB       -42.4790   30.4930  -30.0940 C.3   316  SER316      0.2116
     39  OG       -41.8750   30.2730  -28.7960 O.3   316  SER316     -0.2180
     40  N        -30.7620   25.8170  -24.4470 N.3   347  GLU347     -0.1231
     41  CA       -31.0850   24.6380  -25.2570 C.3   347  GLU347      0.1699
     42  C        -32.5970   24.4550  -25.4110 C.2   347  GLU347      0.2593
     43  O        -33.3410   24.7260  -24.4720 O.2   347  GLU347     -0.2718
     44  CB       -30.5340   23.4090  -24.5650 C.3   347  GLU347      0.0402
     45  CG       -30.8470   22.1250  -25.2980 C.3   347  GLU347      0.1161
     46  CD       -29.7010   21.1640  -25.2080 C.2   347  GLU347      0.3649
     47  OE1      -28.5640   21.6160  -25.5160 O.co2 347  GLU347     -0.2457
     48  OE2      -29.9380   19.9830  -24.8510 O.co2 347  GLU347     -0.2457
     49  N        -33.0620   23.9880  -26.5710 N.am  348  SER348     -0.1938
     50  CA       -34.4990   23.7330  -26.7300 C.3   348  SER348      0.2055
     51  C        -34.8730   22.2750  -26.3840 C.2   348  SER348      0.2644
     52  O        -34.0280   21.3560  -26.4670 O.2   348  SER348     -0.2714
     53  CB       -34.9560   24.0980  -28.1310 C.3   348  SER348      0.2130
     54  OG       -36.3290   23.8000  -28.2720 O.3   348  SER348     -0.2179
     55  N        -36.1270   22.1010  -25.9480 N.am  349  SER349     -0.1935
     56  CA       -36.6750   20.8000  -25.5440 C.3   349  SER349      0.2055
     57  C        -37.9260   20.4640  -26.3240 C.2   349  SER349      0.2642
     58  O        -38.5580   19.4230  -26.0960 O.2   349  SER349     -0.2714
     59  CB       -37.0520   20.8050  -24.0580 C.3   349  SER349      0.2130
     60  OG       -36.0120   21.3010  -23.2230 O.3   349  SER349     -0.2179
     61  N        -38.2890   21.3420  -27.2450 N.am  350  ALA350     -0.1977
     62  CA       -39.4910   21.1800  -28.0550 C.3   350  ALA350      0.1597
     63  C        -39.4660   19.8910  -28.9000 C.2   350  ALA350      0.2287
     64  O        -38.3880   19.3760  -29.1740 O.2   350  ALA350     -0.2864
     65  CB       -39.6370   22.4040  -28.9450 C.3   350  ALA350      0.0319
     66  N        -32.8890   27.1660  -16.8310 N.3   406  ASP406     -0.1239
     67  CA       -33.6330   25.9940  -17.2780 C.3   406  ASP406      0.1674
     68  C        -32.5980   25.0760  -17.9210 C.2   406  ASP406      0.2266
     69  O        -32.2080   25.3270  -19.0670 O.2   406  ASP406     -0.2867
     70  CB       -34.7240   26.4150  -18.3150 C.3   406  ASP406      0.1410
     71  CG       -35.5390   25.2120  -18.9130 C.2   406  ASP406      0.3668
     72  OD1      -35.3370   24.0870  -18.3860 O.co2 406  ASP406     -0.2456
     73  OD2      -36.3580   25.3730  -19.8860 O.co2 406  ASP406     -0.2456
     74  N        -34.3600   25.3300  -12.8460 N.3   426  ASN426     -0.1240
     75  CA       -35.6140   24.8140  -13.3700 C.3   426  ASN426      0.1653
     76  C        -35.3140   23.5390  -14.0950 C.2   426  ASN426      0.2266
     77  O        -35.0090   23.6110  -15.2970 O.2   426  ASN426     -0.2867
     78  CB       -36.2350   25.8370  -14.3310 C.3   426  ASN426      0.1155
     79  CG       -37.3820   25.2770  -15.1800 C.2   426  ASN426      0.2627
     80  OD1      -37.9740   24.2470  -14.8930 O.2   426  ASN426     -0.2716
     81  ND2      -37.7020   25.9990  -16.2470 N.am  426  ASN426     -0.0877
     82  N        -36.1260   20.2450  -15.9430 N.3   428  ILE428     -0.1245
     83  CA       -37.1870   19.5140  -16.6470 C.3   428  ILE428      0.1561
     84  C        -37.1440   17.9880  -16.5000 C.2   428  ILE428      0.2260
     85  O        -38.1360   17.3310  -16.8390 O.2   428  ILE428     -0.2867
     86  CB       -37.2910   19.9200  -18.1180 C.3   428  ILE428      0.0252
     87  CG1      -35.9960   19.5960  -18.8910 C.3   428  ILE428      0.0019
     88  CG2      -37.6550   21.4040  -18.1700 C.3   428  ILE428      0.0019
     89  CD1      -36.1790   19.5030  -20.3960 C.3   428  ILE428      0.0001
     90  N        -37.3610   23.8740   -9.5220 N.3   451  VAL451     -0.1245
     91  CA       -38.5750   23.3730  -10.1420 C.3   451  VAL451      0.1561
     92  C        -38.3360   21.9560  -10.6500 C.2   451  VAL451      0.2260
     93  O        -37.3770   21.7110  -11.3640 O.2   451  VAL451     -0.2867
     94  CB       -38.9940   24.2320  -11.3150 C.3   451  VAL451      0.0252
     95  CG1      -40.3880   23.8110  -11.7320 C.3   451  VAL451      0.0019
     96  CG2      -38.9770   25.7070  -10.9640 C.3   451  VAL451      0.0019
     97  N        -40.0540   19.1120  -12.8710 N.3   453  MET453     -0.1245
     98  CA       -41.0990   18.9450  -13.8520 C.3   453  MET453      0.1570
     99  C        -41.1430   17.4950  -14.2670 C.2   453  MET453      0.2261
    100  O        -40.0970   16.8860  -14.4840 O.2   453  MET453     -0.2867
    101  CB       -40.7640   19.7930  -15.0740 C.3   453  MET453      0.0387
    102  CG       -41.9000   20.0170  -16.0870 C.3   453  MET453      0.0595
    103  SD       -41.2890   20.3690  -17.7630 S.3   453  MET453     -0.1393
    104  CE       -40.6120   18.8200  -18.3290 C.3   453  MET453      0.0692
    105  N        -44.0660   20.9870  -11.1910 N.3   499  ASP499     -0.1239
    106  CA       -44.6170   21.2350  -12.5120 C.3   499  ASP499      0.1674
    107  C        -45.0180   19.9160  -13.1860 C.2   499  ASP499      0.2266
    108  O        -44.2140   19.0040  -13.2660 O.2   499  ASP499     -0.2867
    109  CB       -43.5460   21.8910  -13.3330 C.3   499  ASP499      0.1410
    110  CG       -44.0480   22.3880  -14.6370 C.2   499  ASP499      0.3668
    111  OD1      -44.8590   21.6680  -15.2150 O.co2 499  ASP499     -0.2456
    112  OD2      -43.6100   23.4810  -15.0780 O.co2 499  ASP499     -0.2456
    113  N        -46.8420   20.0280  -18.8620 N.3   502  LEU502     -0.1245
    114  CA       -47.8460   20.0640  -19.9390 C.3   502  LEU502      0.1561
    115  C        -47.1080   20.0000  -21.2100 C.2   502  LEU502      0.2260
    116  O        -46.0720   20.6260  -21.3440 O.2   502  LEU502     -0.2867
    117  CB       -48.6700   21.3450  -19.9330 C.3   502  LEU502      0.0270
    118  CG       -49.5610   21.5960  -18.7130 C.3   502  LEU502      0.0019
    119  CD1      -50.1430   22.9840  -18.7810 C.3   502  LEU502      0.0001
    120  CD2      -50.6830   20.5890  -18.6620 C.3   502  LEU502      0.0001
    121  N        -45.2830   17.6190  -22.3340 N.3   504  PHE504     -0.1241
    122  CA       -44.1830   16.6380  -22.2740 C.3   504  PHE504      0.1605
    123  C        -44.6430   15.2140  -21.9150 C.2   504  PHE504      0.2264
    124  O        -44.9770   14.9400  -20.7710 O.2   504  PHE504     -0.2867
    125  CB       -43.1640   17.0240  -21.2280 C.3   504  PHE504      0.0534
    126  CG       -42.3080   18.1830  -21.5860 C.ar  504  PHE504     -0.0203
    127  CD1      -42.7030   19.4550  -21.2880 C.ar  504  PHE504     -0.0042
    128  CD2      -41.0730   17.9840  -22.1350 C.ar  504  PHE504     -0.0042
    129  CE1      -41.8830   20.5200  -21.5570 C.ar  504  PHE504     -0.0003
    130  CE2      -40.2520   19.0430  -22.4230 C.ar  504  PHE504     -0.0003
    131  CZ       -40.6560   20.3140  -22.1310 C.ar  504  PHE504     -0.0000
    132  N        -45.9640   25.2150  -10.2710 N.3   527  PHE527     -0.1241
    133  CA       -45.4010   25.9750  -11.3920 C.3   527  PHE527      0.1605
    134  C        -45.8800   25.3540  -12.7170 C.2   527  PHE527      0.2264
    135  O        -45.6420   24.1690  -12.9700 O.2   527  PHE527     -0.2867
    136  CB       -43.8990   25.8280  -11.2530 C.3   527  PHE527      0.0534
    137  CG       -43.0740   26.5180  -12.3000 C.ar  527  PHE527     -0.0203
    138  CD1      -43.0670   26.0850  -13.6210 C.ar  527  PHE527     -0.0042
    139  CD2      -42.1680   27.5140  -11.9180 C.ar  527  PHE527     -0.0042
    140  CE1      -42.2450   26.6960  -14.5540 C.ar  527  PHE527     -0.0003
    141  CE2      -41.3450   28.1220  -12.8520 C.ar  527  PHE527     -0.0003
    142  CZ       -41.3950   27.7210  -14.1740 C.ar  527  PHE527     -0.0000
    143  N        -46.0710   25.4920  -17.1290 N.3   529  GLY529     -0.1225
    144  CA       -45.6530   26.0020  -18.4450 C.3   529  GLY529      0.1811
    145  C        -46.6440   25.6010  -19.5190 C.2   529  GLY529      0.2280
    146  O        -46.6480   24.4620  -19.9330 O.2   529  GLY529     -0.2866
    147  N        -47.3120   28.2340  -22.1680 N.3   531  SER531     -0.1217
    148  CA       -47.2070   29.2540  -23.2350 C.3   531  SER531      0.1889
    149  C        -46.9920   28.6930  -24.6370 C.2   531  SER531      0.2288
    150  O        -46.0280   27.9980  -24.9150 O.2   531  SER531     -0.2866
    151  CB       -46.1160   30.2840  -22.9180 C.3   531  SER531      0.2089
    152  OG       -46.3100   31.4850  -23.6160 O.3   531  SER531     -0.2183
    153  N        -47.7580   26.3170  -26.3070 N.3   533  LYS533     -0.1245
    154  CA       -47.7480   24.8690  -26.5940 C.3   533  LYS533      0.1561
    155  C        -48.8720   24.3960  -27.5310 C.2   533  LYS533      0.2260
    156  O        -49.8430   25.0970  -27.7490 O.2   533  LYS533     -0.2867
    157  CB       -47.7480   24.0630  -25.2740 C.3   533  LYS533      0.0271
    158  CG       -46.5080   24.3520  -24.4780 C.3   533  LYS533      0.0035
    159  CD       -46.1780   23.2890  -23.4610 C.3   533  LYS533      0.0206
    160  CE       -45.0490   23.8140  -22.5560 C.3   533  LYS533      0.1093
    161  NZ       -43.9450   22.8360  -22.3810 N.3   533  LYS533     -0.1314
    162  N        -45.4000   30.1730  -16.3880 N.3   580  ARG580     -0.1245
    163  CA       -44.2860   30.4970  -17.2510 C.3   580  ARG580      0.1563
    164  C        -44.8280   30.7390  -18.6350 C.2   580  ARG580      0.2260
    165  O        -45.5170   29.8640  -19.2030 O.2   580  ARG580     -0.2867
    166  CB       -43.3650   29.3120  -17.2920 C.3   580  ARG580      0.0307
    167  CG       -42.1500   29.4510  -18.1640 C.3   580  ARG580      0.0489
    168  CD       -41.3260   28.1870  -18.0060 C.3   580  ARG580      0.2205
    169  NE       -40.1990   28.1550  -18.9070 N.pl3 580  ARG580     -0.0865
    170  CZ       -40.2850   27.8650  -20.1930 C.cat 580  ARG580      0.5346
    171  NH1      -41.4630   27.5720  -20.7370 N.pl3 580  ARG580      0.1354
    172  NH2      -39.1950   27.8740  -20.9360 N.pl3 580  ARG580      0.1354
    173  N        -44.2260   33.5320  -22.4390 N.3   582  HIS582     -0.1241
    174  CA       -43.4240   34.3940  -23.3320 C.3   582  HIS582      0.1621
    175  C        -43.9400   35.8400  -23.3690 C.2   582  HIS582      0.2264
    176  O        -43.1560   36.8090  -23.4650 O.2   582  HIS582     -0.2867
    177  CB       -43.5030   33.8800  -24.7600 C.3   582  HIS582      0.0745
    178  CG       -43.0330   32.4780  -24.9420 C.ar  582  HIS582      0.0817
    179  ND1      -43.8570   31.3890  -24.7610 N.ar  582  HIS582     -0.2268
    180  CD2      -41.8480   31.9910  -25.3680 C.ar  582  HIS582      0.1154
    181  CE1      -43.1970   30.2860  -25.0590 C.ar  582  HIS582      0.1986
    182  NE2      -41.9710   30.6240  -25.4230 N.ar  582  HIS582     -0.2212
@<TRIPOS>BOND
     1    26    25    2
     2    25    24    1
     3    25    34   am
     4    37    36    2
     5    20    19    2
     6    24    27    1
     7    24    23    1
     8    36    35    1
     9    35    34    1
    10    35    38    1
    11    17    18    1
    12    27    28    1
    13    19    23   am
    14    19    18    1
    15    38    39    1
    16    30    28   ar
    17    30    32   ar
    18    18    21    1
    19    28    29   ar
    20    64    63    2
    21    32    33   ar
    22    65    62    1
    23    63    62    1
    24    21    22    1
    25    29    31   ar
    26    54    53    1
    27    53    50    1
    28    62    61    1
    29   156   155    2
    30    33    31   ar
    31   155   154    1
    32    61    57   am
    33    50    49    1
    34    50    51    1
    35   154   153    1
    36   154   157    1
    37    49    42   am
    38    52    51    2
    39    12    11    2
    40    51    55   am
    41    57    58    2
    42    57    56    1
    43    55    56    1
    44    13    14    1
    45    13    10    1
    46    11    10    1
    47    56    59    1
    48    47    46   ar
    49   182   180   ar
    50   182   181   ar
    51    42    41    1
    52    42    43    2
    53    16    14   am
    54   180   178   ar
    55    45    46    1
    56    45    44    1
    57   157   158    1
    58    14    15    2
    59    41    44    1
    60    41    40    1
    61    46    48   ar
    62   181   179   ar
    63   178   179   ar
    64   178   177    1
    65   150   149    2
    66    10     9    1
    67   177   174    1
    68   149   148    1
    69   158   159    1
    70    59    60    1
    71   152   151    1
    72   176   175    2
    73   159   160    1
    74   175   174    1
    75   174   173    1
    76   148   151    1
    77   148   147    1
    78   160   161    1
    79   130   128   ar
    80   130   131   ar
    81     4     3    2
    82     7     5    1
    83   121   122    1
    84   122   123    1
    85   122   125    1
    86   128   126   ar
    87   131   129   ar
    88   123   124    2
    89     8     6    1
    90     5     6    1
    91     5     2    1
    92   126   127   ar
    93   126   125    1
    94     3     2    1
    95   129   127   ar
    96   116   115    2
    97   115   114    1
    98   172   170    1
    99   171   170    1
   100     2     1    1
   101    89    87    1
   102   170   169    2
   103   114   117    1
   104   114   113    1
   105   146   145    2
   106   117   118    1
   107    73    71   ar
   108   145   144    1
   109   165   164    2
   110    69    68    2
   111    71    72   ar
   112    71    70    1
   113   169   168    1
   114    87    86    1
   115   119   118    1
   116   118   120    1
   117   164   163    1
   118   144   143    1
   119   104   103    1
   120    70    67    1
   121    88    86    1
   122   167   168    1
   123   167   166    1
   124    86    83    1
   125    68    67    1
   126   103   102    1
   127   166   163    1
   128    67    66    1
   129   163   162    1
   130    85    84    2
   131    83    84    1
   132    83    82    1
   133    81    79   am
   134   102   101    1
   135    77    76    2
   136   111   110   ar
   137    79    80    2
   138    79    78    1
   139   112   110   ar
   140   101    98    1
   141   110   109    1
   142   140   142   ar
   143   140   138   ar
   144   100    99    2
   145    78    75    1
   146    99    98    1
   147   142   141   ar
   148    76    75    1
   149    98    97    1
   150   138   137   ar
   151    75    74    1
   152   109   106    1
   153   108   107    2
   154   107   106    1
   155   135   134    2
   156   141   139   ar
   157   134   133    1
   158   106   105    1
   159   137   139   ar
   160   137   136    1
   161    95    94    1
   162   133   136    1
   163   133   132    1
   164    93    92    2
   165    94    96    1
   166    94    91    1
   167    92    91    1
   168    91    90    1
