@<TRIPOS>MOLECULE
tmp/5z79C03.pdb
 117 111 0 0 0
SMALL
GASTEIGER

@<TRIPOS>ATOM
      1  N        -36.9920   22.4000   16.2250 N.3     9  ASN9       -0.1240
      2  CA       -37.9880   23.4350   15.8940 C.3     9  ASN9        0.1653
      3  C        -37.4040   24.8500   15.8780 C.2     9  ASN9        0.2266
      4  O        -37.1970   25.4630   16.9290 O.2     9  ASN9       -0.2867
      5  CB       -39.1400   23.3560   16.8910 C.3     9  ASN9        0.1155
      6  CG       -40.1650   24.4700   16.7210 C.2     9  ASN9        0.2627
      7  OD1      -40.3470   25.3160   17.5900 O.2     9  ASN9       -0.2716
      8  ND2      -40.8660   24.4560   15.5940 N.am    9  ASN9       -0.0877
      9  N        -37.5740   28.9530   14.9610 N.3    11  GLY11      -0.1225
     10  CA       -38.5420   30.0330   15.1670 C.3    11  GLY11       0.1811
     11  C        -37.8630   31.4110   15.0980 C.2    11  GLY11       0.2280
     12  O        -36.7410   31.5560   15.5900 O.2    11  GLY11      -0.2866
     13  N        -47.2860   31.7970   11.6330 N.3    45  THR45      -0.1203
     14  CA       -48.1700   31.4060   12.7140 C.3    45  THR45       0.1994
     15  C        -48.3880   32.5260   13.7180 C.2    45  THR45       0.2618
     16  O        -47.4620   33.2550   14.0950 O.2    45  THR45      -0.2717
     17  CB       -47.5250   30.3090   13.5480 C.3    45  THR45       0.1784
     18  OG1      -46.3650   30.8570   14.2060 O.3    45  THR45      -0.2211
     19  CG2      -47.1380   29.1040   12.6900 C.3    45  THR45       0.0376
     20  N        -49.6260   32.5830   14.1870 N.am   46  VAL46      -0.1966
     21  CA       -50.0690   33.4440   15.2730 C.3    46  VAL46       0.1712
     22  C        -49.5780   32.9340   16.6220 C.2    46  VAL46       0.2458
     23  O        -49.7630   31.7680   16.9560 O.2    46  VAL46      -0.2730
     24  CB       -51.6100   33.5030   15.2920 C.3    46  VAL46       0.0289
     25  CG1      -52.1330   34.3210   16.4670 C.3    46  VAL46       0.0023
     26  CG2      -52.1200   34.0710   13.9700 C.3    46  VAL46       0.0023
     27  N        -48.9800   33.8350   17.4200 N.am   47  PRO47      -0.2716
     28  CA       -48.5170   33.5240   18.7790 C.3    47  PRO47       0.1536
     29  C        -49.5070   32.7430   19.6460 C.2    47  PRO47       0.2598
     30  O        -50.7130   33.0970   19.7810 O.2    47  PRO47      -0.2715
     31  CB       -48.2880   34.9090   19.4090 C.3    47  PRO47       0.0310
     32  CG       -47.9630   35.7930   18.2660 C.3    47  PRO47       0.0237
     33  CD       -48.7680   35.2660   17.1000 C.3    47  PRO47       0.0939
     34  N        -48.9450   31.6730   20.2030 N.am   48  GLU48      -0.1964
     35  CA       -49.5800   30.8730   21.2270 C.3    48  GLU48       0.1733
     36  C        -48.7670   31.0550   22.4910 C.2    48  GLU48       0.2616
     37  O        -47.5450   30.8130   22.5080 O.2    48  GLU48      -0.2715
     38  CB       -49.6190   29.4120   20.8030 C.3    48  GLU48       0.0429
     39  CG       -50.4710   29.2350   19.5600 C.3    48  GLU48       0.1163
     40  CD       -50.3920   27.8490   18.9880 C.2    48  GLU48       0.3649
     41  OE1      -50.9680   26.9270   19.6210 O.co2  48  GLU48      -0.2457
     42  OE2      -49.7520   27.7080   17.9060 O.co2  48  GLU48      -0.2457
     43  N        -49.4570   31.5230   23.5250 N.am   49  TYR49      -0.1974
     44  CA       -48.8580   31.7430   24.8410 C.3    49  TYR49       0.1639
     45  C        -49.5430   30.9240   25.9480 C.2    49  TYR49       0.2290
     46  O        -48.9090   30.5730   26.9500 O.2    49  TYR49      -0.2864
     47  CB       -48.9580   33.2380   25.1870 C.3    49  TYR49       0.0560
     48  CG       -48.3310   34.1840   24.1510 C.ar   49  TYR49      -0.0198
     49  CD1      -46.9380   34.1940   23.9640 C.ar   49  TYR49      -0.0009
     50  CD2      -49.1110   35.0860   23.4120 C.ar   49  TYR49      -0.0009
     51  CE1      -46.3250   35.0330   23.0530 C.ar   49  TYR49       0.0417
     52  CE2      -48.5040   35.9560   22.5040 C.ar   49  TYR49       0.0417
     53  CZ       -47.1010   35.9200   22.3250 C.ar   49  TYR49       0.1957
     54  OH       -46.4300   36.7430   21.4120 O.3    49  TYR49      -0.2866
     55  N        -45.0360   34.7040   14.1580 N.3   140  PHE140     -0.1241
     56  CA       -43.8710   33.8140   14.2960 C.3   140  PHE140      0.1605
     57  C        -43.6690   33.0700   13.0130 C.2   140  PHE140      0.2264
     58  O        -44.6330   32.6840   12.3910 O.2   140  PHE140     -0.2867
     59  CB       -44.0600   32.7440   15.3770 C.3   140  PHE140      0.0534
     60  CG       -43.7970   33.2130   16.7640 C.ar  140  PHE140     -0.0203
     61  CD1      -44.8030   33.8290   17.5140 C.ar  140  PHE140     -0.0042
     62  CD2      -42.5690   32.9980   17.3400 C.ar  140  PHE140     -0.0042
     63  CE1      -44.5730   34.2450   18.8100 C.ar  140  PHE140     -0.0003
     64  CE2      -42.3200   33.4280   18.6480 C.ar  140  PHE140     -0.0003
     65  CZ       -43.3240   34.0540   19.3810 C.ar  140  PHE140     -0.0000
     66  N        -42.0600   29.5490   11.7190 N.3   142  ASN142     -0.1240
     67  CA       -41.6880   28.2360   12.2080 C.3   142  ASN142      0.1653
     68  C        -41.2950   27.1770   11.1620 C.2   142  ASN142      0.2266
     69  O        -41.7940   27.1340   10.0580 O.2   142  ASN142     -0.2867
     70  CB       -42.8410   27.7020   13.0500 C.3   142  ASN142      0.1155
     71  CG       -42.9750   28.4460   14.3670 C.2   142  ASN142      0.2627
     72  OD1      -43.9650   29.1420   14.6190 O.2   142  ASN142     -0.2716
     73  ND2      -41.9500   28.3350   15.2070 N.am  142  ASN142     -0.0877
     74  N        -38.0630   37.7740   19.1600 N.3   171  ARG171     -0.1245
     75  CA       -36.7780   37.1070   19.2360 C.3   171  ARG171      0.1563
     76  C        -36.2210   36.8740   17.8350 C.2   171  ARG171      0.2260
     77  O        -36.9720   36.6030   16.8830 O.2   171  ARG171     -0.2867
     78  CB       -36.9180   35.7630   19.9520 C.3   171  ARG171      0.0307
     79  CG       -37.2460   34.6560   18.9640 C.3   171  ARG171      0.0489
     80  CD       -37.3390   33.2820   19.5530 C.3   171  ARG171      0.2205
     81  NE       -38.5250   33.0540   20.3840 N.pl3 171  ARG171     -0.0865
     82  CZ       -38.5370   32.9960   21.7180 C.cat 171  ARG171      0.5346
     83  NH1      -37.4140   33.1710   22.4430 N.pl3 171  ARG171      0.1354
     84  NH2      -39.7080   32.7710   22.3340 N.pl3 171  ARG171      0.1354
     85  N        -34.6940   31.0830   17.7320 N.3   174  ASP174     -0.1239
     86  CA       -34.9560   30.1420   18.8160 C.3   174  ASP174      0.1674
     87  C        -34.8270   28.7450   18.2280 C.2   174  ASP174      0.2266
     88  O        -35.3790   28.4790   17.1630 O.2   174  ASP174     -0.2867
     89  CB       -36.3960   30.3500   19.2840 C.3   174  ASP174      0.1410
     90  CG       -36.7810   29.5490   20.5590 C.2   174  ASP174      0.3668
     91  OD1      -35.8690   29.2340   21.4330 O.co2 174  ASP174     -0.2456
     92  OD2      -38.0390   29.2640   20.7060 O.co2 174  ASP174     -0.2456
     93  N        -48.9320   22.9380   21.1670 N.3   239  ARG239     -0.1245
     94  CA       -48.8510   24.0450   20.1930 C.3   239  ARG239      0.1563
     95  C        -49.2220   23.6710   18.7600 C.2   239  ARG239      0.2260
     96  O        -48.5970   22.7760   18.1490 O.2   239  ARG239     -0.2867
     97  CB       -47.4530   24.6740   20.1600 C.3   239  ARG239      0.0307
     98  CG       -47.4130   25.9950   20.8930 C.3   239  ARG239      0.0489
     99  CD       -46.0170   26.5700   21.0480 C.3   239  ARG239      0.2205
    100  NE       -45.9440   27.3870   22.2550 N.pl3 239  ARG239     -0.0865
    101  CZ       -44.8370   27.5880   22.9650 C.cat 239  ARG239      0.5346
    102  NH1      -43.6750   27.0440   22.5920 N.pl3 239  ARG239      0.1354
    103  NH2      -44.8840   28.3320   24.0640 N.pl3 239  ARG239      0.1354
    104  N        -48.6230   25.6090   16.1060 N.3   241  SER241     -0.1202
    105  CA       -47.4420   25.9150   15.3100 C.3   241  SER241      0.2020
    106  C        -46.4700   24.7560   15.1630 C.2   241  SER241      0.2618
    107  O        -45.7160   24.6930   14.1830 O.2   241  SER241     -0.2717
    108  CB       -46.6790   27.0790   15.9250 C.3   241  SER241      0.2103
    109  OG       -46.0560   26.7460   17.1770 O.3   241  SER241     -0.2182
    110  N        -46.4540   23.8520   16.1380 N.am  242  ILE242     -0.1979
    111  CA       -45.5160   22.7360   16.1360 C.3   242  ILE242      0.1595
    112  C        -46.1430   21.5240   15.5420 C.2   242  ILE242      0.2287
    113  O        -45.4960   20.7760   14.8480 O.2   242  ILE242     -0.2864
    114  CB       -45.0790   22.3450   17.5450 C.3   242  ILE242      0.0276
    115  CG1      -44.3100   23.4970   18.1690 C.3   242  ILE242      0.0022
    116  CG2      -44.2010   21.0970   17.4990 C.3   242  ILE242      0.0022
    117  CD1      -44.0820   23.3250   19.6480 C.3   242  ILE242      0.0001
@<TRIPOS>BOND
     1    69    68    2
     2    68    67    1
     3    13    14    1
     4    66    67    1
     5    67    70    1
     6    58    57    2
     7    19    17    1
     8    14    17    1
     9    14    15    1
    10    57    56    1
    11    70    71    1
    12    17    18    1
    13    15    16    2
    14    15    20   am
    15    26    24    1
    16    55    56    1
    17   107   106    2
    18    20    21    1
    19    56    59    1
    20    71    72    2
    21    71    73   am
    22   113   112    2
    23     9    10    1
    24    11    10    1
    25    11    12    2
    26   106   105    1
    27   106   110   am
    28    21    24    1
    29    21    22    1
    30    24    25    1
    31   105   108    1
    32   105   104    1
    33    59    60    1
    34   112   111    1
    35     8     6   am
    36     3     2    1
    37     3     4    2
    38     2     1    1
    39     2     5    1
    40   108   109    1
    41   111   110    1
    42   111   114    1
    43    22    23    2
    44    22    27   am
    45     6     5    1
    46     6     7    2
    47    60    62   ar
    48    60    61   ar
    49    77    76    2
    50    33    27    1
    51    33    32    1
    52    88    87    2
    53    62    64   ar
    54    27    28    1
    55   116   114    1
    56    61    63   ar
    57   114   115    1
    58    85    86    1
    59    76    75    1
    60    42    40   ar
    61    96    95    2
    62   115   117    1
    63    87    86    1
    64    32    31    1
    65    64    65   ar
    66    95    94    1
    67    28    31    1
    68    28    29    1
    69    63    65   ar
    70    86    89    1
    71    79    80    1
    72    79    78    1
    73    40    39    1
    74    40    41   ar
    75    74    75    1
    76    75    78    1
    77    89    90    1
    78    80    81    1
    79    39    38    1
    80    29    30    2
    81    29    34   am
    82    97    94    1
    83    97    98    1
    84    94    93    1
    85    34    35    1
    86    81    82    2
    87    90    92   ar
    88    90    91   ar
    89    38    35    1
    90    98    99    1
    91    99   100    1
    92    35    36    1
    93    54    53    1
    94    82    84    1
    95    82    83    1
    96   100   101    2
    97    53    52   ar
    98    53    51   ar
    99    36    37    2
   100    36    43   am
   101    52    50   ar
   102   102   101    1
   103   101   103    1
   104    51    49   ar
   105    50    48   ar
   106    43    44    1
   107    49    48   ar
   108    48    47    1
   109    44    47    1
   110    44    45    1
   111    45    46    2
