@<TRIPOS>MOLECULE
tmp/5z79D01.pdb
 129 125 0 0 0
SMALL
GASTEIGER

@<TRIPOS>ATOM
      1  N       -112.9070   29.3300  -25.4650 N.3   151  LEU151     -0.1245
      2  CA      -112.3230   27.9970  -25.6480 C.3   151  LEU151      0.1561
      3  C       -112.4870   27.5870  -27.1120 C.2   151  LEU151      0.2260
      4  O       -111.5700   27.0490  -27.7540 O.2   151  LEU151     -0.2867
      5  CB      -112.9240   26.9500  -24.6870 C.3   151  LEU151      0.0270
      6  CG      -112.4350   25.5180  -24.9970 C.3   151  LEU151      0.0019
      7  CD1     -110.9770   25.3030  -24.6190 C.3   151  LEU151      0.0001
      8  CD2     -113.3200   24.4830  -24.3380 C.3   151  LEU151      0.0001
      9  N       -109.6340   26.4980  -29.8070 N.3   155  LYS155     -0.1245
     10  CA      -109.6760   25.3070  -30.6400 C.3   155  LYS155      0.1561
     11  C       -109.4910   25.6590  -32.1350 C.2   155  LYS155      0.2260
     12  O       -108.5790   25.1480  -32.7990 O.2   155  LYS155     -0.2867
     13  CB      -111.0070   24.5860  -30.4350 C.3   155  LYS155      0.0271
     14  CG      -111.1930   23.9290  -29.0730 C.3   155  LYS155      0.0035
     15  CD      -110.2660   22.7370  -28.8740 C.3   155  LYS155      0.0206
     16  CE      -108.9760   23.1500  -28.1710 C.3   155  LYS155      0.1093
     17  NZ      -108.2010   21.9800  -27.6220 N.3   155  LYS155     -0.1314
     18  N        -97.4120   16.3400  -30.4030 N.3   163  ARG163     -0.1245
     19  CA       -98.4280   17.4020  -30.3790 C.3   163  ARG163      0.1563
     20  C        -97.8410   18.7770  -30.7790 C.2   163  ARG163      0.2260
     21  O        -96.9200   19.2530  -30.1410 O.2   163  ARG163     -0.2867
     22  CB       -99.0650   17.4530  -28.9690 C.3   163  ARG163      0.0307
     23  CG      -100.2220   18.4580  -28.8110 C.3   163  ARG163      0.0489
     24  CD      -101.5310   18.0070  -29.5380 C.3   163  ARG163      0.2205
     25  NE      -102.4680   19.1500  -29.7400 N.pl3 163  ARG163     -0.0865
     26  CZ      -103.4300   19.5490  -28.8870 C.cat 163  ARG163      0.5346
     27  NH1     -103.6730   18.9120  -27.7300 N.pl3 163  ARG163      0.1354
     28  NH2     -104.1610   20.6140  -29.2070 N.pl3 163  ARG163      0.1354
     29  N       -100.8970   23.0440  -28.4760 N.3   166  ASP166     -0.1225
     30  CA      -102.0420   22.9960  -27.5590 C.3   166  ASP166      0.1805
     31  C       -102.1020   24.3010  -26.7600 C.2   166  ASP166      0.2598
     32  O       -101.0680   24.8690  -26.3880 O.2   166  ASP166     -0.2718
     33  CB      -102.0160   21.7730  -26.6300 C.3   166  ASP166      0.1424
     34  CG      -103.3780   21.5730  -25.8760 C.2   166  ASP166      0.3668
     35  OD1     -104.4590   21.9220  -26.4310 O.co2 166  ASP166     -0.2456
     36  OD2     -103.3870   21.0960  -24.6950 O.co2 166  ASP166     -0.2456
     37  N       -103.3260   24.7850  -26.5480 N.am  167  ILE167     -0.1966
     38  CA      -103.5670   26.0890  -25.9420 C.3   167  ILE167      0.1727
     39  C       -104.7180   25.9090  -24.9770 C.2   167  ILE167      0.2616
     40  O       -105.8240   25.5760  -25.3920 O.2   167  ILE167     -0.2715
     41  CB      -103.9290   27.1920  -26.9830 C.3   167  ILE167      0.0290
     42  CG1     -102.8260   27.3360  -28.0360 C.3   167  ILE167      0.0022
     43  CG2     -104.1360   28.5520  -26.3180 C.3   167  ILE167      0.0023
     44  CD1     -103.1990   28.1840  -29.2300 C.3   167  ILE167      0.0001
     45  N       -104.4460   26.1570  -23.6990 N.am  168  ASP168     -0.1957
     46  CA      -105.3990   25.8840  -22.6230 C.3   168  ASP168      0.1840
     47  C       -105.7430   27.1540  -21.8330 C.2   168  ASP168      0.2621
     48  O       -104.9000   27.9960  -21.6260 O.2   168  ASP168     -0.2715
     49  CB      -104.8060   24.8200  -21.6920 C.3   168  ASP168      0.1450
     50  CG      -104.5490   23.5160  -22.4040 C.2   168  ASP168      0.3671
     51  OD1     -105.5130   22.9770  -23.0150 O.co2 168  ASP168     -0.2456
     52  OD2     -103.3860   23.0330  -22.3570 O.co2 168  ASP168     -0.2456
     53  N       -107.0000   27.2920  -21.4420 N.am  169  ILE169     -0.1977
     54  CA      -107.3920   28.3170  -20.4940 C.3   169  ILE169      0.1596
     55  C       -107.1850   27.8100  -19.0780 C.2   169  ILE169      0.2287
     56  O       -107.8610   26.8790  -18.6530 O.2   169  ILE169     -0.2864
     57  CB      -108.8680   28.7570  -20.5860 C.3   169  ILE169      0.0276
     58  CG1     -109.2880   29.0460  -22.0180 C.3   169  ILE169      0.0022
     59  CG2     -109.0670   30.0030  -19.7360 C.3   169  ILE169      0.0022
     60  CD1     -110.7750   29.3400  -22.1640 C.3   169  ILE169      0.0001
     61  N       -113.9040   18.4430  -30.5870 N.3   217  LYS217     -0.1231
     62  CA      -112.6690   18.7190  -29.8740 C.3   217  LYS217      0.1693
     63  C       -112.9310   19.3550  -28.5080 C.2   217  LYS217      0.2592
     64  O       -112.0430   19.9740  -27.9410 O.2   217  LYS217     -0.2718
     65  CB      -111.7600   19.5980  -30.7510 C.3   217  LYS217      0.0285
     66  CG      -111.2470   18.8350  -31.9720 C.3   217  LYS217      0.0035
     67  CD      -111.2760   19.6320  -33.2700 C.3   217  LYS217      0.0206
     68  CE      -111.2330   18.7330  -34.5060 C.3   217  LYS217      0.1093
     69  NZ      -112.5280   18.0590  -34.7870 N.3   217  LYS217     -0.1314
     70  N       -114.1430   19.2160  -27.9770 N.am  218  ILE218     -0.1966
     71  CA      -114.4810   19.8510  -26.7100 C.3   218  ILE218      0.1727
     72  C       -115.4110   18.9810  -25.8770 C.2   218  ILE218      0.2616
     73  O       -116.6140   18.9790  -26.1380 O.2   218  ILE218     -0.2715
     74  CB      -115.1760   21.1940  -26.9550 C.3   218  ILE218      0.0290
     75  CG1     -114.2250   22.1690  -27.6240 C.3   218  ILE218      0.0022
     76  CG2     -115.6300   21.8210  -25.6480 C.3   218  ILE218      0.0023
     77  CD1     -114.9570   23.3100  -28.2850 C.3   218  ILE218      0.0001
     78  N       -114.8920   18.2530  -24.8780 N.am  219  GLU219     -0.1963
     79  CA      -115.7910   17.3900  -24.0760 C.3   219  GLU219      0.1733
     80  C       -116.2350   18.0730  -22.7900 C.2   219  GLU219      0.2616
     81  O       -117.3730   17.9040  -22.3330 O.2   219  GLU219     -0.2715
     82  CB      -115.2260   15.9870  -23.7770 C.3   219  GLU219      0.0429
     83  CG      -116.3440   14.9380  -23.7800 C.3   219  GLU219      0.1163
     84  CD      -116.1120   13.7040  -22.8770 C.2   219  GLU219      0.3649
     85  OE1     -115.1560   12.9170  -23.1410 O.co2 219  GLU219     -0.2457
     86  OE2     -116.9180   13.4760  -21.9170 O.co2 219  GLU219     -0.2457
     87  N       -115.3440   18.8650  -22.2110 N.am  220  PHE220     -0.1960
     88  CA      -115.6840   19.5390  -20.9860 C.3   220  PHE220      0.1771
     89  C       -114.9710   20.8650  -20.8980 C.2   220  PHE220      0.2619
     90  O       -113.9880   21.1100  -21.5930 O.2   220  PHE220     -0.2715
     91  CB      -115.3830   18.6360  -19.7870 C.3   220  PHE220      0.0574
     92  CG      -113.9310   18.3050  -19.6330 C.ar  220  PHE220     -0.0200
     93  CD1     -113.3340   17.3290  -20.4090 C.ar  220  PHE220     -0.0042
     94  CD2     -113.1460   18.9670  -18.6900 C.ar  220  PHE220     -0.0042
     95  CE1     -111.9710   17.0170  -20.2520 C.ar  220  PHE220     -0.0003
     96  CE2     -111.7800   18.6750  -18.5290 C.ar  220  PHE220     -0.0003
     97  CZ      -111.1850   17.6970  -19.3080 C.ar  220  PHE220     -0.0000
     98  N       -115.5330   21.7180  -20.0500 N.am  221  LEU221     -0.1963
     99  CA      -114.9740   23.0280  -19.7140 C.3   221  LEU221      0.1728
    100  C       -114.7350   23.0710  -18.2260 C.2   221  LEU221      0.2616
    101  O       -115.5790   22.6410  -17.4390 O.2   221  LEU221     -0.2715
    102  CB      -115.9270   24.1610  -20.0910 C.3   221  LEU221      0.0311
    103  CG      -115.3960   25.5350  -19.7610 C.3   221  LEU221      0.0022
    104  CD1     -114.0650   25.8280  -20.4180 C.3   221  LEU221      0.0001
    105  CD2     -116.4270   26.5350  -20.2050 C.3   221  LEU221      0.0001
    106  N       -113.6180   23.6710  -17.8520 N.am  222  CYS222     -0.1954
    107  CA      -113.0880   23.5270  -16.5260 C.3   222  CYS222      0.1843
    108  C       -112.2000   24.6950  -16.1100 C.2   222  CYS222      0.2625
    109  O       -111.0850   24.8300  -16.6090 O.2   222  CYS222     -0.2714
    110  CB      -112.2700   22.2710  -16.5160 C.3   222  CYS222      0.0997
    111  SG      -112.0230   21.8430  -14.8280 S.3   222  CYS222     -0.0797
    112  N       -112.6880   25.5440  -15.2090 N.am  223  ILE223     -0.1977
    113  CA      -111.9500   26.7600  -14.7800 C.3   223  ILE223      0.1596
    114  C       -111.7630   26.7490  -13.2670 C.2   223  ILE223      0.2287
    115  O       -112.7220   26.8850  -12.5320 O.2   223  ILE223     -0.2864
    116  CB      -112.6750   28.0840  -15.1620 C.3   223  ILE223      0.0276
    117  CG1     -112.8270   28.2160  -16.6490 C.3   223  ILE223      0.0022
    118  CG2     -111.8800   29.2720  -14.6770 C.3   223  ILE223      0.0022
    119  CD1     -111.5350   28.0130  -17.4050 C.3   223  ILE223      0.0001
    120  N       -108.0400   25.3290  -15.1270 N.3   225  HIS225     -0.1241
    121  CA      -107.5620   24.1400  -15.7380 C.3   225  HIS225      0.1621
    122  C       -107.2620   23.0600  -14.6810 C.2   225  HIS225      0.2264
    123  O       -106.4940   23.2270  -13.7430 O.2   225  HIS225     -0.2867
    124  CB      -106.3520   24.4480  -16.5960 C.3   225  HIS225      0.0745
    125  CG      -105.9120   23.2940  -17.4160 C.ar  225  HIS225      0.0817
    126  ND1     -106.7540   22.6510  -18.2940 N.ar  225  HIS225     -0.2268
    127  CD2     -104.7310   22.6400  -17.4770 C.ar  225  HIS225      0.1154
    128  CE1     -106.1030   21.6600  -18.8760 C.ar  225  HIS225      0.1986
    129  NE2     -104.8730   21.6300  -18.3960 N.ar  225  HIS225     -0.2212
@<TRIPOS>BOND
     1    69    68    1
     2    68    67    1
     3    67    66    1
     4    12    11    2
     5    11    10    1
     6    66    65    1
     7    20    19    1
     8    20    21    2
     9    65    62    1
    10    10    13    1
    11    10     9    1
    12    61    62    1
    13    13    14    1
    14    18    19    1
    15    19    22    1
    16    62    63    1
    17    25    24    1
    18    25    26    2
    19    24    23    1
    20    44    42    1
    21    28    26    1
    22    14    15    1
    23    22    23    1
    24    26    27    1
    25    15    16    1
    26    63    70   am
    27    63    64    2
    28    29    30    1
    29    77    75    1
    30    16    17    1
    31    42    41    1
    32    70    71    1
    33     4     3    2
    34    75    74    1
    35    30    31    1
    36    30    33    1
    37     3     2    1
    38    41    43    1
    39    41    38    1
    40    74    71    1
    41    74    76    1
    42    31    37   am
    43    31    32    2
    44    71    72    1
    45    33    34    1
    46    37    38    1
    47    35    34   ar
    48    73    72    2
    49    38    39    1
    50    72    78   am
    51    34    36   ar
    52     2     1    1
    53     2     5    1
    54    40    39    2
    55     6     5    1
    56     6     7    1
    57     6     8    1
    58    39    45   am
    59    78    79    1
    60    79    82    1
    61    79    80    1
    62    83    82    1
    63    83    84    1
    64    45    46    1
    65    85    84   ar
    66    51    50   ar
    67    84    86   ar
    68    80    81    2
    69    80    87   am
    70    46    47    1
    71    46    49    1
    72    50    52   ar
    73    50    49    1
    74    87    88    1
    75    60    58    1
    76    58    57    1
    77    47    48    2
    78    47    53   am
    79    90    89    2
    80    53    54    1
    81    88    89    1
    82    88    91    1
    83    89    98   am
    84    57    54    1
    85    57    59    1
    86    54    55    1
    87   104   103    1
    88    93    95   ar
    89    93    92   ar
    90    95    97   ar
    91   105   103    1
    92   102   103    1
    93   102    99    1
    94    98    99    1
    95    91    92    1
    96    99   100    1
    97    92    94   ar
    98    97    96   ar
    99    55    56    2
   100   128   129   ar
   101   128   126   ar
   102    94    96   ar
   103   129   127   ar
   104   126   125   ar
   105   100   106   am
   106   100   101    2
   107   106   107    1
   108   127   125   ar
   109   125   124    1
   110   119   117    1
   111   117   116    1
   112   109   108    2
   113   124   121    1
   114   107   110    1
   115   107   108    1
   116   110   111    1
   117   108   112   am
   118   121   120    1
   119   121   122    1
   120   112   113    1
   121   116   113    1
   122   116   118    1
   123   113   114    1
   124   122   123    2
   125   114   115    2
