@<TRIPOS>MOLECULE
tmp/5z7bB00.pdb
 111 103 0 0 0
SMALL
GASTEIGER

@<TRIPOS>ATOM
      1  N         37.9410   28.8770   34.8590 N.3    14  ALA14      -0.1231
      2  CA        38.3980   28.1040   36.0080 C.3    14  ALA14       0.1694
      3  C         39.7740   28.6080   36.5210 C.2    14  ALA14       0.2591
      4  O         39.9650   28.8620   37.7000 O.2    14  ALA14      -0.2718
      5  CB        38.4370   26.6260   35.6520 C.3    14  ALA14       0.0304
      6  N         40.7170   28.8070   35.6200 N.am   15  LEU15      -0.1980
      7  CA        42.0430   29.2530   36.0310 C.3    15  LEU15       0.1596
      8  C         41.9560   30.6480   36.6320 C.2    15  LEU15       0.2287
      9  O         42.5320   30.9200   37.6650 O.2    15  LEU15      -0.2864
     10  CB        43.0050   29.2430   34.8390 C.3    15  LEU15       0.0297
     11  CG        44.4300   29.8070   35.0430 C.3    15  LEU15       0.0022
     12  CD1       45.3100   28.9450   35.9920 C.3    15  LEU15       0.0001
     13  CD2       45.1190   29.9890   33.6860 C.3    15  LEU15       0.0001
     14  N         49.2190   23.9510   34.7390 N.3    33  SER33      -0.1202
     15  CA        48.1400   23.4810   35.6230 C.3    33  SER33       0.2020
     16  C         46.9860   22.8620   34.8060 C.2    33  SER33       0.2618
     17  O         47.0930   21.7120   34.3570 O.2    33  SER33      -0.2717
     18  CB        47.6430   24.6210   36.5020 C.3    33  SER33       0.2103
     19  OG        47.1580   25.6820   35.7230 O.3    33  SER33      -0.2182
     20  N         45.9310   23.6260   34.5580 N.am   34  VAL34      -0.1979
     21  CA        44.7410   23.0690   33.9080 C.3    34  VAL34       0.1595
     22  C         45.0410   22.5150   32.5060 C.2    34  VAL34       0.2287
     23  O         44.4080   21.5450   32.0580 O.2    34  VAL34      -0.2864
     24  CB        43.5830   24.0710   33.8730 C.3    34  VAL34       0.0276
     25  CG1       43.9670   25.3530   33.1150 C.3    34  VAL34       0.0022
     26  CG2       42.3140   23.4200   33.2880 C.3    34  VAL34       0.0022
     27  N         44.9580   18.8160   31.5940 N.3    37  VAL37      -0.1245
     28  CA        43.7150   18.0960   31.3180 C.3    37  VAL37       0.1561
     29  C         42.9190   18.6840   30.1400 C.2    37  VAL37       0.2260
     30  O         42.1250   17.9700   29.5010 O.2    37  VAL37      -0.2867
     31  CB        42.8600   17.9650   32.5970 C.3    37  VAL37       0.0252
     32  CG1       43.6370   17.1720   33.6330 C.3    37  VAL37       0.0019
     33  CG2       42.4650   19.3430   33.1660 C.3    37  VAL37       0.0019
     34  N         52.6480   15.7730   39.8450 N.3   138  MET138     -0.1245
     35  CA        51.6810   16.8400   40.0560 C.3   138  MET138      0.1570
     36  C         50.8870   16.6420   41.3560 C.2   138  MET138      0.2261
     37  O         50.6340   17.5970   42.0910 O.2   138  MET138     -0.2867
     38  CB        50.7130   16.9180   38.8910 C.3   138  MET138      0.0387
     39  CG        49.6410   18.0200   39.0100 C.3   138  MET138      0.0595
     40  SD        50.3010   19.7000   39.2010 S.3   138  MET138     -0.1393
     41  CE        51.1720   19.8490   37.6210 C.3   138  MET138      0.0692
     42  N         50.3960   19.2140   44.6020 N.3   142  LEU142     -0.1245
     43  CA        49.0640   19.6060   45.0260 C.3   142  LEU142      0.1561
     44  C         48.8970   19.3370   46.5170 C.2   142  LEU142      0.2260
     45  O         48.4850   20.2250   47.2660 O.2   142  LEU142     -0.2867
     46  CB        47.9850   18.8490   44.2340 C.3   142  LEU142      0.0270
     47  CG        47.9070   19.1650   42.7360 C.3   142  LEU142      0.0019
     48  CD1       46.9280   18.2290   41.9990 C.3   142  LEU142      0.0001
     49  CD2       47.5140   20.6110   42.5090 C.3   142  LEU142      0.0001
     50  N         52.1380   24.0550   44.6210 N.3   147  HIS147     -0.1241
     51  CA        51.8670   24.4420   43.2300 C.3   147  HIS147      0.1621
     52  C         51.4030   25.8980   43.2490 C.2   147  HIS147      0.2264
     53  O         50.5190   26.2200   44.0210 O.2   147  HIS147     -0.2867
     54  CB        50.8030   23.5420   42.5850 C.3   147  HIS147      0.0745
     55  CG        50.6390   23.8000   41.1260 C.ar  147  HIS147      0.0817
     56  ND1       49.9990   24.9240   40.6390 N.ar  147  HIS147     -0.2268
     57  CD2       51.1210   23.1410   40.0440 C.ar  147  HIS147      0.1154
     58  CE1       50.0670   24.9270   39.3190 C.ar  147  HIS147      0.1986
     59  NE2       50.7420   23.8550   38.9330 N.ar  147  HIS147     -0.2212
     60  N         49.6590   28.0300   41.2640 N.3   149  THR149     -0.1203
     61  CA        48.2480   28.3590   41.0070 C.3   149  THR149      0.1994
     62  C         47.3750   27.8430   42.1520 C.2   149  THR149      0.2617
     63  O         46.5340   28.5740   42.6580 O.2   149  THR149     -0.2717
     64  CB        47.7600   27.8730   39.6270 C.3   149  THR149      0.1784
     65  OG1       48.4940   28.5660   38.6050 O.3   149  THR149     -0.2211
     66  CG2       46.2610   28.1430   39.4380 C.3   149  THR149      0.0376
     67  N         47.5960   26.6020   42.5910 N.am  150  LEU150     -0.1979
     68  CA        46.8660   26.0940   43.7370 C.3   150  LEU150      0.1596
     69  C         47.0720   26.9590   44.9760 C.2   150  LEU150      0.2287
     70  O         46.0870   27.2890   45.6560 O.2   150  LEU150     -0.2864
     71  CB        47.2030   24.6180   44.0260 C.3   150  LEU150      0.0297
     72  CG        46.5270   24.0830   45.2960 C.3   150  LEU150      0.0022
     73  CD1       45.0100   24.0420   45.0940 C.3   150  LEU150      0.0001
     74  CD2       47.0450   22.7310   45.6890 C.3   150  LEU150      0.0001
     75  N         44.9780   30.0280   44.7860 N.3   153  ARG153     -0.1245
     76  CA        43.5590   29.6760   44.9470 C.3   153  ARG153      0.1563
     77  C         43.1620   29.4980   46.4240 C.2   153  ARG153      0.2260
     78  O         42.1320   30.0310   46.8960 O.2   153  ARG153     -0.2867
     79  CB        43.2690   28.4110   44.1250 C.3   153  ARG153      0.0307
     80  CG        41.8090   27.9550   44.1150 C.3   153  ARG153      0.0489
     81  CD        41.6280   26.6640   43.2580 C.3   153  ARG153      0.2205
     82  NE        42.0530   26.8720   41.8940 N.pl3 153  ARG153     -0.0865
     83  CZ        41.3940   27.6150   41.0070 C.cat 153  ARG153      0.5346
     84  NH1       40.2470   28.2390   41.3350 N.pl3 153  ARG153      0.1354
     85  NH2       41.9020   27.7710   39.7920 N.pl3 153  ARG153      0.1354
     86  N         41.4510   18.5590   42.6680 N.3   169  LYS169     -0.1245
     87  CA        42.6130   18.6430   41.7720 C.3   169  LYS169      0.1561
     88  C         43.3070   17.2720   41.7670 C.2   169  LYS169      0.2260
     89  O         43.6660   16.7640   40.7300 O.2   169  LYS169     -0.2867
     90  CB        43.5930   19.7240   42.2130 C.3   169  LYS169      0.0271
     91  CG        42.9960   21.1090   42.4860 C.3   169  LYS169      0.0035
     92  CD        42.3560   21.7420   41.2650 C.3   169  LYS169      0.0206
     93  CE        41.4890   22.9500   41.6660 C.3   169  LYS169      0.1093
     94  NZ        40.2890   22.4830   42.4520 N.3   169  LYS169     -0.1314
     95  N         41.4030   14.6440   39.5990 N.3   172  ALA172     -0.1231
     96  CA        41.6480   14.7820   38.1770 C.3   172  ALA172      0.1694
     97  C         42.9140   14.0310   37.7790 C.2   172  ALA172      0.2592
     98  O         42.8970   13.3160   36.8060 O.2   172  ALA172     -0.2718
     99  CB        41.7540   16.2410   37.7820 C.3   172  ALA172      0.0304
    100  N         43.9900   14.1880   38.5500 N.am  173  TYR173     -0.1976
    101  CA        45.2520   13.5250   38.2420 C.3   173  TYR173      0.1639
    102  C         45.2390   12.0270   38.5570 C.2   173  TYR173      0.2290
    103  O         45.8730   11.2580   37.8410 O.2   173  TYR173     -0.2864
    104  CB        46.4420   14.2890   38.8560 C.3   173  TYR173      0.0560
    105  CG        46.6370   15.6050   38.1190 C.ar  173  TYR173     -0.0198
    106  CD1       47.2350   15.6230   36.8740 C.ar  173  TYR173     -0.0009
    107  CD2       46.1310   16.7950   38.6180 C.ar  173  TYR173     -0.0009
    108  CE1       47.3810   16.8000   36.1530 C.ar  173  TYR173      0.0417
    109  CE2       46.2440   18.0020   37.8910 C.ar  173  TYR173      0.0417
    110  CZ        46.8710   17.9950   36.6610 C.ar  173  TYR173      0.1957
    111  OH        47.0260   19.1450   35.9210 O.3   173  TYR173     -0.2866
@<TRIPOS>BOND
     1    30    29    2
     2    29    28    1
     3    28    27    1
     4    28    31    1
     5    23    22    2
     6    22    21    1
     7    31    33    1
     8    31    32    1
     9    25    24    1
    10    26    24    1
    11    13    11    1
    12    24    21    1
    13    21    20    1
    14    17    16    2
    15    20    16   am
    16    14    15    1
    17    16    15    1
    18    10    11    1
    19    10     7    1
    20     1     2    1
    21    11    12    1
    22     6     7    1
    23     6     3   am
    24    15    18    1
    25     5     2    1
    26    19    18    1
    27   111   110    1
    28     2     3    1
    29     7     8    1
    30   108   110   ar
    31   108   106   ar
    32     3     4    2
    33     8     9    2
    34   110   109   ar
    35    98    97    2
    36   106   105   ar
    37    41    40    1
    38    97    96    1
    39    97   100   am
    40    99    96    1
    41   103   102    2
    42   109   107   ar
    43   105   107   ar
    44   105   104    1
    45    96    95    1
    46   101   100    1
    47   101   102    1
    48   101   104    1
    49    65    64    1
    50    38    39    1
    51    38    35    1
    52    59    58   ar
    53    59    57   ar
    54    39    40    1
    55    58    56   ar
    56    66    64    1
    57    64    61    1
    58    85    83    1
    59    34    35    1
    60    57    55   ar
    61    35    36    1
    62    56    55   ar
    63    89    88    2
    64    83    84    1
    65    83    82    2
    66    61    60    1
    67    61    62    1
    68    55    54    1
    69    92    93    1
    70    92    91    1
    71    36    37    2
    72    93    94    1
    73    88    87    1
    74    87    90    1
    75    87    86    1
    76    82    81    1
    77    48    47    1
    78    62    67   am
    79    62    63    2
    80    90    91    1
    81    49    47    1
    82    54    51    1
    83    67    68    1
    84    47    46    1
    85    51    52    1
    86    51    50    1
    87    52    53    2
    88    81    80    1
    89    68    71    1
    90    68    69    1
    91    71    72    1
    92    80    79    1
    93    79    76    1
    94    46    43    1
    95    42    43    1
    96    75    76    1
    97    76    77    1
    98    69    70    2
    99    43    44    1
   100    73    72    1
   101    72    74    1
   102    77    78    2
   103    44    45    2
