@<TRIPOS>MOLECULE
tmp/5z7jC00.pdb
 184 181 0 0 0
SMALL
GASTEIGER

@<TRIPOS>ATOM
      1  N        -26.9910   28.3670   -8.5100 N.3    32  ASP32      -0.1225
      2  CA       -27.3850   27.8110   -7.2330 C.3    32  ASP32       0.1805
      3  C        -28.1020   28.9110   -6.4460 C.2    32  ASP32       0.2598
      4  O        -28.3760   29.9810   -6.9660 O.2    32  ASP32      -0.2718
      5  CB       -26.1510   27.3510   -6.4680 C.3    32  ASP32       0.1424
      6  CG       -25.1010   28.4400   -6.3560 C.2    32  ASP32       0.3668
      7  OD1      -25.2350   29.2890   -5.4640 O.co2  32  ASP32      -0.2456
      8  OD2      -24.1610   28.4580   -7.1680 O.co2  32  ASP32      -0.2456
      9  N        -28.4130   28.6170   -5.1910 N.am   33  GLY33      -0.1942
     10  CA       -29.1240   29.5260   -4.3080 C.3    33  GLY33       0.2014
     11  C        -28.6150   30.9490   -4.2510 C.2    33  GLY33       0.2638
     12  O        -29.3800   31.8900   -4.1110 O.2    33  GLY33      -0.2714
     13  N        -27.3030   31.1120   -4.3530 N.am   34  LEU34      -0.1977
     14  CA       -26.6880   32.4330   -4.3040 C.3    34  LEU34       0.1596
     15  C        -27.0060   33.2750   -5.5380 C.2    34  LEU34       0.2287
     16  O        -26.8530   34.4850   -5.5220 O.2    34  LEU34      -0.2864
     17  CB       -25.1830   32.3190   -4.0870 C.3    34  LEU34       0.0297
     18  CG       -24.8090   31.5280   -2.8360 C.3    34  LEU34       0.0022
     19  CD1      -23.3060   31.4770   -2.6440 C.3    34  LEU34       0.0001
     20  CD2      -25.4980   32.0970   -1.6120 C.3    34  LEU34       0.0001
     21  N        -28.4940   22.8440   -6.1190 N.3   103  ALA103     -0.1231
     22  CA       -29.2660   23.2540   -4.9530 C.3   103  ALA103      0.1694
     23  C        -30.6370   23.7190   -5.3900 C.2   103  ALA103      0.2592
     24  O        -31.3980   22.9560   -5.9520 O.2   103  ALA103     -0.2718
     25  CB       -28.5390   24.3480   -4.1970 C.3   103  ALA103      0.0304
     26  N        -30.9530   24.9820   -5.1300 N.am  104  SER104     -0.1952
     27  CA       -32.2440   25.5380   -5.5220 C.3   104  SER104      0.1924
     28  C        -32.3680   25.5100   -7.0360 C.2   104  SER104      0.2314
     29  O        -33.4540   25.4200   -7.5810 O.2   104  SER104     -0.2863
     30  CB       -32.4430   26.9560   -4.9830 C.3   104  SER104      0.2116
     31  OG       -31.3410   27.7810   -5.2660 O.3   104  SER104     -0.2180
     32  N        -31.7990   19.9250   -2.6410 N.3   129  PRO129     -0.2116
     33  CA       -32.0430   19.9960   -1.2010 C.3   129  PRO129      0.1372
     34  C        -33.3620   19.3450   -0.8130 C.2   129  PRO129      0.2244
     35  O        -34.4050   19.7260   -1.3180 O.2   129  PRO129     -0.2868
     36  CB       -32.1020   21.5020   -0.9270 C.3   129  PRO129      0.0268
     37  CG       -31.4720   22.1450   -2.1090 C.3   129  PRO129      0.0207
     38  CD       -31.8100   21.2540   -3.2600 C.3   129  PRO129      0.0892
     39  N        -32.3560   19.9910    4.9040 N.3   132  ASN132     -0.1226
     40  CA       -31.3670   21.0030    5.2610 C.3   132  ASN132      0.1770
     41  C        -30.4010   20.5790    6.3510 C.2   132  ASN132      0.2439
     42  O        -30.7900   19.9360    7.3170 O.2   132  ASN132     -0.2733
     43  CB       -32.0740   22.2670    5.7450 C.3   132  ASN132      0.1168
     44  CG       -32.2260   23.3070    4.6590 C.2   132  ASN132      0.2627
     45  OD1      -31.5550   23.2580    3.6340 O.2   132  ASN132     -0.2716
     46  ND2      -33.1120   24.2630    4.8870 N.am  132  ASN132     -0.0877
     47  N        -29.1230   20.9390    6.1910 N.am  133  PRO133     -0.2729
     48  CA       -28.1360   20.6350    7.2260 C.3   133  PRO133      0.1401
     49  C        -28.4090   21.5380    8.4260 C.2   133  PRO133      0.2269
     50  O        -29.1230   22.5270    8.2960 O.2   133  PRO133     -0.2865
     51  CB       -26.8030   20.9850    6.5600 C.3   133  PRO133      0.0296
     52  CG       -27.1490   21.9320    5.4720 C.3   133  PRO133      0.0237
     53  CD       -28.5130   21.5430    4.9970 C.3   133  PRO133      0.0939
     54  N        -26.4840   23.5560    9.9610 N.3   135  ILE135     -0.1231
     55  CA       -25.8620   24.8710    9.8800 C.3   135  ILE135      0.1692
     56  C        -26.8480   25.9210    9.3860 C.2   135  ILE135      0.2591
     57  O        -26.6420   27.1080    9.5940 O.2   135  ILE135     -0.2718
     58  CB       -24.6540   24.8870    8.9240 C.3   135  ILE135      0.0266
     59  CG1      -24.9670   24.1100    7.6470 C.3   135  ILE135      0.0019
     60  CG2      -23.4130   24.3410    9.6110 C.3   135  ILE135      0.0020
     61  CD1      -23.8980   24.2260    6.5860 C.3   135  ILE135      0.0001
     62  N        -27.9230   25.4770    8.7420 N.am  136  LEU136     -0.1980
     63  CA       -28.9180   26.3900    8.1900 C.3   136  LEU136      0.1596
     64  C        -30.2240   26.4590    8.9680 C.2   136  LEU136      0.2287
     65  O        -31.0920   27.2600    8.6470 O.2   136  LEU136     -0.2864
     66  CB       -29.2490   25.9890    6.7530 C.3   136  LEU136      0.0297
     67  CG       -28.1140   25.8510    5.7450 C.3   136  LEU136      0.0022
     68  CD1      -28.6510   25.2670    4.4520 C.3   136  LEU136      0.0001
     69  CD2      -27.4650   27.1980    5.4960 C.3   136  LEU136      0.0001
     70  N        -22.6290   32.5530    6.0630 N.3   151  MET151     -0.1245
     71  CA       -22.8280   31.9810    4.7360 C.3   151  MET151      0.1570
     72  C        -21.5950   32.1010    3.8500 C.2   151  MET151      0.2261
     73  O        -21.3490   31.2530    3.0120 O.2   151  MET151     -0.2867
     74  CB       -24.0520   32.5880    4.0530 C.3   151  MET151      0.0387
     75  CG       -25.3780   32.2240    4.6990 C.3   151  MET151      0.0595
     76  SD       -25.6320   30.4620    4.9690 S.3   151  MET151     -0.1393
     77  CE       -25.0750   29.7960    3.4110 C.3   151  MET151      0.0692
     78  N        -19.4750   29.3740    5.1260 N.3   154  ASN154     -0.1225
     79  CA       -20.1800   28.1490    4.8120 C.3   154  ASN154      0.1785
     80  C        -19.9950   27.8080    3.3470 C.2   154  ASN154      0.2597
     81  O        -19.6260   26.6940    3.0010 O.2   154  ASN154     -0.2718
     82  CB       -21.6620   28.3060    5.1130 C.3   154  ASN154      0.1169
     83  CG       -21.9780   28.0960    6.5720 C.2   154  ASN154      0.2627
     84  OD1      -21.1150   27.7000    7.3490 O.2   154  ASN154     -0.2716
     85  ND2      -23.2170   28.3600    6.9530 N.am  154  ASN154     -0.0877
     86  N        -20.2590   28.7870    2.4920 N.am  155  SER155     -0.1952
     87  CA       -20.1440   28.6080    1.0560 C.3   155  SER155      0.1924
     88  C        -18.7200   28.2840    0.6430 C.2   155  SER155      0.2314
     89  O        -18.4910   27.4020   -0.1700 O.2   155  SER155     -0.2863
     90  CB       -20.6600   29.8400    0.3220 C.3   155  SER155      0.2116
     91  OG       -22.0140   30.0770    0.6430 O.3   155  SER155     -0.2180
     92  N        -17.8450   24.7870    1.2590 N.3   158  ALA158     -0.1245
     93  CA       -18.4960   23.8660    0.3480 C.3   158  ALA158      0.1562
     94  C        -18.1120   24.1590   -1.0920 C.2   158  ALA158      0.2260
     95  O        -18.7290   23.6470   -2.0120 O.2   158  ALA158     -0.2867
     96  CB       -20.0020   23.9470    0.5180 C.3   158  ALA158      0.0290
     97  N        -30.9670   35.5320    0.3920 N.3   183  TRP183     -0.1241
     98  CA       -31.1100   34.1050    0.1660 C.3   183  TRP183      0.1605
     99  C        -31.6850   33.4420    1.4030 C.2   183  TRP183      0.2264
    100  O        -32.6740   32.7280    1.3320 O.2   183  TRP183     -0.2867
    101  CB       -29.7610   33.4590   -0.1690 C.3   183  TRP183      0.0550
    102  CG       -29.8040   31.9550   -0.1380 C.ar  183  TRP183      0.0003
    103  CD1      -30.2360   31.1310   -1.1310 C.ar  183  TRP183      0.0946
    104  CD2      -29.4150   31.1030    0.9450 C.ar  183  TRP183      0.0152
    105  NE1      -30.1370   29.8240   -0.7380 N.ar  183  TRP183     -0.2442
    106  CE2      -29.6360   29.7800    0.5330 C.ar  183  TRP183      0.0810
    107  CE3      -28.8960   31.3290    2.2200 C.ar  183  TRP183      0.0012
    108  CZ2      -29.3660   28.6940    1.3510 C.ar  183  TRP183      0.0191
    109  CZ3      -28.6330   30.2540    3.0270 C.ar  183  TRP183      0.0001
    110  CH2      -28.8660   28.9520    2.5910 C.ar  183  TRP183      0.0015
    111  N        -35.0540   31.2750    0.9650 N.3   187  TYR187     -0.1228
    112  CA       -34.7640   29.9830    0.3490 C.3   187  TYR187      0.1721
    113  C        -34.7520   28.7330    1.2400 C.2   187  TYR187      0.2437
    114  O        -35.5600   27.8380    1.0620 O.2   187  TYR187     -0.2733
    115  CB       -33.4370   30.0590   -0.4100 C.3   187  TYR187      0.0547
    116  CG       -33.5100   30.6780   -1.7930 C.ar  187  TYR187     -0.0200
    117  CD1      -33.9080   31.9910   -1.9720 C.ar  187  TYR187     -0.0009
    118  CD2      -33.1520   29.9490   -2.9150 C.ar  187  TYR187     -0.0009
    119  CE1      -33.9600   32.5570   -3.2290 C.ar  187  TYR187      0.0417
    120  CE2      -33.2020   30.5070   -4.1730 C.ar  187  TYR187      0.0417
    121  CZ       -33.6090   31.8080   -4.3240 C.ar  187  TYR187      0.1957
    122  OH       -33.6540   32.3540   -5.5740 O.3   187  TYR187     -0.2866
    123  N        -33.8260   28.6790    2.2000 N.am  188  PRO188     -0.2729
    124  CA       -33.6310   27.5140    3.0710 C.3   188  PRO188      0.1401
    125  C        -34.8800   26.9450    3.7350 C.2   188  PRO188      0.2269
    126  O        -34.9780   25.7350    3.8600 O.2   188  PRO188     -0.2865
    127  CB       -32.6280   28.0140    4.1190 C.3   188  PRO188      0.0296
    128  CG       -32.6740   29.4950    4.0360 C.3   188  PRO188      0.0237
    129  CD       -32.9970   29.8190    2.6150 C.3   188  PRO188      0.0939
    130  N        -37.3650   25.8840    0.2190 N.3   191  ILE191     -0.1231
    131  CA       -36.8430   25.0980   -0.8980 C.3   191  ILE191      0.1678
    132  C        -36.9140   23.5820   -0.6890 C.2   191  ILE191      0.2434
    133  O        -37.4530   22.8720   -1.5230 O.2   191  ILE191     -0.2733
    134  CB       -35.4170   25.5360   -1.2980 C.3   191  ILE191      0.0265
    135  CG1      -35.4840   26.7430   -2.2290 C.3   191  ILE191      0.0019
    136  CG2      -34.6690   24.4120   -1.9890 C.3   191  ILE191      0.0020
    137  CD1      -36.0210   26.4170   -3.6010 C.3   191  ILE191      0.0001
    138  N        -36.3500   23.0910    0.4230 N.am  192  PRO192     -0.2729
    139  CA       -36.3030   21.6650    0.7640 C.3   192  PRO192      0.1401
    140  C        -37.6410   20.9390    0.6970 C.2   192  PRO192      0.2269
    141  O        -37.7430   19.9470   -0.0040 O.2   192  PRO192     -0.2865
    142  CB       -35.7610   21.6680    2.1910 C.3   192  PRO192      0.0296
    143  CG       -34.9070   22.8820    2.2410 C.3   192  PRO192      0.0237
    144  CD       -35.6260   23.9050    1.4110 C.3   192  PRO192      0.0939
    145  N        -25.2150   14.5930    3.3740 N.3   219  LEU219     -0.1231
    146  CA       -25.8360   15.8080    2.8560 C.3   219  LEU219      0.1693
    147  C        -26.8620   15.5820    1.7500 C.2   219  LEU219      0.2592
    148  O        -27.9580   16.1090    1.8080 O.2   219  LEU219     -0.2718
    149  CB       -24.7800   16.8230    2.4150 C.3   219  LEU219      0.0284
    150  CG       -23.9980   17.5070    3.5350 C.3   219  LEU219      0.0019
    151  CD1      -23.3010   18.7570    3.0340 C.3   219  LEU219      0.0001
    152  CD2      -24.8980   17.8270    4.7140 C.3   219  LEU219      0.0001
    153  N        -26.4890   14.8110    0.7400 N.am  220  PHE220     -0.1976
    154  CA       -27.3940   14.5550   -0.3670 C.3   220  PHE220      0.1639
    155  C        -27.6060   13.0740   -0.6130 C.2   220  PHE220      0.2290
    156  O        -27.8700   12.6410   -1.7240 O.2   220  PHE220     -0.2864
    157  CB       -26.9390   15.3080   -1.6130 C.3   220  PHE220      0.0560
    158  CG       -26.9300   16.7940   -1.4270 C.ar  220  PHE220     -0.0200
    159  CD1      -28.0980   17.5180   -1.5220 C.ar  220  PHE220     -0.0042
    160  CD2      -25.7620   17.4590   -1.1120 C.ar  220  PHE220     -0.0042
    161  CE1      -28.1010   18.8790   -1.3290 C.ar  220  PHE220     -0.0003
    162  CE2      -25.7560   18.8210   -0.9180 C.ar  220  PHE220     -0.0003
    163  CZ       -26.9290   19.5320   -1.0250 C.ar  220  PHE220     -0.0000
    164  N        -20.3090   21.5220   -3.8200 N.3   241  HIS241     -0.1226
    165  CA       -21.5170   22.2420   -4.1880 C.3   241  HIS241      0.1752
    166  C        -21.3740   23.1700   -5.3910 C.2   241  HIS241      0.2596
    167  O        -22.3660   23.6330   -5.9270 O.2   241  HIS241     -0.2718
    168  CB       -21.9680   23.0590   -2.9790 C.3   241  HIS241      0.0759
    169  CG       -23.4200   23.4140   -2.9790 C.ar  241  HIS241      0.0818
    170  ND1      -24.4190   22.4750   -3.0980 N.ar  241  HIS241     -0.2268
    171  CD2      -24.0420   24.6080   -2.8460 C.ar  241  HIS241      0.1154
    172  CE1      -25.5930   23.0750   -3.0470 C.ar  241  HIS241      0.1986
    173  NE2      -25.3920   24.3700   -2.8940 N.ar  241  HIS241     -0.2212
    174  N        -20.1440   23.4590   -5.7790 N.am  242  PHE242     -0.1976
    175  CA       -19.9040   24.3580   -6.8850 C.3   242  PHE242      0.1639
    176  C        -18.9350   23.7950   -7.9040 C.2   242  PHE242      0.2290
    177  O        -17.8790   24.3650   -8.1250 O.2   242  PHE242     -0.2864
    178  CB       -19.3530   25.6900   -6.3770 C.3   242  PHE242      0.0560
    179  CG       -20.2590   26.4100   -5.4250 C.ar  242  PHE242     -0.0200
    180  CD1      -21.1810   27.3240   -5.8880 C.ar  242  PHE242     -0.0042
    181  CD2      -20.1660   26.1960   -4.0670 C.ar  242  PHE242     -0.0042
    182  CE1      -22.0070   28.0000   -5.0150 C.ar  242  PHE242     -0.0003
    183  CE2      -20.9860   26.8700   -3.1860 C.ar  242  PHE242     -0.0003
    184  CZ       -21.9080   27.7730   -3.6610 C.ar  242  PHE242     -0.0000
@<TRIPOS>BOND
     1     1     2    1
     2   177   176    2
     3   176   175    1
     4    29    28    2
     5     2     5    1
     6     2     3    1
     7     8     6   ar
     8    28    27    1
     9     4     3    2
    10   175   178    1
    11   175   174    1
    12     5     6    1
    13     3     9   am
    14   178   179    1
    15     6     7   ar
    16    21    22    1
    17    24    23    2
    18   167   166    2
    19   180   179   ar
    20   180   182   ar
    21   174   166   am
    22   122   121    1
    23    15    16    2
    24    15    14    1
    25    27    26    1
    26    27    30    1
    27   179   181   ar
    28   166   165    1
    29    23    26   am
    30    23    22    1
    31    31    30    1
    32     9    10    1
    33   182   184   ar
    34    22    25    1
    35    13    14    1
    36    13    11   am
    37   121   120   ar
    38   121   119   ar
    39    10    11    1
    40    14    17    1
    41    11    12    2
    42   165   164    1
    43   165   168    1
    44   120   118   ar
    45    17    18    1
    46   181   183   ar
    47   184   183   ar
    48   137   135    1
    49    38    32    1
    50    38    37    1
    51   119   117   ar
    52   170   172   ar
    53   170   169   ar
    54   172   173   ar
    55   168   169    1
    56   169   171   ar
    57   118   116   ar
    58   173   171   ar
    59    18    19    1
    60    18    20    1
    61    32    33    1
    62   135   134    1
    63    37    36    1
    64    95    94    2
    65   136   134    1
    66   117   116   ar
    67   116   115    1
    68   156   155    2
    69   157   158    1
    70   157   154    1
    71   133   132    2
    72   159   158   ar
    73   159   161   ar
    74   158   160   ar
    75   161   163   ar
    76    35    34    2
    77   134   131    1
    78    33    36    1
    79    33    34    1
    80   103   105   ar
    81   103   102   ar
    82   160   162   ar
    83    94    93    1
    84   163   162   ar
    85   131   132    1
    86   131   130    1
    87   105   106   ar
    88   132   138   am
    89   155   154    1
    90   115   112    1
    91   154   153    1
    92    89    88    2
    93   101   102    1
    94   101    98    1
    95   102   104   ar
    96   141   140    2
    97    98    97    1
    98    98    99    1
    99    90    91    1
   100    90    87    1
   101    93    96    1
   102    93    92    1
   103   112   111    1
   104   112   113    1
   105   138   139    1
   106   138   144    1
   107   106   104   ar
   108   106   108   ar
   109    88    87    1
   110   140   139    1
   111   153   147   am
   112   139   142    1
   113   104   107   ar
   114    87    86    1
   115   114   113    2
   116   113   123   am
   117   100    99    2
   118   108   110   ar
   119   144   143    1
   120   147   148    2
   121   147   146    1
   122   142   143    1
   123   123   129    1
   124   123   124    1
   125   107   109   ar
   126   149   146    1
   127   149   150    1
   128    86    80   am
   129   110   109   ar
   130   129   128    1
   131   146   145    1
   132    81    80    2
   133    73    72    2
   134   151   150    1
   135   124   125    1
   136   124   127    1
   137    80    79    1
   138    77    76    1
   139   150   152    1
   140    45    44    2
   141   125   126    2
   142    72    71    1
   143   128   127    1
   144    74    75    1
   145    74    71    1
   146    68    67    1
   147    44    46   am
   148    44    43    1
   149    75    76    1
   150    71    70    1
   151    79    82    1
   152    79    78    1
   153    39    40    1
   154    53    52    1
   155    53    47    1
   156    82    83    1
   157    40    43    1
   158    40    41    1
   159    52    51    1
   160    69    67    1
   161    67    66    1
   162    47    41   am
   163    47    48    1
   164    41    42    2
   165    51    48    1
   166    83    85   am
   167    83    84    2
   168    61    59    1
   169    66    63    1
   170    48    49    1
   171    59    58    1
   172    63    62    1
   173    63    64    1
   174    50    49    2
   175    65    64    2
   176    62    56   am
   177    58    60    1
   178    58    55    1
   179    56    57    2
   180    56    55    1
   181    55    54    1
