@<TRIPOS>MOLECULE
tmp/5z7nA04.pdb
 104 100 0 0 0
SMALL
GASTEIGER

@<TRIPOS>ATOM
      1  N        -37.8080  -31.9560   -1.0750 N.3   252  TRP252     -0.1241
      2  CA       -39.1320  -32.2280   -1.6370 C.3   252  TRP252      0.1605
      3  C        -39.1680  -33.5180   -2.4520 C.2   252  TRP252      0.2264
      4  O        -40.0560  -34.3550   -2.2600 O.2   252  TRP252     -0.2867
      5  CB       -39.5950  -31.0500   -2.4950 C.3   252  TRP252      0.0550
      6  CG       -40.9990  -31.2150   -3.0290 C.ar  252  TRP252      0.0003
      7  CD1      -41.3620  -31.5450   -4.3060 C.ar  252  TRP252      0.0946
      8  CD2      -42.2200  -31.0480   -2.2970 C.ar  252  TRP252      0.0152
      9  NE1      -42.7330  -31.5860   -4.4150 N.ar  252  TRP252     -0.2442
     10  CE2      -43.2850  -31.2900   -3.1960 C.ar  252  TRP252      0.0810
     11  CE3      -42.5170  -30.7200   -0.9690 C.ar  252  TRP252      0.0012
     12  CZ2      -44.6290  -31.2070   -2.8090 C.ar  252  TRP252      0.0191
     13  CZ3      -43.8560  -30.6420   -0.5840 C.ar  252  TRP252      0.0001
     14  CH2      -44.8920  -30.8830   -1.5030 C.ar  252  TRP252      0.0015
     15  N        -39.5910  -34.4720    4.1330 N.3   292  GLU292     -0.1231
     16  CA       -40.8040  -33.7270    3.8000 C.3   292  GLU292      0.1699
     17  C        -41.9030  -34.7170    3.3730 C.2   292  GLU292      0.2592
     18  O        -41.9710  -35.1130    2.2110 O.2   292  GLU292     -0.2718
     19  CB       -40.4850  -32.6990    2.6980 C.3   292  GLU292      0.0402
     20  CG       -39.3840  -31.6900    3.1020 C.3   292  GLU292      0.1161
     21  CD       -39.0930  -30.6240    2.0390 C.2   292  GLU292      0.3649
     22  OE1      -39.9930  -30.2840    1.2560 O.co2 292  GLU292     -0.2457
     23  OE2      -37.9590  -30.0950    2.0110 O.co2 292  GLU292     -0.2457
     24  N        -42.7710  -35.1280    4.3060 N.am  293  PHE293     -0.1976
     25  CA       -42.7360  -34.8000    5.7290 C.3   293  PHE293      0.1639
     26  C        -43.2770  -36.0320    6.4570 C.2   293  PHE293      0.2290
     27  O        -44.0330  -36.8060    5.8650 O.2   293  PHE293     -0.2864
     28  CB       -43.7360  -33.6880    6.0570 C.3   293  PHE293      0.0560
     29  CG       -43.5630  -32.4500    5.2400 C.ar  293  PHE293     -0.0200
     30  CD1      -42.7220  -31.4300    5.6730 C.ar  293  PHE293     -0.0042
     31  CD2      -44.2350  -32.2970    4.0410 C.ar  293  PHE293     -0.0042
     32  CE1      -42.5520  -30.2780    4.9070 C.ar  293  PHE293     -0.0003
     33  CE2      -44.0670  -31.1500    3.2820 C.ar  293  PHE293     -0.0003
     34  CZ       -43.2290  -30.1460    3.7220 C.ar  293  PHE293     -0.0000
     35  N        -41.6360  -28.7950    8.4950 N.3   341  SER341     -0.1217
     36  CA       -42.7820  -27.9720    8.1360 C.3   341  SER341      0.1889
     37  C        -43.1220  -27.0310    9.2880 C.2   341  SER341      0.2288
     38  O        -42.9760  -27.3800   10.4620 O.2   341  SER341     -0.2866
     39  CB       -43.9910  -28.8560    7.8430 C.3   341  SER341      0.2089
     40  OG       -45.1580  -28.0590    7.7280 O.3   341  SER341     -0.2183
     41  N        -39.3070  -24.3200    8.5000 N.3   365  MET365     -0.1245
     42  CA       -39.5270  -23.8550    7.1250 C.3   365  MET365      0.1570
     43  C        -40.7000  -22.8710    7.0720 C.2   365  MET365      0.2261
     44  O        -41.7490  -23.1090    6.4670 O.2   365  MET365     -0.2867
     45  CB       -39.6860  -25.0250    6.1660 C.3   365  MET365      0.0387
     46  CG       -38.3980  -25.8040    6.0560 C.3   365  MET365      0.0595
     47  SD       -38.4670  -26.9540    4.6820 S.3   365  MET365     -0.1393
     48  CE       -39.4020  -28.1710    5.5180 C.3   365  MET365      0.0692
     49  N        -41.8380  -20.5440    5.3790 N.3   367  TYR367     -0.1227
     50  CA       -42.0170  -19.9550    4.0590 C.3   367  TYR367      0.1736
     51  C        -42.8930  -20.9060    3.2560 C.2   367  TYR367      0.2595
     52  O        -43.3210  -21.9500    3.7600 O.2   367  TYR367     -0.2718
     53  CB       -40.6790  -19.6640    3.3650 C.3   367  TYR367      0.0548
     54  CG       -39.6360  -20.7480    3.5400 C.ar  367  TYR367     -0.0200
     55  CD1      -39.6830  -21.9170    2.7850 C.ar  367  TYR367     -0.0009
     56  CD2      -38.6130  -20.6030    4.4610 C.ar  367  TYR367     -0.0009
     57  CE1      -38.7100  -22.9120    2.9420 C.ar  367  TYR367      0.0417
     58  CE2      -37.6440  -21.5820    4.6220 C.ar  367  TYR367      0.0417
     59  CZ       -37.6990  -22.7350    3.8660 C.ar  367  TYR367      0.1957
     60  OH       -36.7300  -23.7000    4.0360 O.3   367  TYR367     -0.2866
     61  N        -43.1790  -20.5290    2.0080 N.am  368  ASP368     -0.1974
     62  CA       -44.1070  -21.2770    1.1460 C.3   368  ASP368      0.1709
     63  C        -45.4990  -21.4050    1.7710 C.2   368  ASP368      0.2293
     64  O        -46.2290  -22.3510    1.4770 O.2   368  ASP368     -0.2864
     65  CB       -43.5880  -22.6720    0.7620 C.3   368  ASP368      0.1436
     66  CG       -42.2620  -22.6440    0.0090 C.2   368  ASP368      0.3671
     67  OD1      -41.8830  -21.5790   -0.5120 O.co2 368  ASP368     -0.2456
     68  OD2      -41.6040  -23.7170   -0.0750 O.co2 368  ASP368     -0.2456
     69  N        -48.0690  -19.6660    1.1700 N.3   370  TYR370     -0.1241
     70  CA       -49.0140  -19.4840    0.0850 C.3   370  TYR370      0.1605
     71  C        -48.2330  -19.5290   -1.2160 C.2   370  TYR370      0.2264
     72  O        -47.0200  -19.3100   -1.2380 O.2   370  TYR370     -0.2867
     73  CB       -49.7340  -18.1250    0.1890 C.3   370  TYR370      0.0534
     74  CG       -50.7430  -18.0350    1.3110 C.ar  370  TYR370     -0.0201
     75  CD1      -50.3440  -17.7560    2.6130 C.ar  370  TYR370     -0.0009
     76  CD2      -52.1000  -18.2090    1.0620 C.ar  370  TYR370     -0.0009
     77  CE1      -51.2650  -17.6720    3.6420 C.ar  370  TYR370      0.0417
     78  CE2      -53.0320  -18.1220    2.0810 C.ar  370  TYR370      0.0417
     79  CZ       -52.6130  -17.8540    3.3650 C.ar  370  TYR370      0.1957
     80  OH       -53.5390  -17.7660    4.3750 O.3   370  TYR370     -0.2866
     81  N        -49.9700  -22.9040   -6.1550 N.3   373  ALA373     -0.1245
     82  CA       -50.7270  -24.1520   -6.1230 C.3   373  ALA373      0.1562
     83  C        -52.1770  -23.9360   -5.7250 C.2   373  ALA373      0.2260
     84  O        -53.0160  -24.8010   -6.0030 O.2   373  ALA373     -0.2867
     85  CB       -50.0810  -25.1660   -5.1790 C.3   373  ALA373      0.0290
     86  N        -42.9940  -15.9740   -4.1670 N.3   423  ARG423     -0.1245
     87  CA       -43.9690  -16.7910   -4.8690 C.3   423  ARG423      0.1563
     88  C        -45.0720  -15.8680   -5.3540 C.2   423  ARG423      0.2260
     89  O        -45.2960  -14.7930   -4.7840 O.2   423  ARG423     -0.2867
     90  CB       -44.5580  -17.8680   -3.9580 C.3   423  ARG423      0.0307
     91  CG       -43.5550  -18.9650   -3.6220 C.3   423  ARG423      0.0489
     92  CD       -44.2140  -20.1300   -2.8880 C.3   423  ARG423      0.2205
     93  NE       -43.2900  -21.2550   -2.7750 N.pl3 423  ARG423     -0.0865
     94  CZ       -43.1370  -22.1970   -3.7000 C.cat 423  ARG423      0.5346
     95  NH1      -43.8600  -22.1690   -4.8180 N.pl3 423  ARG423      0.1354
     96  NH2      -42.2570  -23.1810   -3.5030 N.pl3 423  ARG423      0.1354
     97  N        -42.3440  -18.8840   -9.0070 N.3   453  ILE453     -0.1245
     98  CA       -41.2490  -18.5930   -8.0860 C.3   453  ILE453      0.1561
     99  C        -40.3080  -17.6070   -8.7650 C.2   453  ILE453      0.2260
    100  O        -39.9270  -17.8060   -9.9220 O.2   453  ILE453     -0.2867
    101  CB       -40.4720  -19.8710   -7.7120 C.3   453  ILE453      0.0252
    102  CG1      -41.3870  -20.9230   -7.0770 C.3   453  ILE453      0.0019
    103  CG2      -39.3030  -19.5350   -6.8000 C.3   453  ILE453      0.0019
    104  CD1      -40.7130  -22.2800   -6.9230 C.3   453  ILE453      0.0001
@<TRIPOS>BOND
     1   100    99    2
     2    97    98    1
     3    99    98    1
     4    98   101    1
     5   101   102    1
     6   101   103    1
     7   102   104    1
     8    81    82    1
     9    82    83    1
    10    82    85    1
    11    84    83    2
    12    88    87    1
    13    88    89    2
    14    87    86    1
    15    87    90    1
    16    95    94    1
    17     9     7   ar
    18     9    10   ar
    19     7     6   ar
    20    90    91    1
    21    94    96    1
    22    94    93    2
    23    91    92    1
    24    10    12   ar
    25    10     8   ar
    26     6     5    1
    27     6     8   ar
    28    92    93    1
    29    12    14   ar
    30     5     2    1
    31     3     4    2
    32     3     2    1
    33     8    11   ar
    34     2     1    1
    35    14    13   ar
    36    72    71    2
    37    71    70    1
    38    11    13   ar
    39    67    66   ar
    40    68    66   ar
    41    66    65    1
    42    70    73    1
    43    70    69    1
    44    73    74    1
    45    65    62    1
    46    76    74   ar
    47    76    78   ar
    48    62    63    1
    49    62    61    1
    50    22    21   ar
    51    74    75   ar
    52    64    63    2
    53    61    51   am
    54    23    21   ar
    55    21    20    1
    56    78    79   ar
    57    18    17    2
    58    75    77   ar
    59    19    20    1
    60    19    16    1
    61    55    57   ar
    62    55    54   ar
    63    57    59   ar
    64    51    52    2
    65    51    50    1
    66    33    34   ar
    67    33    31   ar
    68    53    54    1
    69    53    50    1
    70    79    77   ar
    71    79    80    1
    72    17    16    1
    73    17    24   am
    74    54    56   ar
    75    34    32   ar
    76    16    15    1
    77    59    60    1
    78    59    58   ar
    79    31    29   ar
    80    50    49    1
    81    24    25    1
    82    56    58   ar
    83    47    48    1
    84    47    46    1
    85    32    30   ar
    86    29    30   ar
    87    29    28    1
    88    25    28    1
    89    25    26    1
    90    27    26    2
    91    46    45    1
    92    45    42    1
    93    44    43    2
    94    43    42    1
    95    42    41    1
    96    40    39    1
    97    39    36    1
    98    36    35    1
    99    36    37    1
   100    37    38    2
