@<TRIPOS>MOLECULE
tmp/5z7nA00.pdb
 87 81 0 0 0
SMALL
GASTEIGER

@<TRIPOS>ATOM
      1  N        -39.4650  -35.3110  -12.5660 N.3   184  ILE184     -0.1245
      2  CA       -38.4070  -34.4690  -13.1170 C.3   184  ILE184      0.1561
      3  C        -37.6980  -35.2770  -14.1920 C.2   184  ILE184      0.2260
      4  O        -37.1080  -36.3250  -13.9000 O.2   184  ILE184     -0.2867
      5  CB       -37.4080  -34.0380  -12.0330 C.3   184  ILE184      0.0252
      6  CG1      -38.1230  -33.2860  -10.9100 C.3   184  ILE184      0.0019
      7  CG2      -36.3050  -33.1950  -12.6410 C.3   184  ILE184      0.0019
      8  CD1      -37.1990  -32.9400   -9.7210 C.3   184  ILE184      0.0001
      9  N        -37.8080  -31.9560   -1.0750 N.3   252  TRP252     -0.1227
     10  CA       -39.1320  -32.2280   -1.6370 C.3   252  TRP252      0.1737
     11  C        -39.1680  -33.5180   -2.4520 C.2   252  TRP252      0.2596
     12  O        -40.0560  -34.3550   -2.2600 O.2   252  TRP252     -0.2718
     13  CB       -39.5950  -31.0500   -2.4950 C.3   252  TRP252      0.0564
     14  CG       -40.9990  -31.2150   -3.0290 C.ar  252  TRP252      0.0003
     15  CD1      -41.3620  -31.5450   -4.3060 C.ar  252  TRP252      0.0946
     16  CD2      -42.2200  -31.0480   -2.2970 C.ar  252  TRP252      0.0152
     17  NE1      -42.7330  -31.5860   -4.4150 N.ar  252  TRP252     -0.2442
     18  CE2      -43.2850  -31.2900   -3.1960 C.ar  252  TRP252      0.0810
     19  CE3      -42.5170  -30.7200   -0.9690 C.ar  252  TRP252      0.0012
     20  CZ2      -44.6290  -31.2070   -2.8090 C.ar  252  TRP252      0.0191
     21  CZ3      -43.8560  -30.6420   -0.5840 C.ar  252  TRP252      0.0001
     22  CH2      -44.8920  -30.8830   -1.5030 C.ar  252  TRP252      0.0015
     23  N        -38.2200  -33.7050   -3.3780 N.am  253  THR253     -0.1953
     24  CA       -38.3200  -34.8370   -4.2980 C.3   253  THR253      0.1897
     25  C        -37.4630  -36.0390   -3.9260 C.2   253  THR253      0.2313
     26  O        -37.5430  -37.0630   -4.6150 O.2   253  THR253     -0.2863
     27  CB       -38.0270  -34.4260   -5.7470 C.3   253  THR253      0.1794
     28  OG1      -36.6490  -34.0500   -5.8830 O.3   253  THR253     -0.2208
     29  CG2      -38.9190  -33.2650   -6.1420 C.3   253  THR253      0.0378
     30  N        -39.5910  -34.4720    4.1330 N.3   292  GLU292     -0.1245
     31  CA       -40.8040  -33.7270    3.8000 C.3   292  GLU292      0.1567
     32  C        -41.9030  -34.7170    3.3730 C.2   292  GLU292      0.2260
     33  O        -41.9710  -35.1130    2.2110 O.2   292  GLU292     -0.2867
     34  CB       -40.4850  -32.6990    2.6980 C.3   292  GLU292      0.0388
     35  CG       -39.3840  -31.6900    3.1020 C.3   292  GLU292      0.1160
     36  CD       -39.0930  -30.6240    2.0390 C.2   292  GLU292      0.3649
     37  OE1      -39.9930  -30.2840    1.2560 O.co2 292  GLU292     -0.2457
     38  OE2      -37.9590  -30.0950    2.0110 O.co2 292  GLU292     -0.2457
     39  N        -43.1790  -20.5290    2.0080 N.3   368  ASP368     -0.1239
     40  CA       -44.1070  -21.2770    1.1460 C.3   368  ASP368      0.1674
     41  C        -45.4990  -21.4050    1.7710 C.2   368  ASP368      0.2266
     42  O        -46.2290  -22.3510    1.4770 O.2   368  ASP368     -0.2867
     43  CB       -43.5880  -22.6720    0.7620 C.3   368  ASP368      0.1410
     44  CG       -42.2620  -22.6440    0.0090 C.2   368  ASP368      0.3668
     45  OD1      -41.8830  -21.5790   -0.5120 O.co2 368  ASP368     -0.2456
     46  OD2      -41.6040  -23.7170   -0.0750 O.co2 368  ASP368     -0.2456
     47  N        -49.9700  -22.9040   -6.1550 N.3   373  ALA373     -0.1245
     48  CA       -50.7270  -24.1520   -6.1230 C.3   373  ALA373      0.1562
     49  C        -52.1770  -23.9360   -5.7250 C.2   373  ALA373      0.2260
     50  O        -53.0160  -24.8010   -6.0030 O.2   373  ALA373     -0.2867
     51  CB       -50.0810  -25.1660   -5.1790 C.3   373  ALA373      0.0290
     52  N        -42.9940  -15.9740   -4.1670 N.3   423  ARG423     -0.1245
     53  CA       -43.9690  -16.7910   -4.8690 C.3   423  ARG423      0.1563
     54  C        -45.0720  -15.8680   -5.3540 C.2   423  ARG423      0.2260
     55  O        -45.2960  -14.7930   -4.7840 O.2   423  ARG423     -0.2867
     56  CB       -44.5580  -17.8680   -3.9580 C.3   423  ARG423      0.0307
     57  CG       -43.5550  -18.9650   -3.6220 C.3   423  ARG423      0.0489
     58  CD       -44.2140  -20.1300   -2.8880 C.3   423  ARG423      0.2205
     59  NE       -43.2900  -21.2550   -2.7750 N.pl3 423  ARG423     -0.0865
     60  CZ       -43.1370  -22.1970   -3.7000 C.cat 423  ARG423      0.5346
     61  NH1      -43.8600  -22.1690   -4.8180 N.pl3 423  ARG423      0.1354
     62  NH2      -42.2570  -23.1810   -3.5030 N.pl3 423  ARG423      0.1354
     63  N        -38.6130  -21.5340  -12.4900 N.3   450  GLU450     -0.1231
     64  CA       -39.7240  -22.4530  -12.2770 C.3   450  GLU450      0.1699
     65  C        -40.9910  -21.6290  -12.1040 C.2   450  GLU450      0.2592
     66  O        -40.9540  -20.5170  -11.5690 O.2   450  GLU450     -0.2718
     67  CB       -39.5170  -23.3200  -11.0130 C.3   450  GLU450      0.0402
     68  CG       -38.2970  -24.2450  -11.0570 C.3   450  GLU450      0.1161
     69  CD       -37.7450  -24.6180   -9.6730 C.2   450  GLU450      0.3649
     70  OE1      -38.4830  -25.2000   -8.8420 O.co2 450  GLU450     -0.2457
     71  OE2      -36.5520  -24.3390   -9.4170 O.co2 450  GLU450     -0.2457
     72  N        -42.1170  -22.1850  -12.5520 N.am  451  ASN451     -0.1974
     73  CA       -43.3840  -21.4650  -12.4870 C.3   451  ASN451      0.1688
     74  C        -43.6940  -21.0210  -11.0660 C.2   451  ASN451      0.2292
     75  O        -43.5690  -21.7990  -10.1130 O.2   451  ASN451     -0.2864
     76  CB       -44.5210  -22.3590  -12.9820 C.3   451  ASN451      0.1181
     77  CG       -44.5110  -22.5350  -14.4760 C.2   451  ASN451      0.2629
     78  OD1      -43.6070  -22.0570  -15.1610 O.2   451  ASN451     -0.2716
     79  ND2      -45.5180  -23.2330  -14.9960 N.am  451  ASN451     -0.0877
     80  N        -42.3440  -18.8840   -9.0070 N.3   453  ILE453     -0.1245
     81  CA       -41.2490  -18.5930   -8.0860 C.3   453  ILE453      0.1561
     82  C        -40.3080  -17.6070   -8.7650 C.2   453  ILE453      0.2260
     83  O        -39.9270  -17.8060   -9.9220 O.2   453  ILE453     -0.2867
     84  CB       -40.4720  -19.8710   -7.7120 C.3   453  ILE453      0.0252
     85  CG1      -41.3870  -20.9230   -7.0770 C.3   453  ILE453      0.0019
     86  CG2      -39.3030  -19.5350   -6.8000 C.3   453  ILE453      0.0019
     87  CD1      -40.7130  -22.2800   -6.9230 C.3   453  ILE453      0.0001
@<TRIPOS>BOND
     1    78    77    2
     2    79    77   am
     3    77    76    1
     4     3     4    2
     5     3     2    1
     6     2     1    1
     7     2     5    1
     8    76    73    1
     9     7     5    1
    10    72    73    1
    11    72    65   am
    12    63    64    1
    13    73    74    1
    14    64    65    1
    15    64    67    1
    16    65    66    2
    17     5     6    1
    18    74    75    2
    19    68    67    1
    20    68    69    1
    21     6     8    1
    22    83    82    2
    23    69    71   ar
    24    69    70   ar
    25    80    81    1
    26    82    81    1
    27    81    84    1
    28    84    85    1
    29    84    86    1
    30    85    87    1
    31    47    48    1
    32    29    27    1
    33    48    49    1
    34    48    51    1
    35    50    49    2
    36    28    27    1
    37    27    24    1
    38    54    53    1
    39    54    55    2
    40    53    52    1
    41    53    56    1
    42    61    60    1
    43    26    25    2
    44    17    15   ar
    45    17    18   ar
    46    15    14   ar
    47    24    25    1
    48    24    23    1
    49    56    57    1
    50    60    62    1
    51    60    59    2
    52    57    58    1
    53    23    11   am
    54    18    20   ar
    55    18    16   ar
    56    14    13    1
    57    14    16   ar
    58    58    59    1
    59    20    22   ar
    60    13    10    1
    61    11    12    2
    62    11    10    1
    63    16    19   ar
    64    10     9    1
    65    22    21   ar
    66    19    21   ar
    67    45    44   ar
    68    46    44   ar
    69    44    43    1
    70    43    40    1
    71    40    41    1
    72    40    39    1
    73    37    36   ar
    74    42    41    2
    75    38    36   ar
    76    36    35    1
    77    33    32    2
    78    34    35    1
    79    34    31    1
    80    32    31    1
    81    31    30    1
