@<TRIPOS>MOLECULE
tmp/5z7nA03.pdb
 80 79 0 0 0
SMALL
GASTEIGER

@<TRIPOS>ATOM
      1  N        -27.6230  -28.5510   -8.0990 N.3   144  TRP144     -0.1241
      2  CA       -27.8620  -28.2440   -9.5060 C.3   144  TRP144      0.1605
      3  C        -27.8040  -26.7500   -9.8000 C.2   144  TRP144      0.2264
      4  O        -27.9910  -26.3500  -10.9620 O.2   144  TRP144     -0.2867
      5  CB       -29.2180  -28.8060   -9.9490 C.3   144  TRP144      0.0550
      6  CG       -30.3470  -28.2340   -9.1370 C.ar  144  TRP144      0.0003
      7  CD1      -31.0730  -27.0910   -9.4020 C.ar  144  TRP144      0.0946
      8  CD2      -30.8610  -28.7560   -7.9110 C.ar  144  TRP144      0.0152
      9  NE1      -32.0020  -26.8870   -8.4120 N.ar  144  TRP144     -0.2442
     10  CE2      -31.8940  -27.8950   -7.4870 C.ar  144  TRP144      0.0810
     11  CE3      -30.5450  -29.8720   -7.1270 C.ar  144  TRP144      0.0012
     12  CZ2      -32.6140  -28.1150   -6.3170 C.ar  144  TRP144      0.0191
     13  CZ3      -31.2690  -30.0920   -5.9710 C.ar  144  TRP144      0.0001
     14  CH2      -32.2830  -29.2140   -5.5710 C.ar  144  TRP144      0.0015
     15  N        -25.6190  -25.1050  -12.8190 N.3   147  TYR147     -0.1227
     16  CA       -25.9460  -25.2000  -14.2350 C.3   147  TYR147      0.1736
     17  C        -26.5440  -23.8690  -14.6800 C.2   147  TYR147      0.2596
     18  O        -25.8320  -22.8590  -14.7010 O.2   147  TYR147     -0.2718
     19  CB       -26.8620  -26.3990  -14.4780 C.3   147  TYR147      0.0548
     20  CG       -26.1860  -27.7320  -14.1980 C.ar  147  TYR147     -0.0200
     21  CD1      -25.1310  -28.1750  -14.9880 C.ar  147  TYR147     -0.0009
     22  CD2      -26.5970  -28.5440  -13.1370 C.ar  147  TYR147     -0.0009
     23  CE1      -24.5060  -29.3870  -14.7440 C.ar  147  TYR147      0.0417
     24  CE2      -25.9730  -29.7620  -12.8770 C.ar  147  TYR147      0.0417
     25  CZ       -24.9320  -30.1850  -13.6880 C.ar  147  TYR147      0.1957
     26  OH       -24.3250  -31.3990  -13.4580 O.3   147  TYR147     -0.2866
     27  N        -27.8510  -23.8400  -14.9520 N.am  148  GLY148     -0.1957
     28  CA       -28.4640  -22.6230  -15.4740 C.3   148  GLY148      0.1869
     29  C        -28.2950  -21.4150  -14.5700 C.2   148  GLY148      0.2309
     30  O        -28.0410  -20.3060  -15.0460 O.2   148  GLY148     -0.2863
     31  N        -39.4650  -35.3110  -12.5660 N.3   184  ILE184     -0.1231
     32  CA       -38.4070  -34.4690  -13.1170 C.3   184  ILE184      0.1692
     33  C        -37.6980  -35.2770  -14.1920 C.2   184  ILE184      0.2592
     34  O        -37.1080  -36.3250  -13.9000 O.2   184  ILE184     -0.2718
     35  CB       -37.4080  -34.0380  -12.0330 C.3   184  ILE184      0.0266
     36  CG1      -38.1230  -33.2860  -10.9100 C.3   184  ILE184      0.0019
     37  CG2      -36.3050  -33.1950  -12.6410 C.3   184  ILE184      0.0020
     38  CD1      -37.1990  -32.9400   -9.7210 C.3   184  ILE184      0.0001
     39  N        -37.7360  -34.7860  -15.4270 N.am  185  GLU185     -0.1966
     40  CA       -37.2140  -35.5570  -16.5460 C.3   185  GLU185      0.1733
     41  C        -35.7660  -35.9660  -16.2900 C.2   185  GLU185      0.2617
     42  O        -34.9190  -35.1330  -15.9530 O.2   185  GLU185     -0.2715
     43  CB       -37.3000  -34.7320  -17.8240 C.3   185  GLU185      0.0429
     44  CG       -36.5530  -35.3530  -18.9770 C.3   185  GLU185      0.1163
     45  CD       -37.2230  -35.0880  -20.3020 C.2   185  GLU185      0.3649
     46  OE1      -36.6680  -34.2980  -21.0960 O.co2 185  GLU185     -0.2457
     47  OE2      -38.3040  -35.6690  -20.5460 O.co2 185  GLU185     -0.2457
     48  N        -35.4970  -37.2650  -16.4220 N.am  186  GLY186     -0.1940
     49  CA       -34.1560  -37.7970  -16.2910 C.3   186  GLY186      0.2014
     50  C        -33.6680  -38.0240  -14.8740 C.2   186  GLY186      0.2639
     51  O        -32.6650  -38.7230  -14.6930 O.2   186  GLY186     -0.2714
     52  N        -34.3490  -37.4800  -13.8620 N.am  187  SER187     -0.1949
     53  CA       -33.7670  -37.4320  -12.5220 C.3   187  SER187      0.1924
     54  C        -33.8300  -38.7860  -11.8170 C.2   187  SER187      0.2314
     55  O        -32.8800  -39.1750  -11.1220 O.2   187  SER187     -0.2863
     56  CB       -34.4850  -36.3720  -11.6910 C.3   187  SER187      0.2116
     57  OG       -33.8100  -36.1780  -10.4670 O.3   187  SER187     -0.2180
     58  N        -31.1550  -40.8540  -13.3570 N.3   190  ALA190     -0.1245
     59  CA       -29.8410  -40.4350  -12.8790 C.3   190  ALA190      0.1562
     60  C        -29.5260  -41.0740  -11.5330 C.2   190  ALA190      0.2260
     61  O        -28.4150  -41.5760  -11.3190 O.2   190  ALA190     -0.2867
     62  CB       -29.7710  -38.9150  -12.7780 C.3   190  ALA190      0.0290
     63  N        -26.5330  -37.5830   -6.0000 N.3   206  HIS206     -0.1226
     64  CA       -27.5050  -37.5940   -7.0950 C.3   206  HIS206      0.1752
     65  C        -26.8410  -37.2710   -8.4310 C.2   206  HIS206      0.2596
     66  O        -27.1300  -37.9200   -9.4490 O.2   206  HIS206     -0.2718
     67  CB       -28.6270  -36.5950   -6.8120 C.3   206  HIS206      0.0759
     68  CG       -29.8600  -36.8300   -7.6300 C.ar  206  HIS206      0.0818
     69  ND1      -30.9610  -36.0090   -7.5620 N.ar  206  HIS206     -0.2268
     70  CD2      -30.1680  -37.8030   -8.5190 C.ar  206  HIS206      0.1154
     71  CE1      -31.8930  -36.4570   -8.3830 C.ar  206  HIS206      0.1986
     72  NE2      -31.4380  -37.5460   -8.9780 N.ar  206  HIS206     -0.2212
     73  N        -25.9700  -36.2590   -8.4460 N.am  207  ASP207     -0.1974
     74  CA       -25.3110  -35.7710   -9.6570 C.3   207  ASP207      0.1709
     75  C        -23.8110  -35.7550   -9.3890 C.2   207  ASP207      0.2293
     76  O        -23.2520  -34.7200   -8.9870 O.2   207  ASP207     -0.2864
     77  CB       -25.8430  -34.3910  -10.0270 C.3   207  ASP207      0.1436
     78  CG       -25.1970  -33.8120  -11.2870 C.2   207  ASP207      0.3671
     79  OD1      -24.2110  -34.3860  -11.8080 O.co2 207  ASP207     -0.2456
     80  OD2      -25.6980  -32.7650  -11.7480 O.co2 207  ASP207     -0.2456
@<TRIPOS>BOND
     1    46    45   ar
     2    47    45   ar
     3    45    44    1
     4    44    43    1
     5    43    40    1
     6    40    41    1
     7    40    39    1
     8    48    49    1
     9    48    41   am
    10    49    50    1
    11    41    42    2
    12    28    27    1
    13    28    29    1
    14    39    33   am
    15    30    29    2
    16    21    23   ar
    17    21    20   ar
    18    27    17   am
    19    50    51    2
    20    50    52   am
    21    23    25   ar
    22    18    17    2
    23    17    16    1
    24    19    16    1
    25    19    20    1
    26    16    15    1
    27    20    22   ar
    28    33    34    2
    29    33    32    1
    30    52    53    1
    31    25    26    1
    32    25    24   ar
    33    58    59    1
    34    22    24   ar
    35    32    31    1
    36    32    35    1
    37    59    62    1
    38    59    60    1
    39    37    35    1
    40    53    54    1
    41    53    56    1
    42    35    36    1
    43    54    55    2
    44    79    78   ar
    45    80    78   ar
    46    56    57    1
    47    60    61    2
    48    78    77    1
    49     4     3    2
    50    36    38    1
    51    77    74    1
    52     5     2    1
    53     5     6    1
    54     3     2    1
    55    74    75    1
    56    74    73    1
    57     2     1    1
    58    66    65    2
    59     7     6   ar
    60     7     9   ar
    61    75    76    2
    62     6     8   ar
    63    72    70   ar
    64    72    71   ar
    65    70    68   ar
    66    73    65   am
    67    65    64    1
    68     9    10   ar
    69    71    69   ar
    70     8    10   ar
    71     8    11   ar
    72    68    69   ar
    73    68    67    1
    74    10    12   ar
    75    11    13   ar
    76    64    67    1
    77    64    63    1
    78    12    14   ar
    79    13    14   ar
