@<TRIPOS>MOLECULE
tmp/5z7pA00.pdb
 132 131 0 0 0
SMALL
GASTEIGER

@<TRIPOS>ATOM
      1  N        -27.6010  -28.3980   -7.9870 N.3   144  TRP144     -0.1241
      2  CA       -27.8790  -28.1030   -9.4050 C.3   144  TRP144      0.1605
      3  C        -27.8130  -26.6060   -9.7060 C.2   144  TRP144      0.2264
      4  O        -28.0080  -26.1870  -10.8630 O.2   144  TRP144     -0.2867
      5  CB       -29.2680  -28.6720   -9.7740 C.3   144  TRP144      0.0550
      6  CG       -30.3710  -28.0630   -8.9290 C.ar  144  TRP144      0.0003
      7  CD1      -31.0790  -26.8880   -9.1830 C.ar  144  TRP144      0.0946
      8  CD2      -30.8940  -28.5830   -7.7080 C.ar  144  TRP144      0.0152
      9  NE1      -32.0050  -26.6870   -8.2090 N.ar  144  TRP144     -0.2442
     10  CE2      -31.9120  -27.7010   -7.2820 C.ar  144  TRP144      0.0810
     11  CE3      -30.6250  -29.7340   -6.9520 C.ar  144  TRP144      0.0012
     12  CZ2      -32.6390  -27.9110   -6.1130 C.ar  144  TRP144      0.0191
     13  CZ3      -31.3310  -29.9330   -5.7910 C.ar  144  TRP144      0.0001
     14  CH2      -32.3230  -29.0110   -5.3690 C.ar  144  TRP144      0.0015
     15  N        -25.5830  -25.0210  -12.7700 N.3   147  TYR147     -0.1241
     16  CA       -25.8930  -25.1250  -14.1890 C.3   147  TYR147      0.1605
     17  C        -26.4780  -23.7840  -14.6230 C.2   147  TYR147      0.2264
     18  O        -25.7520  -22.7750  -14.6360 O.2   147  TYR147     -0.2867
     19  CB       -26.8280  -26.3290  -14.4150 C.3   147  TYR147      0.0534
     20  CG       -26.1480  -27.6640  -14.1250 C.ar  147  TYR147     -0.0201
     21  CD1      -25.0760  -28.1060  -14.9100 C.ar  147  TYR147     -0.0009
     22  CD2      -26.5410  -28.4490  -13.0490 C.ar  147  TYR147     -0.0009
     23  CE1      -24.4320  -29.3060  -14.6740 C.ar  147  TYR147      0.0417
     24  CE2      -25.9010  -29.6890  -12.7890 C.ar  147  TYR147      0.0417
     25  CZ       -24.8780  -30.1230  -13.6100 C.ar  147  TYR147      0.1957
     26  OH       -24.2470  -31.3330  -13.3900 O.3   147  TYR147     -0.2866
     27  N        -28.3550  -21.4830  -13.1620 N.3   149  ARG149     -0.1245
     28  CA       -28.1830  -20.3770  -12.2140 C.3   149  ARG149      0.1563
     29  C        -26.7270  -19.9280  -12.1130 C.2   149  ARG149      0.2260
     30  O        -26.4520  -18.8170  -11.6360 O.2   149  ARG149     -0.2867
     31  CB       -28.7190  -20.8140  -10.8420 C.3   149  ARG149      0.0307
     32  CG       -30.2210  -20.9810  -10.8100 C.3   149  ARG149      0.0489
     33  CD       -30.6400  -21.8210   -9.6100 C.3   149  ARG149      0.2205
     34  NE       -32.0720  -21.8620   -9.4270 N.pl3 149  ARG149     -0.0865
     35  CZ       -32.8300  -22.7900   -9.9740 C.cat 149  ARG149      0.5346
     36  NH1      -32.2740  -23.7200  -10.7320 N.pl3 149  ARG149      0.1354
     37  NH2      -34.1370  -22.7860   -9.7620 N.pl3 149  ARG149      0.1354
     38  N        -29.1610  -31.5340   -2.3600 N.3   168  PHE168     -0.1241
     39  CA       -29.5790  -32.5170   -1.3890 C.3   168  PHE168      0.1605
     40  C        -28.9350  -33.8450   -1.7110 C.2   168  PHE168      0.2264
     41  O        -28.7180  -34.1830   -2.8670 O.2   168  PHE168     -0.2867
     42  CB       -31.1270  -32.6710   -1.3650 C.3   168  PHE168      0.0534
     43  CG       -31.8100  -31.4320   -0.8650 C.ar  168  PHE168     -0.0203
     44  CD1      -31.9670  -31.2180    0.4840 C.ar  168  PHE168     -0.0042
     45  CD2      -32.1970  -30.4420   -1.7330 C.ar  168  PHE168     -0.0042
     46  CE1      -32.5220  -30.0280    0.9740 C.ar  168  PHE168     -0.0003
     47  CE2      -32.7460  -29.2690   -1.2720 C.ar  168  PHE168     -0.0003
     48  CZ       -32.9180  -29.0560    0.0960 C.ar  168  PHE168     -0.0000
     49  N        -39.1680  -38.3890   -7.8660 N.3   181  LEU181     -0.1245
     50  CA       -38.1930  -37.9020   -8.8530 C.3   181  LEU181      0.1561
     51  C        -38.6760  -38.0520  -10.2890 C.2   181  LEU181      0.2260
     52  O        -38.1230  -37.4150  -11.2000 O.2   181  LEU181     -0.2867
     53  CB       -36.8590  -38.6870   -8.7450 C.3   181  LEU181      0.0270
     54  CG       -35.9470  -38.3950   -7.5680 C.3   181  LEU181      0.0019
     55  CD1      -34.6790  -39.2810   -7.7360 C.3   181  LEU181      0.0001
     56  CD2      -35.6200  -36.9130   -7.5450 C.3   181  LEU181      0.0001
     57  N        -39.4780  -35.0880  -12.6770 N.3   184  ILE184     -0.1245
     58  CA       -38.4190  -34.2360  -13.1980 C.3   184  ILE184      0.1561
     59  C        -37.6840  -35.0340  -14.2530 C.2   184  ILE184      0.2260
     60  O        -37.1150  -36.0970  -13.9470 O.2   184  ILE184     -0.2867
     61  CB       -37.4540  -33.7930  -12.0920 C.3   184  ILE184      0.0252
     62  CG1      -38.2520  -33.1520  -10.9640 C.3   184  ILE184      0.0019
     63  CG2      -36.3940  -32.8580  -12.6630 C.3   184  ILE184      0.0019
     64  CD1      -37.5000  -33.0540   -9.6470 C.3   184  ILE184      0.0001
     65  N        -34.4220  -37.3020  -13.9010 N.3   187  SER187     -0.1217
     66  CA       -33.8840  -37.2580  -12.5510 C.3   187  SER187      0.1889
     67  C        -33.9620  -38.6230  -11.8530 C.2   187  SER187      0.2288
     68  O        -33.0120  -39.0460  -11.1800 O.2   187  SER187     -0.2866
     69  CB       -34.6290  -36.1790  -11.7830 C.3   187  SER187      0.2089
     70  OG       -34.1570  -36.1680  -10.4810 O.3   187  SER187     -0.2183
     71  N        -26.5870  -37.4920   -5.9650 N.3   206  HIS206     -0.1241
     72  CA       -27.5410  -37.4740   -7.0690 C.3   206  HIS206      0.1621
     73  C        -26.8680  -37.1230   -8.3930 C.2   206  HIS206      0.2264
     74  O        -27.1280  -37.7730   -9.4270 O.2   206  HIS206     -0.2867
     75  CB       -28.6870  -36.4970   -6.7590 C.3   206  HIS206      0.0745
     76  CG       -29.8890  -36.6900   -7.6450 C.ar  206  HIS206      0.0817
     77  ND1      -30.9490  -35.8240   -7.6570 N.ar  206  HIS206     -0.2268
     78  CD2      -30.2100  -37.6780   -8.5120 C.ar  206  HIS206      0.1154
     79  CE1      -31.8680  -36.2560   -8.5010 C.ar  206  HIS206      0.1986
     80  NE2      -31.4390  -37.3760   -9.0420 N.ar  206  HIS206     -0.2212
     81  N        -37.6560  -31.5890   -1.0580 N.3   252  TRP252     -0.1227
     82  CA       -38.9780  -31.8130   -1.6670 C.3   252  TRP252      0.1737
     83  C        -39.0640  -33.1290   -2.4430 C.2   252  TRP252      0.2596
     84  O        -40.0610  -33.8510   -2.3300 O.2   252  TRP252     -0.2718
     85  CB       -39.3300  -30.6530   -2.6140 C.3   252  TRP252      0.0564
     86  CG       -40.7570  -30.7400   -3.1120 C.ar  252  TRP252      0.0003
     87  CD1      -41.1690  -30.9460   -4.4090 C.ar  252  TRP252      0.0946
     88  CD2      -41.9450  -30.6500   -2.3190 C.ar  252  TRP252      0.0152
     89  NE1      -42.5570  -30.9330   -4.4660 N.ar  252  TRP252     -0.2442
     90  CE2      -43.0500  -30.7740   -3.1950 C.ar  252  TRP252      0.0810
     91  CE3      -42.1850  -30.4400   -0.9540 C.ar  252  TRP252      0.0012
     92  CZ2      -44.3800  -30.7020   -2.7470 C.ar  252  TRP252      0.0191
     93  CZ3      -43.5240  -30.4040   -0.4920 C.ar  252  TRP252      0.0001
     94  CH2      -44.6030  -30.5140   -1.3990 C.ar  252  TRP252      0.0015
     95  N        -38.0720  -33.4290   -3.3030 N.am  253  THR253     -0.1939
     96  CA       -38.1930  -34.5700   -4.2170 C.3   253  THR253      0.2028
     97  C        -37.3780  -35.8030   -3.8350 C.2   253  THR253      0.2642
     98  O        -37.4740  -36.8400   -4.5240 O.2   253  THR253     -0.2714
     99  CB       -37.8010  -34.1790   -5.6500 C.3   253  THR253      0.1808
    100  OG1      -36.4340  -33.8220   -5.6540 O.3   253  THR253     -0.2208
    101  CG2      -38.6100  -33.0240   -6.1430 C.3   253  THR253      0.0379
    102  N        -36.5540  -35.7260   -2.7880 N.am  254  LEU254     -0.1977
    103  CA       -35.7670  -36.8690   -2.3870 C.3   254  LEU254      0.1596
    104  C        -36.1710  -37.3330   -1.0010 C.2   254  LEU254      0.2287
    105  O        -35.4280  -38.0930   -0.3770 O.2   254  LEU254     -0.2864
    106  CB       -34.2640  -36.5430   -2.4330 C.3   254  LEU254      0.0297
    107  CG       -33.6990  -36.3180   -3.8310 C.3   254  LEU254      0.0022
    108  CD1      -32.3060  -35.7160   -3.7350 C.3   254  LEU254      0.0001
    109  CD2      -33.6130  -37.7050   -4.4960 C.3   254  LEU254      0.0001
    110  N        -36.8850  -19.2890  -12.9200 N.3   449  TRP449     -0.1227
    111  CA       -36.4720  -20.6100  -13.3930 C.3   449  TRP449      0.1737
    112  C        -37.6390  -21.5660  -13.5320 C.2   449  TRP449      0.2595
    113  O        -37.5660  -22.4930  -14.3220 O.2   449  TRP449     -0.2718
    114  CB       -35.4470  -21.2330  -12.4290 C.3   449  TRP449      0.0564
    115  CG       -34.3530  -20.2480  -12.1070 C.ar  449  TRP449      0.0003
    116  CD1      -34.2300  -19.4790  -10.9770 C.ar  449  TRP449      0.0946
    117  CD2      -33.2730  -19.8960  -12.9660 C.ar  449  TRP449      0.0152
    118  NE1      -33.1010  -18.6590  -11.0870 N.ar  449  TRP449     -0.2442
    119  CE2      -32.5090  -18.8920  -12.3020 C.ar  449  TRP449      0.0810
    120  CE3      -32.8680  -20.3340  -14.2260 C.ar  449  TRP449      0.0012
    121  CZ2      -31.3660  -18.3390  -12.8580 C.ar  449  TRP449      0.0191
    122  CZ3      -31.7390  -19.7730  -14.7860 C.ar  449  TRP449      0.0001
    123  CH2      -31.0110  -18.7740  -14.1210 C.ar  449  TRP449      0.0015
    124  N        -38.6990  -21.3720  -12.7680 N.am  450  GLU450     -0.1979
    125  CA       -39.8820  -22.2050  -12.8640 C.3   450  GLU450      0.1602
    126  C        -41.0730  -21.3820  -12.4220 C.2   450  GLU450      0.2287
    127  O        -40.9470  -20.4390  -11.6310 O.2   450  GLU450     -0.2864
    128  CB       -39.7790  -23.4670  -11.9950 C.3   450  GLU450      0.0415
    129  CG       -39.4600  -23.1700  -10.5450 C.3   450  GLU450      0.1163
    130  CD       -39.4510  -24.4280   -9.7010 C.2   450  GLU450      0.3649
    131  OE1      -40.5010  -25.1120   -9.6410 O.co2 450  GLU450     -0.2457
    132  OE2      -38.3980  -24.7240   -9.0920 O.co2 450  GLU450     -0.2457
@<TRIPOS>BOND
     1    21    23   ar
     2    21    20   ar
     3   122   120   ar
     4   122   123   ar
     5    23    25   ar
     6    18    17    2
     7    17    16    1
     8    19    16    1
     9    19    20    1
    10   113   112    2
    11    59    60    2
    12    59    58    1
    13   120   117   ar
    14    16    15    1
    15    20    22   ar
    16   123   121   ar
    17    65    66    1
    18    25    26    1
    19    25    24   ar
    20   112   111    1
    21   112   124   am
    22   111   110    1
    23   111   114    1
    24    58    57    1
    25    58    61    1
    26    27    28    1
    27    22    24   ar
    28   117   119   ar
    29   117   115   ar
    30   125   124    1
    31   125   126    1
    32   125   128    1
    33   121   119   ar
    34    63    61    1
    35    66    67    1
    36    66    69    1
    37   114   115    1
    38   126   127    2
    39   119   118   ar
    40    28    29    1
    41    28    31    1
    42    29    30    2
    43   115   116   ar
    44    61    62    1
    45   128   129    1
    46    67    68    2
    47    69    70    1
    48    52    51    2
    49   118   116   ar
    50    62    64    1
    51     4     3    2
    52    31    32    1
    53    32    33    1
    54    36    35    1
    55   129   130    1
    56    51    50    1
    57    35    37    1
    58    35    34    2
    59     5     2    1
    60     5     6    1
    61     3     2    1
    62   130   131   ar
    63   130   132   ar
    64    33    34    1
    65    74    73    2
    66     2     1    1
    67     7     6   ar
    68     7     9   ar
    69    80    78   ar
    70    80    79   ar
    71     6     8   ar
    72    50    53    1
    73    50    49    1
    74    53    54    1
    75    78    76   ar
    76    79    77   ar
    77    73    72    1
    78     9    10   ar
    79    55    54    1
    80     8    10   ar
    81     8    11   ar
    82    77    76   ar
    83    76    75    1
    84    54    56    1
    85    10    12   ar
    86    72    75    1
    87    72    71    1
    88    11    13   ar
    89   101    99    1
    90    12    14   ar
    91    13    14   ar
    92   100    99    1
    93    99    96    1
    94    98    97    2
    95   109   107    1
    96    89    87   ar
    97    89    90   ar
    98    87    86   ar
    99    96    97    1
   100    96    95    1
   101    97   102   am
   102   107   108    1
   103   107   106    1
   104    95    83   am
   105    90    92   ar
   106    90    88   ar
   107    86    85    1
   108    86    88   ar
   109    41    40    2
   110   102   103    1
   111    92    94   ar
   112    85    82    1
   113    83    84    2
   114    83    82    1
   115   106   103    1
   116   103   104    1
   117    38    39    1
   118    88    91   ar
   119    45    47   ar
   120    45    43   ar
   121    40    39    1
   122    82    81    1
   123    94    93   ar
   124    39    42    1
   125    42    43    1
   126    47    48   ar
   127   104   105    2
   128    91    93   ar
   129    43    44   ar
   130    48    46   ar
   131    44    46   ar
