@<TRIPOS>MOLECULE
tmp/5z7zA01.pdb
 125 120 0 0 0
SMALL
GASTEIGER

@<TRIPOS>ATOM
      1  N         31.0260   24.2430   73.4980 N.3    25  VAL25      -0.1245
      2  CA        30.7890   24.2690   72.0610 C.3    25  VAL25       0.1561
      3  C         30.1660   25.5980   71.6600 C.2    25  VAL25       0.2260
      4  O         29.2090   26.0740   72.2810 O.2    25  VAL25      -0.2867
      5  CB        29.8950   23.0950   71.6400 C.3    25  VAL25       0.0252
      6  CG1       29.6480   23.1420   70.1360 C.3    25  VAL25       0.0019
      7  CG2       30.5270   21.7810   72.0350 C.3    25  VAL25       0.0019
      8  N         15.4780   16.9210   76.8410 N.3   133  PHE133     -0.1241
      9  CA        15.2470   16.7610   75.4110 C.3   133  PHE133      0.1605
     10  C         14.6320   15.4010   75.1210 C.2   133  PHE133      0.2264
     11  O         15.1820   14.3660   75.5150 O.2   133  PHE133     -0.2867
     12  CB        16.5500   16.9380   74.6220 C.3   133  PHE133      0.0534
     13  CG        17.1470   18.3090   74.7510 C.ar  133  PHE133     -0.0203
     14  CD1       16.7850   19.3220   73.8780 C.ar  133  PHE133     -0.0042
     15  CD2       18.0530   18.5930   75.7610 C.ar  133  PHE133     -0.0042
     16  CE1       17.3250   20.5870   73.9980 C.ar  133  PHE133     -0.0003
     17  CE2       18.5930   19.8590   75.8910 C.ar  133  PHE133     -0.0003
     18  CZ        18.2300   20.8570   75.0060 C.ar  133  PHE133     -0.0000
     19  N         15.8590   17.3890   69.1820 N.3   138  ILE138     -0.1245
     20  CA        17.0940   17.9750   68.6730 C.3   138  ILE138      0.1561
     21  C         17.2060   17.8720   67.1570 C.2   138  ILE138      0.2260
     22  O         18.0240   18.5850   66.5600 O.2   138  ILE138     -0.2867
     23  CB        18.3210   17.3300   69.3410 C.3   138  ILE138      0.0252
     24  CG1       19.4900   18.3160   69.3750 C.3   138  ILE138      0.0019
     25  CG2       18.7200   16.0440   68.6230 C.3   138  ILE138      0.0019
     26  CD1       19.2260   19.5520   70.2100 C.3   138  ILE138      0.0001
     27  N         16.7170   21.0450   65.3650 N.3   141  VAL141     -0.1231
     28  CA        17.8120   21.9670   65.6360 C.3   141  VAL141      0.1692
     29  C         18.9990   21.6730   64.7280 C.2   141  VAL141      0.2592
     30  O         19.5570   22.5780   64.0960 O.2   141  VAL141     -0.2718
     31  CB        18.2050   21.8950   67.1190 C.3   141  VAL141      0.0266
     32  CG1       19.3810   22.7950   67.3800 C.3   141  VAL141      0.0020
     33  CG2       17.0190   22.2790   67.9920 C.3   141  VAL141      0.0020
     34  N         19.4100   20.4030   64.6590 N.am  142  PHE142     -0.1976
     35  CA        20.4840   20.0310   63.7470 C.3   142  PHE142      0.1639
     36  C         20.0790   20.2510   62.2970 C.2   142  PHE142      0.2290
     37  O         20.9360   20.5310   61.4520 O.2   142  PHE142     -0.2864
     38  CB        20.8940   18.5750   63.9710 C.3   142  PHE142      0.0560
     39  CG        21.4990   18.3160   65.3260 C.ar  142  PHE142     -0.0200
     40  CD1       22.2100   19.3070   65.9860 C.ar  142  PHE142     -0.0042
     41  CD2       21.3500   17.0850   65.9410 C.ar  142  PHE142     -0.0042
     42  CE1       22.7620   19.0710   67.2310 C.ar  142  PHE142     -0.0003
     43  CE2       21.9000   16.8460   67.1880 C.ar  142  PHE142     -0.0003
     44  CZ        22.6070   17.8380   67.8300 C.ar  142  PHE142     -0.0000
     45  N         20.4800   23.9730   61.5830 N.3   145  MET145     -0.1245
     46  CA        21.8910   24.3400   61.5510 C.3   145  MET145      0.1570
     47  C         22.5320   23.9380   60.2300 C.2   145  MET145      0.2261
     48  O         23.3270   24.6970   59.6610 O.2   145  MET145     -0.2867
     49  CB        22.6230   23.7010   62.7300 C.3   145  MET145      0.0387
     50  CG        24.1090   24.0060   62.7930 C.3   145  MET145      0.0595
     51  SD        24.9730   22.8260   63.8460 S.3   145  MET145     -0.1393
     52  CE        23.8260   22.6980   65.2120 C.3   145  MET145      0.0692
     53  N         20.1430   29.7390   61.9250 N.3   152  TRP152     -0.1241
     54  CA        20.2140   28.9900   63.1750 C.3   152  TRP152      0.1605
     55  C         20.9480   29.7860   64.2450 C.2   152  TRP152      0.2264
     56  O         20.4790   29.8870   65.3840 O.2   152  TRP152     -0.2867
     57  CB        20.8930   27.6400   62.9660 C.3   152  TRP152      0.0550
     58  CG        21.2010   26.9960   64.2810 C.ar  152  TRP152      0.0003
     59  CD1       20.3230   26.3660   65.1120 C.ar  152  TRP152      0.0946
     60  CD2       22.4710   26.9640   64.9390 C.ar  152  TRP152      0.0152
     61  NE1       20.9740   25.9290   66.2420 N.ar  152  TRP152     -0.2442
     62  CE2       22.2940   26.2870   66.1580 C.ar  152  TRP152      0.0810
     63  CE3       23.7420   27.4380   64.6100 C.ar  152  TRP152      0.0012
     64  CZ2       23.3410   26.0680   67.0470 C.ar  152  TRP152      0.0191
     65  CZ3       24.7780   27.2210   65.4910 C.ar  152  TRP152      0.0001
     66  CH2       24.5720   26.5430   66.6990 C.ar  152  TRP152      0.0015
     67  N         19.7140   30.7340   67.8490 N.3   156  PHE156     -0.1241
     68  CA        20.3050   29.9880   68.9540 C.3   156  PHE156      0.1605
     69  C         21.1030   30.8670   69.9110 C.2   156  PHE156      0.2264
     70  O         21.0680   30.6350   71.1240 O.2   156  PHE156     -0.2867
     71  CB        21.2030   28.8700   68.4210 C.3   156  PHE156      0.0534
     72  CG        21.9170   28.1040   69.5010 C.ar  156  PHE156     -0.0203
     73  CD1       21.2060   27.3190   70.3880 C.ar  156  PHE156     -0.0042
     74  CD2       23.2960   28.1700   69.6310 C.ar  156  PHE156     -0.0042
     75  CE1       21.8540   26.6100   71.3780 C.ar  156  PHE156     -0.0003
     76  CE2       23.9500   27.4610   70.6240 C.ar  156  PHE156     -0.0003
     77  CZ        23.2270   26.6830   71.4970 C.ar  156  PHE156     -0.0000
     78  N         18.9350   32.5130   72.4350 N.3   159  LEU159     -0.1245
     79  CA        18.4290   31.4450   73.2940 C.3   159  LEU159      0.1561
     80  C         19.4950   30.9830   74.2790 C.2   159  LEU159      0.2260
     81  O         19.2230   30.8100   75.4740 O.2   159  LEU159     -0.2867
     82  CB        17.9550   30.2720   72.4340 C.3   159  LEU159      0.0270
     83  CG        17.5860   28.9820   73.1670 C.3   159  LEU159      0.0019
     84  CD1       16.4410   29.2440   74.1260 C.3   159  LEU159      0.0001
     85  CD2       17.2230   27.8960   72.1670 C.3   159  LEU159      0.0001
     86  N         30.6600   22.4700   63.7240 N.3   184  THR184     -0.1218
     87  CA        29.6040   22.7590   64.6920 C.3   184  THR184      0.1862
     88  C         28.5720   21.6390   64.7240 C.2   184  THR184      0.2287
     89  O         28.1990   21.1500   65.7970 O.2   184  THR184     -0.2866
     90  CB        28.9290   24.0900   64.3600 C.3   184  THR184      0.1770
     91  OG1       29.9240   25.1020   64.1800 O.3   184  THR184     -0.2211
     92  CG2       27.9780   24.5030   65.4740 C.3   184  THR184      0.0375
     93  N         28.1940   19.1260   67.8120 N.3   188  SER188     -0.1217
     94  CA        26.9320   19.2370   68.5370 C.3   188  SER188      0.1889
     95  C         26.2030   17.9020   68.5800 C.2   188  SER188      0.2288
     96  O         25.6230   17.5400   69.6080 O.2   188  SER188     -0.2866
     97  CB        26.0440   20.3080   67.9100 C.3   188  SER188      0.2089
     98  OG        26.6720   21.5750   67.9410 O.3   188  SER188     -0.2183
     99  N         25.7670   16.0270   71.9750 N.3   192  PHE192     -0.1241
    100  CA        24.3820   15.8360   72.3950 C.3   192  PHE192      0.1605
    101  C         24.0990   14.3800   72.7430 C.2   192  PHE192      0.2264
    102  O         23.3310   14.0990   73.6690 O.2   192  PHE192     -0.2867
    103  CB        23.4220   16.3070   71.3060 C.3   192  PHE192      0.0534
    104  CG        21.9760   16.1620   71.6720 C.ar  192  PHE192     -0.0203
    105  CD1       21.3160   17.1700   72.3470 C.ar  192  PHE192     -0.0042
    106  CD2       21.2740   15.0190   71.3310 C.ar  192  PHE192     -0.0042
    107  CE1       19.9900   17.0440   72.6810 C.ar  192  PHE192     -0.0003
    108  CE2       19.9490   14.8840   71.6660 C.ar  192  PHE192     -0.0003
    109  CZ        19.3040   15.8990   72.3390 C.ar  192  PHE192     -0.0000
    110  N         18.4110   26.6290   78.4230 N.3   216  HIS216     -0.1226
    111  CA        17.6990   25.8720   77.3980 C.3   216  HIS216      0.1752
    112  C         18.1850   24.4330   77.2960 C.2   216  HIS216      0.2596
    113  O         17.4550   23.5770   76.7890 O.2   216  HIS216     -0.2718
    114  CB        17.8660   26.5440   76.0350 C.3   216  HIS216      0.0759
    115  CG        19.2360   26.3750   75.4560 C.ar  216  HIS216      0.0818
    116  ND1       20.3400   27.0350   75.9540 N.ar  216  HIS216     -0.2268
    117  CD2       19.6880   25.5920   74.4480 C.ar  216  HIS216      0.1154
    118  CE1       21.4100   26.6800   75.2640 C.ar  216  HIS216      0.1986
    119  NE2       21.0420   25.8030   74.3460 N.ar  216  HIS216     -0.2212
    120  N         19.4030   24.1530   77.7530 N.am  217  SER217     -0.1952
    121  CA        20.0060   22.8390   77.6140 C.3   217  SER217      0.1924
    122  C         20.2350   22.1240   78.9380 C.2   217  SER217      0.2314
    123  O         20.6090   20.9460   78.9260 O.2   217  SER217     -0.2863
    124  CB        21.3440   22.9540   76.8710 C.3   217  SER217      0.2116
    125  OG        22.2320   23.8020   77.5810 O.3   217  SER217     -0.2180
@<TRIPOS>BOND
     1    48    47    2
     2    47    46    1
     3    37    36    2
     4    46    45    1
     5    46    49    1
     6    53    54    1
     7    36    35    1
     8    49    50    1
     9    50    51    1
    10    57    54    1
    11    57    58    1
    12    54    55    1
    13    86    87    1
    14    35    38    1
    15    35    34    1
    16    51    52    1
    17    38    39    1
    18    30    29    2
    19    91    90    1
    20    55    56    2
    21    58    60   ar
    22    58    59   ar
    23    90    87    1
    24    90    92    1
    25    63    60   ar
    26    63    65   ar
    27    34    29   am
    28    87    88    1
    29    88    89    2
    30    29    28    1
    31    60    62   ar
    32    59    61   ar
    33    39    41   ar
    34    39    40   ar
    35    27    28    1
    36    65    66   ar
    37    28    31    1
    38    41    43   ar
    39    40    42   ar
    40    62    61   ar
    41    62    64   ar
    42    22    21    2
    43    66    64   ar
    44    31    32    1
    45    31    33    1
    46    21    20    1
    47    43    44   ar
    48    42    44   ar
    49    93    94    1
    50    67    68    1
    51    97    98    1
    52    97    94    1
    53    71    68    1
    54    71    72    1
    55    94    95    1
    56    95    96    2
    57    25    23    1
    58    20    19    1
    59    20    23    1
    60    68    69    1
    61    23    24    1
    62    24    26    1
    63    72    74   ar
    64    72    73   ar
    65    74    76   ar
    66    69    70    2
    67     6     5    1
    68    73    75   ar
    69    76    77   ar
    70   103   104    1
    71   103   100    1
    72   106   108   ar
    73   106   104   ar
    74    75    77   ar
    75     5     7    1
    76     5     2    1
    77     3     2    1
    78     3     4    2
    79   108   109   ar
    80   104   105   ar
    81    99   100    1
    82     2     1    1
    83    85    83    1
    84   109   107   ar
    85   105   107   ar
    86   100   101    1
    87    82    83    1
    88    82    79    1
    89    78    79    1
    90   101   102    2
    91    83    84    1
    92    79    80    1
    93    14    16   ar
    94    14    13   ar
    95    16    18   ar
    96    80    81    2
    97   119   117   ar
    98   119   118   ar
    99   117   115   ar
   100    12    13    1
   101    12     9    1
   102    13    15   ar
   103    18    17   ar
   104    10     9    1
   105    10    11    2
   106   118   116   ar
   107     9     8    1
   108   115   116   ar
   109   115   114    1
   110    15    17   ar
   111   114   111    1
   112   113   112    2
   113   124   125    1
   114   124   121    1
   115   112   111    1
   116   112   120   am
   117   111   110    1
   118   121   120    1
   119   121   122    1
   120   123   122    2
