@<TRIPOS>MOLECULE
tmp/5z87A00.pdb
 165 159 0 0 0
SMALL
GASTEIGER

@<TRIPOS>ATOM
      1  N        -41.4350    2.1840    9.6010 N.3    38  ARG38      -0.1245
      2  CA       -42.0470    1.0510    8.9290 C.3    38  ARG38       0.1563
      3  C        -42.0290    1.2690    7.4220 C.2    38  ARG38       0.2260
      4  O        -42.2290    2.3850    6.9340 O.2    38  ARG38      -0.2867
      5  CB       -43.4760    0.8420    9.4210 C.3    38  ARG38       0.0307
      6  CG       -43.8220   -0.6190    9.6220 C.3    38  ARG38       0.0489
      7  CD       -45.2060   -0.7940   10.2090 C.3    38  ARG38       0.2205
      8  NE       -45.1440   -0.7760   11.6630 N.pl3  38  ARG38      -0.0865
      9  CZ       -44.9610   -1.8590   12.4120 C.cat  38  ARG38       0.5346
     10  NH1      -44.8950   -1.7430   13.7400 N.pl3  38  ARG38       0.1354
     11  NH2      -44.8400   -3.0490   11.8270 N.pl3  38  ARG38       0.1354
     12  N        -38.5580   -1.1110    8.1820 N.3    64  TYR64      -0.1241
     13  CA       -38.9510   -2.3070    8.9060 C.3    64  TYR64       0.1605
     14  C        -40.1680   -2.9140    8.2340 C.2    64  TYR64       0.2264
     15  O        -41.1370   -2.2030    7.9460 O.2    64  TYR64      -0.2867
     16  CB       -39.2600   -1.9760   10.3680 C.3    64  TYR64       0.0534
     17  CG       -39.8140   -3.1290   11.1630 C.ar   64  TYR64      -0.0201
     18  CD1      -39.2160   -4.3770   11.1230 C.ar   64  TYR64      -0.0009
     19  CD2      -40.9210   -2.9590   11.9780 C.ar   64  TYR64      -0.0009
     20  CE1      -39.7140   -5.4290   11.8780 C.ar   64  TYR64       0.0417
     21  CE2      -41.4250   -4.0030   12.7380 C.ar   64  TYR64       0.0417
     22  CZ       -40.8260   -5.2270   12.6850 C.ar   64  TYR64       0.1957
     23  OH       -41.3430   -6.2540   13.4340 O.3    64  TYR64      -0.2866
     24  N        -38.3850   -9.8910   10.4380 N.3   101  GLU101     -0.1245
     25  CA       -38.3320  -10.7550   11.6140 C.3   101  GLU101      0.1567
     26  C        -38.0270  -12.1750   11.1670 C.2   101  GLU101      0.2260
     27  O        -38.6200  -12.6600   10.2020 O.2   101  GLU101     -0.2867
     28  CB       -39.6470  -10.7340   12.3970 C.3   101  GLU101      0.0388
     29  CG       -40.1080   -9.3640   12.8050 C.3   101  GLU101      0.1160
     30  CD       -39.3540   -8.8130   14.0080 C.2   101  GLU101      0.3649
     31  OE1      -39.6470   -7.6610   14.4020 O.co2 101  GLU101     -0.2457
     32  OE2      -38.4820   -9.5250   14.5570 O.co2 101  GLU101     -0.2457
     33  N        -34.3120   -8.5060   13.1240 N.3   149  PHE149     -0.1241
     34  CA       -34.4000   -8.2340   14.5530 C.3   149  PHE149      0.1605
     35  C        -34.5270   -9.5580   15.3130 C.2   149  PHE149      0.2264
     36  O        -35.5230   -9.8530   15.9660 O.2   149  PHE149     -0.2867
     37  CB       -35.5790   -7.3090   14.8320 C.3   149  PHE149      0.0534
     38  CG       -35.4770   -5.9530   14.1690 C.ar  149  PHE149     -0.0203
     39  CD1      -34.2360   -5.3700   13.9130 C.ar  149  PHE149     -0.0042
     40  CD2      -36.6360   -5.2470   13.8280 C.ar  149  PHE149     -0.0042
     41  CE1      -34.1500   -4.1170   13.3260 C.ar  149  PHE149     -0.0003
     42  CE2      -36.5630   -3.9870   13.2360 C.ar  149  PHE149     -0.0003
     43  CZ       -35.3180   -3.4140   12.9960 C.ar  149  PHE149     -0.0000
     44  N        -44.0130  -13.7360   26.0930 N.3   163  ARG163     -0.1245
     45  CA       -42.9780  -13.8850   25.0840 C.3   163  ARG163      0.1563
     46  C        -42.0200  -15.0230   25.3820 C.2   163  ARG163      0.2260
     47  O        -41.0070  -15.1600   24.6810 O.2   163  ARG163     -0.2867
     48  CB       -42.1960  -12.5770   24.9190 C.3   163  ARG163      0.0307
     49  CG       -43.0900  -11.3830   24.5880 C.3   163  ARG163      0.0489
     50  CD       -42.2820  -10.1750   24.1690 C.3   163  ARG163      0.2205
     51  NE       -41.7480  -10.3430   22.8250 N.pl3 163  ARG163     -0.0865
     52  CZ       -41.1980   -9.3740   22.0990 C.cat 163  ARG163      0.5346
     53  NH1      -41.1080   -8.1530   22.5970 N.pl3 163  ARG163      0.1354
     54  NH2      -40.7400   -9.6330   20.8680 N.pl3 163  ARG163      0.1354
     55  N        -31.4020   -9.4490   20.6080 N.3   204  LYS204     -0.1231
     56  CA       -32.3140   -8.6780   21.4380 C.3   204  LYS204      0.1693
     57  C        -32.7540   -9.5560   22.6060 C.2   204  LYS204      0.2592
     58  O        -32.5980  -10.7790   22.5570 O.2   204  LYS204     -0.2718
     59  CB       -33.5040   -8.1910   20.6050 C.3   204  LYS204      0.0285
     60  CG       -34.3420   -9.3230   20.0350 C.3   204  LYS204      0.0035
     61  CD       -35.5000   -8.8100   19.2130 C.3   204  LYS204      0.0206
     62  CE       -36.5250   -9.9270   18.9740 C.3   204  LYS204      0.1093
     63  NZ       -37.5230   -9.5960   17.8870 N.3   204  LYS204     -0.1314
     64  N        -33.2830   -8.9470   23.6800 N.am  205  HIS205     -0.1976
     65  CA       -33.3790   -7.5090   23.9100 C.3   205  HIS205      0.1656
     66  C        -32.4620   -7.0810   25.0550 C.2   205  HIS205      0.2291
     67  O        -32.6630   -7.5070   26.1860 O.2   205  HIS205     -0.2864
     68  CB       -34.8180   -7.1120   24.2290 C.3   205  HIS205      0.0771
     69  CG       -35.8360   -7.6900   23.2970 C.ar  205  HIS205      0.0820
     70  ND1      -36.1880   -9.0240   23.3100 N.ar  205  HIS205     -0.2267
     71  CD2      -36.6050   -7.1050   22.3450 C.ar  205  HIS205      0.1154
     72  CE1      -37.1240   -9.2370   22.4010 C.ar  205  HIS205      0.1986
     73  NE2      -37.4000   -8.0880   21.8070 N.ar  205  HIS205     -0.2212
     74  N        -30.3100   -5.0340   19.5590 N.3   249  MET249     -0.1245
     75  CA       -31.4760   -4.2230   19.9200 C.3   249  MET249      0.1570
     76  C        -31.6290   -4.1370   21.4390 C.2   249  MET249      0.2261
     77  O        -31.4220   -5.1240   22.1480 O.2   249  MET249     -0.2867
     78  CB       -32.7590   -4.7900   19.3010 C.3   249  MET249      0.0387
     79  CG       -34.0290   -4.0250   19.6620 C.3   249  MET249      0.0595
     80  SD       -35.5090   -4.8320   18.9950 S.3   249  MET249     -0.1393
     81  CE       -35.3830   -4.4510   17.2570 C.3   249  MET249      0.0692
     82  N        -37.2130   -2.8290   26.1100 N.3   252  HIS252     -0.1241
     83  CA       -38.2930   -1.9510   26.5700 C.3   252  HIS252      0.1621
     84  C        -38.0460   -1.4250   27.9760 C.2   252  HIS252      0.2264
     85  O        -38.4410   -0.3000   28.3130 O.2   252  HIS252     -0.2867
     86  CB       -39.6340   -2.7070   26.6170 C.3   252  HIS252      0.0745
     87  CG       -40.2570   -2.9930   25.2860 C.ar  252  HIS252      0.0817
     88  ND1      -39.9970   -2.2510   24.1540 N.ar  252  HIS252     -0.2268
     89  CD2      -41.1740   -3.9260   24.9220 C.ar  252  HIS252      0.1154
     90  CE1      -40.7070   -2.7270   23.1460 C.ar  252  HIS252      0.1986
     91  NE2      -41.4290   -3.7460   23.5830 N.ar  252  HIS252     -0.2212
     92  N        -35.6810   -0.7780   20.0910 N.3   284  ASP284     -0.1225
     93  CA       -36.9660   -1.4310   19.9050 C.3   284  ASP284      0.1805
     94  C        -38.0300   -0.3840   19.5440 C.2   284  ASP284      0.2597
     95  O        -37.8190    0.8300   19.6740 O.2   284  ASP284     -0.2718
     96  CB       -37.3420   -2.2210   21.1570 C.3   284  ASP284      0.1424
     97  CG       -38.3070   -3.3670   20.8630 C.2   284  ASP284      0.3668
     98  OD1      -39.0190   -3.2930   19.8370 O.co2 284  ASP284     -0.2456
     99  OD2      -38.3320   -4.3380   21.6490 O.co2 284  ASP284     -0.2456
    100  N        -39.1930   -0.8690   19.0930 N.am  285  TRP285     -0.1976
    101  CA       -40.1600   -0.0030   18.4290 C.3   285  TRP285      0.1640
    102  C        -40.5590    1.1790   19.3040 C.2   285  TRP285      0.2290
    103  O        -41.1510    1.0070   20.3730 O.2   285  TRP285     -0.2864
    104  CB       -41.4060   -0.7810   18.0030 C.3   285  TRP285      0.0576
    105  CG       -42.3620    0.1490   17.3130 C.ar  285  TRP285      0.0006
    106  CD1      -43.4170    0.8090   17.8810 C.ar  285  TRP285      0.0946
    107  CD2      -42.3090    0.5850   15.9460 C.ar  285  TRP285      0.0152
    108  NE1      -44.0340    1.6030   16.9510 N.ar  285  TRP285     -0.2442
    109  CE2      -43.3820    1.4820   15.7540 C.ar  285  TRP285      0.0810
    110  CE3      -41.4750    0.2870   14.8630 C.ar  285  TRP285      0.0012
    111  CZ2      -43.6350    2.0960   14.5290 C.ar  285  TRP285      0.0191
    112  CZ3      -41.7300    0.8920   13.6460 C.ar  285  TRP285      0.0001
    113  CH2      -42.8010    1.7910   13.4890 C.ar  285  TRP285      0.0015
    114  N        -40.0410    6.6660   24.3070 N.3   290  ARG290     -0.1245
    115  CA       -40.6370    6.1940   25.5500 C.3   290  ARG290      0.1563
    116  C        -39.7330    6.3880   26.7570 C.2   290  ARG290      0.2260
    117  O        -40.2150    6.2350   27.8830 O.2   290  ARG290     -0.2867
    118  CB       -41.0190    4.7260   25.4250 C.3   290  ARG290      0.0307
    119  CG       -42.2450    4.4920   24.5670 C.3   290  ARG290      0.0489
    120  CD       -42.3630    3.0390   24.2430 C.3   290  ARG290      0.2205
    121  NE       -43.3180    2.8000   23.1770 N.pl3 290  ARG290     -0.0865
    122  CZ       -43.4550    1.6210   22.5860 C.cat 290  ARG290      0.5346
    123  NH1      -42.6970    0.6030   22.9770 N.pl3 290  ARG290      0.1354
    124  NH2      -44.3390    1.4570   21.6090 N.pl3 290  ARG290      0.1354
    125  N        -35.7540    2.6940   15.5840 N.3   317  LEU317     -0.1245
    126  CA       -36.8640    1.9740   14.9790 C.3   317  LEU317      0.1561
    127  C        -38.1500    2.6510   15.4350 C.2   317  LEU317      0.2260
    128  O        -38.5690    2.5060   16.5860 O.2   317  LEU317     -0.2867
    129  CB       -36.8110    0.5080   15.3870 C.3   317  LEU317      0.0270
    130  CG       -38.0210   -0.3260   15.0050 C.3   317  LEU317      0.0019
    131  CD1      -38.1320   -0.4440   13.4910 C.3   317  LEU317      0.0001
    132  CD2      -37.8960   -1.7010   15.6620 C.3   317  LEU317      0.0001
    133  N        -44.8470  -14.2010   15.7550 N.3   423  TYR423     -0.1241
    134  CA       -43.8690  -13.8460   14.7310 C.3   423  TYR423      0.1605
    135  C        -43.9000  -14.8400   13.5640 C.2   423  TYR423      0.2264
    136  O        -42.8660  -15.2730   13.0600 O.2   423  TYR423     -0.2867
    137  CB       -42.4740  -13.7050   15.3600 C.3   423  TYR423      0.0534
    138  CG       -42.3870  -12.3800   16.0920 C.ar  423  TYR423     -0.0201
    139  CD1      -42.7750  -12.2570   17.4250 C.ar  423  TYR423     -0.0009
    140  CD2      -41.9900  -11.2350   15.4220 C.ar  423  TYR423     -0.0009
    141  CE1      -42.7340  -11.0270   18.0630 C.ar  423  TYR423      0.0417
    142  CE2      -41.9400  -10.0160   16.0460 C.ar  423  TYR423      0.0417
    143  CZ       -42.3140   -9.9090   17.3580 C.ar  423  TYR423      0.1957
    144  OH       -42.2760   -8.6680   17.9330 O.3   423  TYR423     -0.2866
    145  N        -47.1910  -11.4830   22.8040 N.3   512  GLU512     -0.1245
    146  CA       -46.5760  -10.2150   23.1500 C.3   512  GLU512      0.1567
    147  C        -47.6590   -9.1940   23.4940 C.2   512  GLU512      0.2260
    148  O        -48.5380   -8.9180   22.6750 O.2   512  GLU512     -0.2867
    149  CB       -45.7320   -9.7390   21.9690 C.3   512  GLU512      0.0388
    150  CG       -45.1270   -8.3480   22.1060 C.3   512  GLU512      0.1160
    151  CD       -44.3420   -7.9510   20.8610 C.2   512  GLU512      0.3649
    152  OE1      -44.3490   -8.7100   19.8670 O.co2 512  GLU512     -0.2457
    153  OE2      -43.7220   -6.8760   20.8780 O.co2 512  GLU512     -0.2457
    154  N        -48.7280   -5.7630   23.4840 N.3   514  TYR514     -0.1241
    155  CA       -48.2330   -4.5680   22.8220 C.3   514  TYR514      0.1605
    156  C        -48.4670   -3.3230   23.6770 C.2   514  TYR514      0.2264
    157  O        -49.2260   -3.3180   24.6570 O.2   514  TYR514     -0.2867
    158  CB       -48.8740   -4.4020   21.4440 C.3   514  TYR514      0.0534
    159  CG       -48.8370   -5.6670   20.6070 C.ar  514  TYR514     -0.0201
    160  CD1      -49.9690   -6.4600   20.4630 C.ar  514  TYR514     -0.0009
    161  CD2      -47.6660   -6.0760   19.9710 C.ar  514  TYR514     -0.0009
    162  CE1      -49.9420   -7.6270   19.7080 C.ar  514  TYR514      0.0417
    163  CE2      -47.6300   -7.2400   19.2050 C.ar  514  TYR514      0.0417
    164  CZ       -48.7740   -8.0120   19.0830 C.ar  514  TYR514      0.1957
    165  OH       -48.7650   -9.1710   18.3380 O.3   514  TYR514     -0.2866
@<TRIPOS>BOND
     1     4     3    2
     2     3     2    1
     3    15    14    2
     4    12    13    1
     5    14    13    1
     6    13    16    1
     7     2     5    1
     8     2     1    1
     9     5     6    1
    10     6     7    1
    11    27    26    2
    12     7     8    1
    13    16    17    1
    14    24    25    1
    15    18    17   ar
    16    18    20   ar
    17    17    19   ar
    18    26    25    1
    19    25    28    1
    20     8     9    2
    21    11     9    1
    22    20    22   ar
    23    19    21   ar
    24    28    29    1
    25     9    10    1
    26    22    21   ar
    27    22    23    1
    28    29    30    1
    29    43    42   ar
    30    43    41   ar
    31   136   135    2
    32    33    34    1
    33    42    40   ar
    34    41    39   ar
    35   113   112   ar
    36   113   111   ar
    37   131   130    1
    38   135   134    1
    39   112   110   ar
    40    40    38   ar
    41    39    38   ar
    42    30    31   ar
    43    30    32   ar
    44    38    37    1
    45   111   109   ar
    46    34    37    1
    47    34    35    1
    48   134   137    1
    49   134   133    1
    50   110   107   ar
    51   126   129    1
    52   126   127    1
    53   126   125    1
    54   130   129    1
    55   130   132    1
    56    35    36    2
    57   137   138    1
    58   140   142   ar
    59   140   138   ar
    60   127   128    2
    61   109   107   ar
    62   109   108   ar
    63   107   105   ar
    64   142   143   ar
    65   138   139   ar
    66   108   106   ar
    67    81    80    1
    68   105   106   ar
    69   105   104    1
    70   143   144    1
    71   143   141   ar
    72   139   141   ar
    73    63    62    1
    74   104   101    1
    75   165   164    1
    76   101   100    1
    77   101   102    1
    78    62    61    1
    79    80    79    1
    80   164   163   ar
    81   164   162   ar
    82   100    94   am
    83   163   161   ar
    84    61    60    1
    85    78    79    1
    86    78    75    1
    87   102   103    2
    88    94    95    2
    89    94    93    1
    90    74    75    1
    91   162   160   ar
    92    98    97   ar
    93   152   151   ar
    94    93    92    1
    95    93    96    1
    96    75    76    1
    97   161   159   ar
    98    60    59    1
    99   160   159   ar
   100    59    56    1
   101   159   158    1
   102    55    56    1
   103   151   153   ar
   104   151   150    1
   105    97    96    1
   106    97    99   ar
   107    54    52    1
   108    56    57    1
   109    76    77    2
   110   158   155    1
   111   124   122    1
   112    73    71   ar
   113    73    72   ar
   114   149   150    1
   115   149   146    1
   116    52    53    1
   117    52    51    2
   118    71    69   ar
   119    72    70   ar
   120    58    57    2
   121   122   123    1
   122   122   121    2
   123    57    64   am
   124   148   147    2
   125   145   146    1
   126   155   154    1
   127   155   156    1
   128    51    50    1
   129    90    91   ar
   130    90    88   ar
   131   146   147    1
   132   121   120    1
   133    69    70   ar
   134    69    68    1
   135    91    89   ar
   136   156   157    2
   137    64    65    1
   138    65    68    1
   139    65    66    1
   140    88    87   ar
   141    50    49    1
   142   120   119    1
   143   114   115    1
   144   119   118    1
   145    49    48    1
   146    47    46    2
   147    48    45    1
   148    89    87   ar
   149    66    67    2
   150    45    46    1
   151    45    44    1
   152    87    86    1
   153   118   115    1
   154   115   116    1
   155    82    83    1
   156    83    86    1
   157    83    84    1
   158   116   117    2
   159    84    85    2
