@<TRIPOS>MOLECULE
tmp/5z87A01.pdb
 83 79 0 0 0
SMALL
GASTEIGER

@<TRIPOS>ATOM
      1  N        -28.3340  -20.2600   30.9460 N.3   172  PRO172     -0.2102
      2  CA       -27.3810  -19.4050   30.2120 C.3   172  PRO172      0.1504
      3  C        -26.5420  -20.1640   29.2030 C.2   172  PRO172      0.2575
      4  O        -26.3120  -19.6540   28.0940 O.2   172  PRO172     -0.2718
      5  CB       -26.5300  -18.7960   31.3320 C.3   172  PRO172      0.0282
      6  CG       -27.4490  -18.8000   32.5410 C.3   172  PRO172      0.0208
      7  CD       -28.1860  -20.1170   32.4080 C.3   172  PRO172      0.0893
      8  N        -26.0990  -21.3810   29.5290 N.am  173  HIS173     -0.1976
      9  CA       -25.2680  -22.1130   28.5730 C.3   173  HIS173      0.1656
     10  C        -26.0510  -22.4780   27.3150 C.2   173  HIS173      0.2291
     11  O        -25.5500  -22.3080   26.1970 O.2   173  HIS173     -0.2864
     12  CB       -24.6810  -23.3690   29.2160 C.3   173  HIS173      0.0771
     13  CG       -23.9070  -24.2220   28.2610 C.ar  173  HIS173      0.0820
     14  ND1      -22.6010  -23.9490   27.9090 N.ar  173  HIS173     -0.2267
     15  CD2      -24.2620  -25.3290   27.5620 C.ar  173  HIS173      0.1154
     16  CE1      -22.1790  -24.8590   27.0490 C.ar  173  HIS173      0.1986
     17  NE2      -23.1660  -25.7090   26.8220 N.ar  173  HIS173     -0.2212
     18  N        -26.7090  -19.4040   25.2630 N.3   176  THR176     -0.1203
     19  CA       -25.4480  -18.9630   24.6740 C.3   176  THR176      0.1994
     20  C        -25.0680  -19.8320   23.4830 C.2   176  THR176      0.2617
     21  O        -24.6850  -19.3250   22.4200 O.2   176  THR176     -0.2717
     22  CB       -24.3520  -18.9880   25.7420 C.3   176  THR176      0.1784
     23  OG1      -24.6330  -17.9720   26.7100 O.3   176  THR176     -0.2211
     24  CG2      -22.9680  -18.7540   25.1380 C.3   176  THR176      0.0376
     25  N        -25.1840  -21.1500   23.6440 N.am  177  VAL177     -0.1979
     26  CA       -24.8780  -22.0630   22.5510 C.3   177  VAL177      0.1595
     27  C        -25.8430  -21.8390   21.3980 C.2   177  VAL177      0.2287
     28  O        -25.4420  -21.7950   20.2290 O.2   177  VAL177     -0.2864
     29  CB       -24.9180  -23.5150   23.0580 C.3   177  VAL177      0.0276
     30  CG1      -25.0080  -24.4770   21.8910 C.3   177  VAL177      0.0022
     31  CG2      -23.6960  -23.8000   23.9290 C.3   177  VAL177      0.0022
     32  N        -23.3700  -13.0000   34.7920 N.3   230  ASN230     -0.1240
     33  CA       -23.2910  -14.4530   34.6960 C.3   230  ASN230      0.1653
     34  C        -24.5860  -15.1340   34.2760 C.2   230  ASN230      0.2266
     35  O        -24.5470  -16.3280   33.9520 O.2   230  ASN230     -0.2867
     36  CB       -22.8200  -15.0460   36.0330 C.3   230  ASN230      0.1155
     37  CG       -21.4660  -14.5040   36.4490 C.2   230  ASN230      0.2627
     38  OD1      -20.4420  -15.0650   36.0980 O.2   230  ASN230     -0.2716
     39  ND2      -21.4620  -13.4080   37.2060 N.am  230  ASN230     -0.0877
     40  N        -24.2410  -13.4600   29.1950 N.3   234  PRO234     -0.2116
     41  CA       -23.3320  -14.4090   28.4890 C.3   234  PRO234      0.1372
     42  C        -23.7690  -14.7170   27.0620 C.2   234  PRO234      0.2244
     43  O        -22.9100  -14.8340   26.1690 O.2   234  PRO234     -0.2868
     44  CB       -23.3580  -15.6600   29.3800 C.3   234  PRO234      0.0268
     45  CG       -23.5790  -15.0940   30.7670 C.3   234  PRO234      0.0207
     46  CD       -24.5140  -13.9180   30.5800 C.3   234  PRO234      0.0892
     47  N        -24.7720  -25.6340   37.6330 N.3   695  GLU695     -0.1245
     48  CA       -24.7370  -24.7680   36.4530 C.3   695  GLU695      0.1567
     49  C        -24.3440  -25.6070   35.2510 C.2   695  GLU695      0.2260
     50  O        -23.2370  -26.1600   35.2310 O.2   695  GLU695     -0.2867
     51  CB       -23.7190  -23.6350   36.6130 C.3   695  GLU695      0.0388
     52  CG       -23.4500  -23.2220   38.0330 C.3   695  GLU695      0.1160
     53  CD       -22.5870  -21.9820   38.1230 C.2   695  GLU695      0.3649
     54  OE1      -21.6690  -21.9580   38.9750 O.co2 695  GLU695     -0.2457
     55  OE2      -22.8360  -21.0350   37.3440 O.co2 695  GLU695     -0.2457
     56  N        -22.7170  -26.6730   31.9820 N.3   697  ARG697     -0.1245
     57  CA       -21.5300  -26.2540   31.2580 C.3   697  ARG697      0.1563
     58  C        -21.3010  -27.0330   29.9700 C.2   697  ARG697      0.2260
     59  O        -20.3810  -26.6830   29.2270 O.2   697  ARG697     -0.2867
     60  CB       -20.2820  -26.3700   32.1510 C.3   697  ARG697      0.0307
     61  CG       -20.2390  -25.3500   33.2920 C.3   697  ARG697      0.0489
     62  CD       -20.1970  -23.9500   32.7100 C.3   697  ARG697      0.2205
     63  NE       -20.0910  -22.8850   33.7040 N.pl3 697  ARG697     -0.0865
     64  CZ       -21.1310  -22.2030   34.1770 C.cat 697  ARG697      0.5346
     65  NH1      -22.3560  -22.5120   33.7790 N.pl3 697  ARG697      0.1354
     66  NH2      -20.9540  -21.2300   35.0690 N.pl3 697  ARG697      0.1354
     67  N        -13.1680  -20.2750   32.0180 N.3   719  GLU719     -0.1231
     68  CA       -14.4440  -19.6230   31.7720 C.3   719  GLU719      0.1699
     69  C        -15.6000  -20.4520   32.2930 C.2   719  GLU719      0.2592
     70  O        -16.6950  -19.9160   32.4810 O.2   719  GLU719     -0.2718
     71  CB       -14.6270  -19.3560   30.2720 C.3   719  GLU719      0.0402
     72  CG       -14.9700  -20.6070   29.4560 C.3   719  GLU719      0.1161
     73  CD       -13.7430  -21.4270   28.9840 C.2   719  GLU719      0.3649
     74  OE1      -12.6450  -21.2960   29.5840 O.co2 719  GLU719     -0.2457
     75  OE2      -13.8970  -22.2120   28.0080 O.co2 719  GLU719     -0.2457
     76  N        -15.3770  -21.7410   32.5430 N.am  720  ASP720     -0.1974
     77  CA       -16.4140  -22.6150   33.0680 C.3   720  ASP720      0.1709
     78  C        -16.3900  -22.6800   34.5860 C.2   720  ASP720      0.2293
     79  O        -17.4480  -22.6540   35.2210 O.2   720  ASP720     -0.2864
     80  CB       -16.2560  -24.0200   32.4850 C.3   720  ASP720      0.1436
     81  CG       -16.3920  -24.0280   30.9810 C.2   720  ASP720      0.3671
     82  OD1      -17.4400  -23.5620   30.4840 O.co2 720  ASP720     -0.2456
     83  OD2      -15.4460  -24.4680   30.2960 O.co2 720  ASP720     -0.2456
@<TRIPOS>BOND
     1    28    27    2
     2    27    26    1
     3    30    29    1
     4    21    20    2
     5    26    29    1
     6    26    25    1
     7    29    31    1
     8    20    25   am
     9    20    19    1
    10    19    18    1
    11    19    22    1
    12    24    22    1
    13    22    23    1
    14    43    42    2
    15    11    10    2
    16    17    16   ar
    17    17    15   ar
    18    16    14   ar
    19    42    41    1
    20    10     9    1
    21    15    13   ar
    22    14    13   ar
    23    75    73   ar
    24     4     3    2
    25    13    12    1
    26    41    40    1
    27    41    44    1
    28     9    12    1
    29     9     8    1
    30    73    72    1
    31    73    74   ar
    32    40    46    1
    33     3     8   am
    34     3     2    1
    35    59    58    2
    36    44    45    1
    37    72    71    1
    38    58    57    1
    39     2     1    1
    40     2     5    1
    41    71    68    1
    42    83    81   ar
    43    82    81   ar
    44    46    45    1
    45     1     7    1
    46    81    80    1
    47    57    56    1
    48    57    60    1
    49     5     6    1
    50    68    67    1
    51    68    69    1
    52    60    61    1
    53    69    70    2
    54    69    76   am
    55     7     6    1
    56    80    77    1
    57    76    77    1
    58    62    61    1
    59    62    63    1
    60    77    78    1
    61    63    64    2
    62    65    64    1
    63    35    34    2
    64    64    66    1
    65    34    33    1
    66    78    79    2
    67    33    32    1
    68    33    36    1
    69    50    49    2
    70    49    48    1
    71    36    37    1
    72    38    37    2
    73    37    39   am
    74    48    51    1
    75    48    47    1
    76    51    52    1
    77    55    53   ar
    78    52    53    1
    79    53    54   ar
