@<TRIPOS>MOLECULE
tmp/5z87A02.pdb
 116 113 0 0 0
SMALL
GASTEIGER

@<TRIPOS>ATOM
      1  N        -31.6390  -21.5330   30.6960 N.3   171  ASP171     -0.1225
      2  CA       -30.2470  -21.8150   31.0490 C.3   171  ASP171      0.1790
      3  C        -29.2850  -20.9220   30.2690 C.2   171  ASP171      0.2440
      4  O        -29.3750  -20.8570   29.0370 O.2   171  ASP171     -0.2733
      5  CB       -29.9010  -23.2610   30.7710 C.3   171  ASP171      0.1423
      6  CG       -28.4610  -23.5650   31.0910 C.2   171  ASP171      0.3668
      7  OD1      -28.0630  -23.3490   32.2540 O.co2 171  ASP171     -0.2456
      8  OD2      -27.7280  -24.0040   30.1870 O.co2 171  ASP171     -0.2456
      9  N        -28.3340  -20.2600   30.9460 N.am  172  PRO172     -0.2718
     10  CA       -27.3810  -19.4050   30.2120 C.3   172  PRO172      0.1535
     11  C        -26.5420  -20.1640   29.2030 C.2   172  PRO172      0.2598
     12  O        -26.3120  -19.6540   28.0940 O.2   172  PRO172     -0.2715
     13  CB       -26.5300  -18.7960   31.3320 C.3   172  PRO172      0.0310
     14  CG       -27.4490  -18.8000   32.5410 C.3   172  PRO172      0.0237
     15  CD       -28.1860  -20.1170   32.4080 C.3   172  PRO172      0.0939
     16  N        -26.0990  -21.3810   29.5290 N.am  173  HIS173     -0.1974
     17  CA       -25.2680  -22.1130   28.5730 C.3   173  HIS173      0.1656
     18  C        -26.0510  -22.4780   27.3150 C.2   173  HIS173      0.2291
     19  O        -25.5500  -22.3080   26.1970 O.2   173  HIS173     -0.2864
     20  CB       -24.6810  -23.3690   29.2160 C.3   173  HIS173      0.0771
     21  CG       -23.9070  -24.2220   28.2610 C.ar  173  HIS173      0.0820
     22  ND1      -22.6010  -23.9490   27.9090 N.ar  173  HIS173     -0.2267
     23  CD2      -24.2620  -25.3290   27.5620 C.ar  173  HIS173      0.1154
     24  CE1      -22.1790  -24.8590   27.0490 C.ar  173  HIS173      0.1986
     25  NE2      -23.1660  -25.7090   26.8220 N.ar  173  HIS173     -0.2212
     26  N        -25.2650  -11.0810   38.8450 N.3   227  GLU227     -0.1245
     27  CA       -26.3020  -11.7990   38.1130 C.3   227  GLU227      0.1567
     28  C        -26.3110  -11.3900   36.6360 C.2   227  GLU227      0.2260
     29  O        -26.3160  -12.2420   35.7430 O.2   227  GLU227     -0.2867
     30  CB       -27.6600  -11.5290   38.7680 C.3   227  GLU227      0.0388
     31  CG       -28.8410  -12.1930   38.0660 C.3   227  GLU227      0.1160
     32  CD       -30.1870  -11.7320   38.6130 C.2   227  GLU227      0.3649
     33  OE1      -30.2160  -10.7280   39.3450 O.co2 227  GLU227     -0.2457
     34  OE2      -31.2210  -12.3710   38.3080 O.co2 227  GLU227     -0.2457
     35  N        -23.3700  -13.0000   34.7920 N.3   230  ASN230     -0.1225
     36  CA       -23.2910  -14.4530   34.6960 C.3   230  ASN230      0.1785
     37  C        -24.5860  -15.1340   34.2760 C.2   230  ASN230      0.2597
     38  O        -24.5470  -16.3280   33.9520 O.2   230  ASN230     -0.2718
     39  CB       -22.8200  -15.0460   36.0330 C.3   230  ASN230      0.1169
     40  CG       -21.4660  -14.5040   36.4490 C.2   230  ASN230      0.2627
     41  OD1      -20.4420  -15.0650   36.0980 O.2   230  ASN230     -0.2716
     42  ND2      -21.4620  -13.4080   37.2060 N.am  230  ASN230     -0.0877
     43  N        -25.7230  -14.4340   34.2800 N.am  231  VAL231     -0.1980
     44  CA       -26.9990  -14.9940   33.8200 C.3   231  VAL231      0.1595
     45  C        -27.4150  -14.3860   32.4920 C.2   231  VAL231      0.2287
     46  O        -27.5880  -15.0940   31.5010 O.2   231  VAL231     -0.2864
     47  CB       -28.1160  -14.8100   34.8740 C.3   231  VAL231      0.0276
     48  CG1      -29.4360  -15.3250   34.3280 C.3   231  VAL231      0.0022
     49  CG2      -27.7730  -15.5040   36.1750 C.3   231  VAL231      0.0022
     50  N        -30.9170  -23.3730   38.4160 N.3   612  TYR612     -0.1241
     51  CA       -29.6150  -22.9480   38.9360 C.3   612  TYR612      0.1605
     52  C        -29.7990  -22.0070   40.1180 C.2   612  TYR612      0.2264
     53  O        -29.2540  -20.8950   40.1270 O.2   612  TYR612     -0.2867
     54  CB       -28.7320  -22.2990   37.8420 C.3   612  TYR612      0.0534
     55  CG       -29.4760  -21.3240   36.9630 C.ar  612  TYR612     -0.0201
     56  CD1      -30.2500  -21.7780   35.8930 C.ar  612  TYR612     -0.0009
     57  CD2      -29.4220  -19.9520   37.2010 C.ar  612  TYR612     -0.0009
     58  CE1      -30.9480  -20.8970   35.0990 C.ar  612  TYR612      0.0417
     59  CE2      -30.1260  -19.0580   36.4090 C.ar  612  TYR612      0.0417
     60  CZ       -30.8810  -19.5340   35.3540 C.ar  612  TYR612      0.1957
     61  OH       -31.5780  -18.6610   34.5430 O.3   612  TYR612     -0.2866
     62  N        -29.4070  -20.3830   43.8250 N.3   614  LYS614     -0.1245
     63  CA       -28.3920  -20.2310   44.8550 C.3   614  LYS614      0.1561
     64  C        -28.6470  -21.2960   45.9180 C.2   614  LYS614      0.2260
     65  O        -29.7330  -21.8800   45.9240 O.2   614  LYS614     -0.2867
     66  CB       -28.4540  -18.8160   45.4350 C.3   614  LYS614      0.0271
     67  CG       -28.1930  -17.7150   44.4220 C.3   614  LYS614      0.0035
     68  CD       -26.8340  -17.9060   43.7620 C.3   614  LYS614      0.0206
     69  CE       -26.3820  -16.6390   43.0430 C.3   614  LYS614      0.1093
     70  NZ       -26.1510  -15.5890   44.0620 N.3   614  LYS614     -0.1314
     71  N        -22.7220  -18.9560   44.5990 N.3   691  ARG691     -0.1231
     72  CA       -22.9790  -19.4120   43.2440 C.3   691  ARG691      0.1679
     73  C        -24.0340  -20.5090   43.2450 C.2   691  ARG691      0.2434
     74  O        -24.3210  -21.1040   44.2920 O.2   691  ARG691     -0.2733
     75  CB       -21.6790  -19.9190   42.6060 C.3   691  ARG691      0.0321
     76  CG       -20.6780  -18.8000   42.3950 C.3   691  ARG691      0.0489
     77  CD       -19.4770  -19.2530   41.6320 C.3   691  ARG691      0.2205
     78  NE       -19.8020  -19.8570   40.3380 N.pl3 691  ARG691     -0.0865
     79  CZ       -18.8750  -20.2860   39.4820 C.cat 691  ARG691      0.5346
     80  NH1      -17.5880  -20.1660   39.7950 N.pl3 691  ARG691      0.1354
     81  NH2      -19.2240  -20.8470   38.3290 N.pl3 691  ARG691      0.1354
     82  N        -24.6340  -20.8050   42.0920 N.am  692  PRO692     -0.2729
     83  CA       -25.7380  -21.7710   42.0730 C.3   692  PRO692      0.1401
     84  C        -25.3010  -23.1490   42.5440 C.2   692  PRO692      0.2269
     85  O        -24.1200  -23.5030   42.5220 O.2   692  PRO692     -0.2865
     86  CB       -26.1670  -21.7960   40.5990 C.3   692  PRO692      0.0296
     87  CG       -25.7880  -20.4620   40.0970 C.3   692  PRO692      0.0237
     88  CD       -24.4590  -20.1760   40.7690 C.3   692  PRO692      0.0939
     89  N        -24.7720  -25.6340   37.6330 N.3   695  GLU695     -0.1231
     90  CA       -24.7370  -24.7680   36.4530 C.3   695  GLU695      0.1699
     91  C        -24.3440  -25.6070   35.2510 C.2   695  GLU695      0.2592
     92  O        -23.2370  -26.1600   35.2310 O.2   695  GLU695     -0.2718
     93  CB       -23.7190  -23.6350   36.6130 C.3   695  GLU695      0.0402
     94  CG       -23.4500  -23.2220   38.0330 C.3   695  GLU695      0.1161
     95  CD       -22.5870  -21.9820   38.1230 C.2   695  GLU695      0.3649
     96  OE1      -21.6690  -21.9580   38.9750 O.co2 695  GLU695     -0.2457
     97  OE2      -22.8360  -21.0350   37.3440 O.co2 695  GLU695     -0.2457
     98  N        -25.2170  -25.6810   34.2480 N.am  696  MET696     -0.1965
     99  CA       -24.8790  -26.4390   33.0510 C.3   696  MET696      0.1736
    100  C        -23.6760  -25.8200   32.3450 C.2   696  MET696      0.2616
    101  O        -23.6030  -24.5980   32.1580 O.2   696  MET696     -0.2715
    102  CB       -26.0660  -26.5050   32.0970 C.3   696  MET696      0.0427
    103  CG       -25.6860  -27.0600   30.7330 C.3   696  MET696      0.0599
    104  SD       -27.1190  -27.4310   29.6920 S.3   696  MET696     -0.1393
    105  CE       -27.5030  -29.0960   30.2400 C.3   696  MET696      0.0692
    106  N        -22.7170  -26.6730   31.9820 N.am  697  ARG697     -0.1977
    107  CA       -21.5300  -26.2540   31.2580 C.3   697  ARG697      0.1597
    108  C        -21.3010  -27.0330   29.9700 C.2   697  ARG697      0.2287
    109  O        -20.3810  -26.6830   29.2270 O.2   697  ARG697     -0.2864
    110  CB       -20.2820  -26.3700   32.1510 C.3   697  ARG697      0.0334
    111  CG       -20.2390  -25.3500   33.2920 C.3   697  ARG697      0.0492
    112  CD       -20.1970  -23.9500   32.7100 C.3   697  ARG697      0.2205
    113  NE       -20.0910  -22.8850   33.7040 N.pl3 697  ARG697     -0.0865
    114  CZ       -21.1310  -22.2030   34.1770 C.cat 697  ARG697      0.5346
    115  NH1      -22.3560  -22.5120   33.7790 N.pl3 697  ARG697      0.1354
    116  NH2      -20.9540  -21.2300   35.0690 N.pl3 697  ARG697      0.1354
@<TRIPOS>BOND
     1    19    18    2
     2    25    24   ar
     3    25    23   ar
     4    24    22   ar
     5    18    17    1
     6    23    21   ar
     7    22    21   ar
     8    12    11    2
     9    21    20    1
    10    17    20    1
    11    17    16    1
    12     4     3    2
    13    11    16   am
    14    11    10    1
    15   109   108    2
    16   104   105    1
    17   104   103    1
    18   108   107    1
    19     8     6   ar
    20    10     9    1
    21    10    13    1
    22     3     9   am
    23     3     2    1
    24     1     2    1
    25   103   102    1
    26     5     2    1
    27     5     6    1
    28     9    15    1
    29     6     7   ar
    30   107   106    1
    31   107   110    1
    32    13    14    1
    33    46    45    2
    34   106   100   am
    35   102    99    1
    36   110   111    1
    37   101   100    2
    38   100    99    1
    39    15    14    1
    40    45    44    1
    41   112   111    1
    42   112   113    1
    43    99    98    1
    44   113   114    2
    45   115   114    1
    46    44    43    1
    47    44    47    1
    48    38    37    2
    49   114   116    1
    50    98    91   am
    51    37    43   am
    52    37    36    1
    53    48    47    1
    54    61    60    1
    55    36    35    1
    56    36    39    1
    57    47    49    1
    58    58    60   ar
    59    58    56   ar
    60    92    91    2
    61    91    90    1
    62    60    59   ar
    63    29    28    2
    64    56    55   ar
    65    39    40    1
    66    41    40    2
    67    59    57   ar
    68    40    42   am
    69    90    93    1
    70    90    89    1
    71    93    94    1
    72    28    27    1
    73    55    57   ar
    74    55    54    1
    75    97    95   ar
    76    54    51    1
    77    94    95    1
    78    31    32    1
    79    31    30    1
    80    27    30    1
    81    27    26    1
    82    95    96   ar
    83    34    32   ar
    84    81    79    1
    85    50    51    1
    86    32    33   ar
    87    51    52    1
    88    79    80    1
    89    79    78    2
    90    87    86    1
    91    87    88    1
    92    52    53    2
    93    78    77    1
    94    86    83    1
    95    88    82    1
    96    77    76    1
    97    83    82    1
    98    83    84    1
    99    82    73   am
   100    76    75    1
   101    85    84    2
   102    75    72    1
   103    69    68    1
   104    69    70    1
   105    72    73    1
   106    72    71    1
   107    73    74    2
   108    68    67    1
   109    62    63    1
   110    67    66    1
   111    63    66    1
   112    63    64    1
   113    64    65    2
