@<TRIPOS>MOLECULE
tmp/5z87A03.pdb
 106 101 0 0 0
SMALL
GASTEIGER

@<TRIPOS>ATOM
      1  N        -23.6490   -8.8300   39.3300 N.3   226  VAL226     -0.1231
      2  CA       -23.0380  -10.1410   39.1450 C.3   226  VAL226      0.1692
      3  C        -23.9980  -11.0800   38.4290 C.2   226  VAL226      0.2591
      4  O        -23.6090  -11.8020   37.5000 O.2   226  VAL226     -0.2718
      5  CB       -22.5750  -10.7110   40.4960 C.3   226  VAL226      0.0266
      6  CG1      -21.9770  -12.0800   40.3020 C.3   226  VAL226      0.0020
      7  CG2      -21.5550   -9.7690   41.1330 C.3   226  VAL226      0.0020
      8  N        -25.2650  -11.0810   38.8450 N.am  227  GLU227     -0.1979
      9  CA       -26.3020  -11.7990   38.1130 C.3   227  GLU227      0.1602
     10  C        -26.3110  -11.3900   36.6360 C.2   227  GLU227      0.2287
     11  O        -26.3160  -12.2420   35.7430 O.2   227  GLU227     -0.2864
     12  CB       -27.6600  -11.5290   38.7680 C.3   227  GLU227      0.0415
     13  CG       -28.8410  -12.1930   38.0660 C.3   227  GLU227      0.1163
     14  CD       -30.1870  -11.7320   38.6130 C.2   227  GLU227      0.3649
     15  OE1      -30.2160  -10.7280   39.3450 O.co2 227  GLU227     -0.2457
     16  OE2      -31.2210  -12.3710   38.3080 O.co2 227  GLU227     -0.2457
     17  N        -23.3700  -13.0000   34.7920 N.3   230  ASN230     -0.1225
     18  CA       -23.2910  -14.4530   34.6960 C.3   230  ASN230      0.1785
     19  C        -24.5860  -15.1340   34.2760 C.2   230  ASN230      0.2597
     20  O        -24.5470  -16.3280   33.9520 O.2   230  ASN230     -0.2718
     21  CB       -22.8200  -15.0460   36.0330 C.3   230  ASN230      0.1169
     22  CG       -21.4660  -14.5040   36.4490 C.2   230  ASN230      0.2627
     23  OD1      -20.4420  -15.0650   36.0980 O.2   230  ASN230     -0.2716
     24  ND2      -21.4620  -13.4080   37.2060 N.am  230  ASN230     -0.0877
     25  N        -25.7230  -14.4340   34.2800 N.am  231  VAL231     -0.1980
     26  CA       -26.9990  -14.9940   33.8200 C.3   231  VAL231      0.1595
     27  C        -27.4150  -14.3860   32.4920 C.2   231  VAL231      0.2287
     28  O        -27.5880  -15.0940   31.5010 O.2   231  VAL231     -0.2864
     29  CB       -28.1160  -14.8100   34.8740 C.3   231  VAL231      0.0276
     30  CG1      -29.4360  -15.3250   34.3280 C.3   231  VAL231      0.0022
     31  CG2      -27.7730  -15.5040   36.1750 C.3   231  VAL231      0.0022
     32  N        -29.4070  -20.3830   43.8250 N.3   614  LYS614     -0.1245
     33  CA       -28.3920  -20.2310   44.8550 C.3   614  LYS614      0.1561
     34  C        -28.6470  -21.2960   45.9180 C.2   614  LYS614      0.2260
     35  O        -29.7330  -21.8800   45.9240 O.2   614  LYS614     -0.2867
     36  CB       -28.4540  -18.8160   45.4350 C.3   614  LYS614      0.0271
     37  CG       -28.1930  -17.7150   44.4220 C.3   614  LYS614      0.0035
     38  CD       -26.8340  -17.9060   43.7620 C.3   614  LYS614      0.0206
     39  CE       -26.3820  -16.6390   43.0430 C.3   614  LYS614      0.1093
     40  NZ       -26.1510  -15.5890   44.0620 N.3   614  LYS614     -0.1314
     41  N        -18.4710  -14.8850   45.9160 N.3   689  ARG689     -0.1231
     42  CA       -19.9100  -14.6540   45.9290 C.3   689  ARG689      0.1694
     43  C        -20.6410  -15.9810   45.7630 C.2   689  ARG689      0.2592
     44  O        -20.1810  -16.8690   45.0360 O.2   689  ARG689     -0.2718
     45  CB       -20.3210  -13.6900   44.8280 C.3   689  ARG689      0.0321
     46  CG       -19.7810  -12.3160   45.0890 C.3   689  ARG689      0.0489
     47  CD       -20.5630  -11.2600   44.4210 C.3   689  ARG689      0.2205
     48  NE       -19.9850   -9.9580   44.7010 N.pl3 689  ARG689     -0.0865
     49  CZ       -20.6520   -8.8130   44.6520 C.cat 689  ARG689      0.5346
     50  NH1      -21.9570   -8.7940   44.3480 N.pl3 689  ARG689      0.1354
     51  NH2      -20.0020   -7.6840   44.9080 N.pl3 689  ARG689      0.1354
     52  N        -21.7740  -16.1170   46.4490 N.am  690  ALA690     -0.1966
     53  CA       -22.5220  -17.3680   46.4210 C.3   690  ALA690      0.1728
     54  C        -22.9510  -17.7150   44.9980 C.2   690  ALA690      0.2616
     55  O        -23.4930  -16.8750   44.2800 O.2   690  ALA690     -0.2715
     56  CB       -23.7380  -17.2550   47.3250 C.3   690  ALA690      0.0334
     57  N        -22.7220  -18.9560   44.5990 N.am  691  ARG691     -0.1964
     58  CA       -22.9790  -19.4120   43.2440 C.3   691  ARG691      0.1714
     59  C        -24.0340  -20.5090   43.2450 C.2   691  ARG691      0.2458
     60  O        -24.3210  -21.1040   44.2920 O.2   691  ARG691     -0.2730
     61  CB       -21.6790  -19.9190   42.6060 C.3   691  ARG691      0.0347
     62  CG       -20.6780  -18.8000   42.3950 C.3   691  ARG691      0.0492
     63  CD       -19.4770  -19.2530   41.6320 C.3   691  ARG691      0.2205
     64  NE       -19.8020  -19.8570   40.3380 N.pl3 691  ARG691     -0.0865
     65  CZ       -18.8750  -20.2860   39.4820 C.cat 691  ARG691      0.5346
     66  NH1      -17.5880  -20.1660   39.7950 N.pl3 691  ARG691      0.1354
     67  NH2      -19.2240  -20.8470   38.3290 N.pl3 691  ARG691      0.1354
     68  N        -24.6340  -20.8050   42.0920 N.am  692  PRO692     -0.2727
     69  CA       -25.7380  -21.7710   42.0730 C.3   692  PRO692      0.1402
     70  C        -25.3010  -23.1490   42.5440 C.2   692  PRO692      0.2269
     71  O        -24.1200  -23.5030   42.5220 O.2   692  PRO692     -0.2865
     72  CB       -26.1670  -21.7960   40.5990 C.3   692  PRO692      0.0296
     73  CG       -25.7880  -20.4620   40.0970 C.3   692  PRO692      0.0237
     74  CD       -24.4590  -20.1760   40.7690 C.3   692  PRO692      0.0939
     75  N        -24.7720  -25.6340   37.6330 N.3   695  GLU695     -0.1245
     76  CA       -24.7370  -24.7680   36.4530 C.3   695  GLU695      0.1567
     77  C        -24.3440  -25.6070   35.2510 C.2   695  GLU695      0.2260
     78  O        -23.2370  -26.1600   35.2310 O.2   695  GLU695     -0.2867
     79  CB       -23.7190  -23.6350   36.6130 C.3   695  GLU695      0.0388
     80  CG       -23.4500  -23.2220   38.0330 C.3   695  GLU695      0.1160
     81  CD       -22.5870  -21.9820   38.1230 C.2   695  GLU695      0.3649
     82  OE1      -21.6690  -21.9580   38.9750 O.co2 695  GLU695     -0.2457
     83  OE2      -22.8360  -21.0350   37.3440 O.co2 695  GLU695     -0.2457
     84  N        -22.7170  -26.6730   31.9820 N.3   697  ARG697     -0.1245
     85  CA       -21.5300  -26.2540   31.2580 C.3   697  ARG697      0.1563
     86  C        -21.3010  -27.0330   29.9700 C.2   697  ARG697      0.2260
     87  O        -20.3810  -26.6830   29.2270 O.2   697  ARG697     -0.2867
     88  CB       -20.2820  -26.3700   32.1510 C.3   697  ARG697      0.0307
     89  CG       -20.2390  -25.3500   33.2920 C.3   697  ARG697      0.0489
     90  CD       -20.1970  -23.9500   32.7100 C.3   697  ARG697      0.2205
     91  NE       -20.0910  -22.8850   33.7040 N.pl3 697  ARG697     -0.0865
     92  CZ       -21.1310  -22.2030   34.1770 C.cat 697  ARG697      0.5346
     93  NH1      -22.3560  -22.5120   33.7790 N.pl3 697  ARG697      0.1354
     94  NH2      -20.9540  -21.2300   35.0690 N.pl3 697  ARG697      0.1354
     95  N        -16.2790  -17.2510   37.6420 N.3   723  TYR723     -0.1241
     96  CA       -17.4480  -16.4160   37.4170 C.3   723  TYR723      0.1605
     97  C        -16.9680  -14.9840   37.2820 C.2   723  TYR723      0.2264
     98  O        -15.8640  -14.6460   37.7100 O.2   723  TYR723     -0.2867
     99  CB       -18.4750  -16.5640   38.5490 C.3   723  TYR723      0.0534
    100  CG       -18.1230  -15.8010   39.8040 C.ar  723  TYR723     -0.0201
    101  CD1      -17.1930  -16.2920   40.7100 C.ar  723  TYR723     -0.0009
    102  CD2      -18.7270  -14.5880   40.0800 C.ar  723  TYR723     -0.0009
    103  CE1      -16.8680  -15.5720   41.8620 C.ar  723  TYR723      0.0417
    104  CE2      -18.4210  -13.8730   41.2230 C.ar  723  TYR723      0.0417
    105  CZ       -17.5000  -14.3630   42.1080 C.ar  723  TYR723      0.1957
    106  OH       -17.2140  -13.6170   43.2340 O.3   723  TYR723     -0.2866
@<TRIPOS>BOND
     1    87    86    2
     2    86    85    1
     3    85    84    1
     4    85    88    1
     5    28    27    2
     6    88    89    1
     7    27    26    1
     8    90    89    1
     9    90    91    1
    10    91    92    2
    11    93    92    1
    12    26    25    1
    13    26    29    1
    14    20    19    2
    15    92    94    1
    16    19    25   am
    17    19    18    1
    18    30    29    1
    19    18    17    1
    20    18    21    1
    21    29    31    1
    22    78    77    2
    23    77    76    1
    24    11    10    2
    25    21    22    1
    26    23    22    2
    27    22    24   am
    28    76    79    1
    29    76    75    1
    30    79    80    1
    31    10     9    1
    32    97    96    1
    33    97    98    2
    34    83    81   ar
    35    96    95    1
    36    96    99    1
    37     4     3    2
    38    80    81    1
    39    13    14    1
    40    13    12    1
    41     9    12    1
    42     9     8    1
    43    81    82   ar
    44    16    14   ar
    45    67    65    1
    46     3     8   am
    47     3     2    1
    48    99   100    1
    49    14    15   ar
    50     2     1    1
    51     2     5    1
    52    65    66    1
    53    65    64    2
    54   100   102   ar
    55   100   101   ar
    56   102   104   ar
    57    73    72    1
    58    73    74    1
    59     6     5    1
    60    64    63    1
    61     5     7    1
    62    72    69    1
    63   101   103   ar
    64    74    68    1
    65   104   105   ar
    66    63    62    1
    67   103   105   ar
    68    69    68    1
    69    69    70    1
    70    68    59   am
    71   105   106    1
    72    62    61    1
    73    71    70    2
    74    61    58    1
    75    39    38    1
    76    39    40    1
    77    58    59    1
    78    58    57    1
    79    59    60    2
    80    38    37    1
    81    32    33    1
    82    55    54    2
    83    50    49    1
    84    47    48    1
    85    47    46    1
    86    37    36    1
    87    57    54   am
    88    49    48    2
    89    49    51    1
    90    45    46    1
    91    45    42    1
    92    33    36    1
    93    33    34    1
    94    54    53    1
    95    44    43    2
    96    43    42    1
    97    43    52   am
    98    41    42    1
    99    34    35    2
   100    53    52    1
   101    53    56    1
