@<TRIPOS>MOLECULE
tmp/5z8aA01.pdb
 133 128 0 0 0
SMALL
GASTEIGER

@<TRIPOS>ATOM
      1  N         44.6620  -13.2870  -14.7080 N.3     8  THR8       -0.1218
      2  CA        45.9780  -13.4960  -14.1250 C.3     8  THR8        0.1862
      3  C         45.8220  -13.7280  -12.6280 C.2     8  THR8        0.2287
      4  O         45.1700  -12.9450  -11.9270 O.2     8  THR8       -0.2866
      5  CB        46.8490  -12.2670  -14.3850 C.3     8  THR8        0.1770
      6  OG1       46.9590  -12.0460  -15.7960 O.3     8  THR8       -0.2211
      7  CG2       48.2460  -12.4600  -13.8130 C.3     8  THR8        0.0375
      8  N         48.4490   -8.1010   -7.9030 N.3    43  ARG43      -0.1245
      9  CA        49.2190   -7.4860   -8.9810 C.3    43  ARG43       0.1563
     10  C         49.7560   -6.1120   -8.5810 C.2    43  ARG43       0.2260
     11  O         49.8950   -5.2110   -9.4170 O.2    43  ARG43      -0.2867
     12  CB        48.4210   -7.4400  -10.2910 C.3    43  ARG43       0.0307
     13  CG        48.6630   -8.6490  -11.2160 C.3    43  ARG43       0.0489
     14  CD        48.4350   -9.9880  -10.5090 C.3    43  ARG43       0.2205
     15  NE        47.0110  -10.2500  -10.3200 N.pl3  43  ARG43      -0.0865
     16  CZ        46.4990  -11.0490   -9.3880 C.cat  43  ARG43       0.5346
     17  NH1       47.2860  -11.6890   -8.5360 N.pl3  43  ARG43       0.1354
     18  NH2       45.1840  -11.1970   -9.3040 N.pl3  43  ARG43       0.1354
     19  N         52.9390   -2.4420  -21.0150 N.3   124  TYR124     -0.1241
     20  CA        51.5750   -2.9430  -21.0240 C.3   124  TYR124      0.1605
     21  C         50.6200   -1.8350  -20.6030 C.2   124  TYR124      0.2264
     22  O         50.8980   -1.0830  -19.6630 O.2   124  TYR124     -0.2867
     23  CB        51.4670   -4.1010  -20.0330 C.3   124  TYR124      0.0534
     24  CG        50.1280   -4.7940  -20.0320 C.ar  124  TYR124     -0.0201
     25  CD1       49.6740   -5.4640  -21.1630 C.ar  124  TYR124     -0.0009
     26  CD2       49.3170   -4.7850  -18.9010 C.ar  124  TYR124     -0.0009
     27  CE1       48.4550   -6.1100  -21.1750 C.ar  124  TYR124      0.0417
     28  CE2       48.0910   -5.4460  -18.9010 C.ar  124  TYR124      0.0417
     29  CZ        47.6740   -6.0940  -20.0430 C.ar  124  TYR124      0.1957
     30  OH        46.4620   -6.7430  -20.0590 O.3   124  TYR124     -0.2866
     31  N         49.0730   -6.4250  -31.3940 N.3   133  CYS133     -0.1235
     32  CA        49.7790   -6.2910  -32.6600 C.3   133  CYS133      0.1677
     33  C         50.4560   -7.6010  -33.0250 C.2   133  CYS133      0.2270
     34  O         50.7920   -8.4100  -32.1590 O.2   133  CYS133     -0.2867
     35  CB        50.8130   -5.1700  -32.6380 C.3   133  CYS133      0.0956
     36  SG        52.1790   -5.4870  -31.5290 S.3   133  CYS133     -0.0801
     37  N         50.1050    3.3250  -13.9850 N.3   200  VAL200     -0.1231
     38  CA        49.1900    2.4260  -13.2890 C.3   200  VAL200      0.1692
     39  C         49.9300    1.6150  -12.2350 C.2   200  VAL200      0.2591
     40  O         49.4400    1.4320  -11.1100 O.2   200  VAL200     -0.2718
     41  CB        48.4620    1.5360  -14.3110 C.3   200  VAL200      0.0266
     42  CG1       47.8850    0.2670  -13.6330 C.3   200  VAL200      0.0020
     43  CG2       47.3620    2.3350  -15.0070 C.3   200  VAL200      0.0020
     44  N         51.1300    1.1400  -12.5700 N.am  201  LYS201     -0.1980
     45  CA        51.8820    0.3060  -11.6420 C.3   201  LYS201      0.1596
     46  C         52.8560    1.1010  -10.7840 C.2   201  LYS201      0.2287
     47  O         52.9840    0.8290   -9.5850 O.2   201  LYS201     -0.2864
     48  CB        52.6390   -0.7720  -12.4210 C.3   201  LYS201      0.0298
     49  CG        53.3720   -1.7780  -11.5300 C.3   201  LYS201      0.0038
     50  CD        53.7280   -3.0160  -12.3110 C.3   201  LYS201      0.0206
     51  CE        54.7740   -2.6980  -13.3470 C.3   201  LYS201      0.1093
     52  NZ        55.0630   -3.8620  -14.2540 N.3   201  LYS201     -0.1314
     53  N         47.1320    1.3210   -9.2690 N.3   224  LYS224     -0.1245
     54  CA        47.3880    0.2470   -8.3080 C.3   224  LYS224      0.1561
     55  C         47.6940    0.7840   -6.9180 C.2   224  LYS224      0.2260
     56  O         47.2840    0.1910   -5.9170 O.2   224  LYS224     -0.2867
     57  CB        48.5140   -0.6540   -8.7990 C.3   224  LYS224      0.0271
     58  CG        48.1530   -1.4140  -10.0490 C.3   224  LYS224      0.0035
     59  CD        49.3000   -2.2750  -10.5540 C.3   224  LYS224      0.0206
     60  CE        48.8590   -3.1580  -11.7020 C.3   224  LYS224      0.1093
     61  NZ        50.0170   -3.9130  -12.2170 N.3   224  LYS224     -0.1314
     62  N         54.5070  -13.5210   -7.7600 N.3   334  PHE334     -0.1241
     63  CA        53.9240  -13.2920   -9.0780 C.3   334  PHE334      0.1605
     64  C         54.9170  -13.8960  -10.0690 C.2   334  PHE334      0.2264
     65  O         55.9500  -13.2980  -10.3910 O.2   334  PHE334     -0.2867
     66  CB        53.7130  -11.7940   -9.2710 C.3   334  PHE334      0.0534
     67  CG        52.9640  -11.4180  -10.5250 C.ar  334  PHE334     -0.0203
     68  CD1       52.4710  -12.3740  -11.3980 C.ar  334  PHE334     -0.0042
     69  CD2       52.7630  -10.0760  -10.8250 C.ar  334  PHE334     -0.0042
     70  CE1       51.7820  -11.9950  -12.5620 C.ar  334  PHE334     -0.0003
     71  CE2       52.0820   -9.6900  -11.9770 C.ar  334  PHE334     -0.0003
     72  CZ        51.5870  -10.6460  -12.8400 C.ar  334  PHE334     -0.0000
     73  N         57.1900  -12.3880  -13.0630 N.3   337  ASP337     -0.1225
     74  CA        56.8030  -10.9900  -13.1720 C.3   337  ASP337      0.1805
     75  C         57.3760  -10.2900  -11.9470 C.2   337  ASP337      0.2597
     76  O         58.2900  -10.8010  -11.2890 O.2   337  ASP337     -0.2718
     77  CB        55.2780  -10.8910  -13.3460 C.3   337  ASP337      0.1424
     78  CG        54.8400   -9.6200  -14.0710 C.2   337  ASP337      0.3668
     79  OD1       55.2290   -8.5130  -13.6400 O.co2 337  ASP337     -0.2456
     80  OD2       54.0990   -9.7510  -15.0730 O.co2 337  ASP337     -0.2456
     81  N         56.8420   -9.1220  -11.6060 N.am  338  ASN338     -0.1974
     82  CA        57.4260   -8.3620  -10.5130 C.3   338  ASN338      0.1688
     83  C         56.7660   -8.6900   -9.1790 C.2   338  ASN338      0.2292
     84  O         55.5810   -9.0360   -9.1120 O.2   338  ASN338     -0.2864
     85  CB        57.4600   -6.8480  -10.7700 C.3   338  ASN338      0.1181
     86  CG        56.1420   -6.2790  -11.2740 C.2   338  ASN338      0.2629
     87  OD1       56.1500   -5.3530  -12.0860 O.2   338  ASN338     -0.2716
     88  ND2       55.0200   -6.8040  -10.8000 N.am  338  ASN338     -0.0877
     89  N         61.8370   -8.9610  -20.0130 N.3   383  TRP383     -0.1227
     90  CA        60.7120   -8.9980  -20.9430 C.3   383  TRP383      0.1737
     91  C         59.4260   -9.4400  -20.2530 C.2   383  TRP383      0.2596
     92  O         58.3540   -8.8740  -20.4910 O.2   383  TRP383     -0.2718
     93  CB        61.0570   -9.9540  -22.0850 C.3   383  TRP383      0.0564
     94  CG        60.0550  -10.0610  -23.2100 C.ar  383  TRP383      0.0003
     95  CD1       58.9440  -10.8600  -23.2490 C.ar  383  TRP383      0.0946
     96  CD2       60.1090   -9.3890  -24.4750 C.ar  383  TRP383      0.0152
     97  NE1       58.2980  -10.7170  -24.4590 N.ar  383  TRP383     -0.2442
     98  CE2       58.9930   -9.8180  -25.2270 C.ar  383  TRP383      0.0810
     99  CE3       60.9940   -8.4670  -25.0470 C.ar  383  TRP383      0.0012
    100  CZ2       58.7350   -9.3490  -26.5110 C.ar  383  TRP383      0.0191
    101  CZ3       60.7390   -8.0080  -26.3290 C.ar  383  TRP383      0.0001
    102  CH2       59.6180   -8.4460  -27.0440 C.ar  383  TRP383      0.0015
    103  N         59.5130  -10.4480  -19.3860 N.am  384  GLY384     -0.1942
    104  CA        58.3180  -10.9240  -18.7150 C.3   384  GLY384      0.2014
    105  C         57.7500   -9.9430  -17.7070 C.2   384  GLY384      0.2638
    106  O         56.5340   -9.9060  -17.4930 O.2   384  GLY384     -0.2714
    107  N         58.6040   -9.1350  -17.0760 N.am  385  ALA385     -0.1977
    108  CA        58.1510   -8.2600  -15.9970 C.3   385  ALA385      0.1597
    109  C         57.8240   -6.8450  -16.4630 C.2   385  ALA385      0.2287
    110  O         56.8750   -6.2350  -15.9580 O.2   385  ALA385     -0.2864
    111  CB        59.1830   -8.2130  -14.8650 C.3   385  ALA385      0.0319
    112  N         57.8240   -5.9470  -20.0520 N.3   387  ASP387     -0.1239
    113  CA        57.1000   -6.0120  -21.3190 C.3   387  ASP387      0.1674
    114  C         57.8480   -5.3450  -22.4700 C.2   387  ASP387      0.2266
    115  O         57.2390   -4.9210  -23.4560 O.2   387  ASP387     -0.2867
    116  CB        55.6680   -5.4780  -21.1780 C.3   387  ASP387      0.1410
    117  CG        54.9100   -6.1630  -20.0470 C.2   387  ASP387      0.3668
    118  OD1       54.6270   -7.3710  -20.1780 O.co2 387  ASP387     -0.2456
    119  OD2       54.6440   -5.5150  -19.0170 O.co2 387  ASP387     -0.2456
    120  N         59.7890  -12.4790  -29.0650 N.3   407  TRP407     -0.1241
    121  CA        58.4480  -12.1580  -29.5290 C.3   407  TRP407      0.1605
    122  C         57.6710  -13.4450  -29.7820 C.2   407  TRP407      0.2264
    123  O         58.1580  -14.3530  -30.4630 O.2   407  TRP407     -0.2867
    124  CB        58.5300  -11.3210  -30.8040 C.3   407  TRP407      0.0550
    125  CG        57.2180  -10.7520  -31.2380 C.ar  407  TRP407      0.0003
    126  CD1       56.3450  -11.2930  -32.1370 C.ar  407  TRP407      0.0946
    127  CD2       56.6310   -9.5230  -30.7950 C.ar  407  TRP407      0.0152
    128  NE1       55.2470  -10.4780  -32.2800 N.ar  407  TRP407     -0.2442
    129  CE2       55.3970   -9.3850  -31.4650 C.ar  407  TRP407      0.0810
    130  CE3       57.0260   -8.5280  -29.8950 C.ar  407  TRP407      0.0012
    131  CZ2       54.5560   -8.2910  -31.2620 C.ar  407  TRP407      0.0191
    132  CZ3       56.1920   -7.4430  -29.6950 C.ar  407  TRP407      0.0001
    133  CH2       54.9710   -7.3330  -30.3760 C.ar  407  TRP407      0.0015
@<TRIPOS>BOND
     1    33    32    1
     2    33    34    2
     3    32    35    1
     4    32    31    1
     5    35    36    1
     6   128   126   ar
     7   128   129   ar
     8   126   125   ar
     9   129   131   ar
    10   129   127   ar
    11   131   133   ar
    12   125   124    1
    13   125   127   ar
    14   124   121    1
    15   127   130   ar
    16   123   122    2
    17   133   132   ar
    18   130   132   ar
    19   122   121    1
    20   121   120    1
    21   102   100   ar
    22   102   101   ar
    23   100    98   ar
    24   101    99   ar
    25    98    96   ar
    26    98    97   ar
    27    99    96   ar
    28    96    94   ar
    29    97    95   ar
    30   115   114    2
    31    95    94   ar
    32    94    93    1
    33   114   113    1
    34    93    90    1
    35   113   116    1
    36   113   112    1
    37   116   117    1
    38    27    25   ar
    39    27    29   ar
    40    25    24   ar
    41    20    19    1
    42    20    21    1
    43    20    23    1
    44    90    91    1
    45    90    89    1
    46    21    22    2
    47    92    91    2
    48    91   103   am
    49   118   117   ar
    50    30    29    1
    51   117   119   ar
    52    29    28   ar
    53    23    24    1
    54    24    26   ar
    55   103   104    1
    56    28    26   ar
    57   104   105    1
    58   105   106    2
    59   105   107   am
    60   107   108    1
    61   109   108    1
    62   109   110    2
    63   108   111    1
    64     6     5    1
    65    80    78   ar
    66    43    41    1
    67     1     2    1
    68     5     2    1
    69     5     7    1
    70    41    42    1
    71    41    38    1
    72    52    51    1
    73     2     3    1
    74    78    79   ar
    75    78    77    1
    76    37    38    1
    77    51    50    1
    78    77    74    1
    79    38    39    1
    80    74    73    1
    81    74    75    1
    82    72    70   ar
    83    72    71   ar
    84     3     4    2
    85    44    39   am
    86    44    45    1
    87    70    68   ar
    88    48    45    1
    89    48    49    1
    90    50    49    1
    91    39    40    2
    92    61    60    1
    93    87    86    2
    94    71    69   ar
    95    75    81   am
    96    75    76    2
    97    60    59    1
    98    45    46    1
    99    81    82    1
   100    68    67   ar
   101    86    88   am
   102    86    85    1
   103    13    14    1
   104    13    12    1
   105    69    67   ar
   106    46    47    2
   107    85    82    1
   108    59    58    1
   109    67    66    1
   110    82    83    1
   111    14    15    1
   112    65    64    2
   113    15    16    2
   114    12     9    1
   115    64    63    1
   116    58    57    1
   117    11    10    2
   118    16    18    1
   119    16    17    1
   120    66    63    1
   121    53    54    1
   122    83    84    2
   123    63    62    1
   124     9    10    1
   125     9     8    1
   126    57    54    1
   127    54    55    1
   128    55    56    2
