@<TRIPOS>MOLECULE
tmp/5z8kA01.pdb
 111 104 0 0 0
SMALL
GASTEIGER

@<TRIPOS>ATOM
      1  N        -44.6810   13.4590  -14.7680 N.3     8  THR8       -0.1218
      2  CA       -45.9980   13.6790  -14.1810 C.3     8  THR8        0.1862
      3  C        -45.8420   13.9080  -12.6830 C.2     8  THR8        0.2287
      4  O        -45.2260   13.0910  -11.9930 O.2     8  THR8       -0.2866
      5  CB       -46.9040   12.4810  -14.4500 C.3     8  THR8        0.1770
      6  OG1      -46.9930   12.2670  -15.8600 O.3     8  THR8       -0.2211
      7  CG2      -48.2930   12.7270  -13.9070 C.3     8  THR8        0.0375
      8  N        -48.5860    8.2320   -7.9400 N.3    43  ARG43      -0.1245
      9  CA       -49.3990    7.6440   -9.0060 C.3    43  ARG43       0.1563
     10  C        -49.9030    6.2610   -8.6050 C.2    43  ARG43       0.2260
     11  O        -50.0510    5.3620   -9.4410 O.2    43  ARG43      -0.2867
     12  CB       -48.6250    7.6050  -10.3310 C.3    43  ARG43       0.0307
     13  CG       -48.8490    8.8200  -11.2510 C.3    43  ARG43       0.0489
     14  CD       -48.6000   10.1560  -10.5470 C.3    43  ARG43       0.2205
     15  NE       -47.1730   10.4430  -10.4280 N.pl3  43  ARG43      -0.0865
     16  CZ       -46.6400   11.1960   -9.4630 C.cat  43  ARG43       0.5346
     17  NH1      -45.3270   11.3890   -9.4150 N.pl3  43  ARG43       0.1354
     18  NH2      -47.4160   11.7480   -8.5400 N.pl3  43  ARG43       0.1354
     19  N        -53.0210    2.5460  -21.1250 N.3   124  TYR124     -0.1241
     20  CA       -51.6630    3.0810  -21.1430 C.3   124  TYR124      0.1605
     21  C        -50.6840    1.9910  -20.7260 C.2   124  TYR124      0.2264
     22  O        -50.9350    1.2570  -19.7680 O.2   124  TYR124     -0.2867
     23  CB       -51.5660    4.2770  -20.1990 C.3   124  TYR124      0.0534
     24  CG       -50.2280    4.9610  -20.1820 C.ar  124  TYR124     -0.0201
     25  CD1      -49.7780    5.6760  -21.2840 C.ar  124  TYR124     -0.0009
     26  CD2      -49.4080    4.8900  -19.0470 C.ar  124  TYR124     -0.0009
     27  CE1      -48.5620    6.3150  -21.2600 C.ar  124  TYR124      0.0417
     28  CE2      -48.1830    5.5230  -19.0170 C.ar  124  TYR124      0.0417
     29  CZ       -47.7680    6.2340  -20.1280 C.ar  124  TYR124      0.1957
     30  OH       -46.5380    6.8620  -20.1120 O.3   124  TYR124     -0.2866
     31  N        -44.1780    4.8730  -21.4140 N.3   127  TYR127     -0.1241
     32  CA       -43.7770    5.9970  -22.2430 C.3   127  TYR127      0.1605
     33  C        -43.0690    5.5850  -23.5300 C.2   127  TYR127      0.2264
     34  O        -42.8110    6.4460  -24.3710 O.2   127  TYR127     -0.2867
     35  CB       -42.8890    6.9520  -21.4220 C.3   127  TYR127      0.0534
     36  CG       -41.5270    6.4030  -21.0510 C.ar  127  TYR127     -0.0201
     37  CD1      -40.4750    6.4500  -21.9510 C.ar  127  TYR127     -0.0009
     38  CD2      -41.2900    5.8510  -19.7970 C.ar  127  TYR127     -0.0009
     39  CE1      -39.2280    5.9380  -21.6170 C.ar  127  TYR127      0.0417
     40  CE2      -40.0300    5.3400  -19.4530 C.ar  127  TYR127      0.0417
     41  CZ       -39.0230    5.3920  -20.3770 C.ar  127  TYR127      0.1957
     42  OH       -37.7820    4.8970  -20.0930 O.3   127  TYR127     -0.2866
     43  N        -50.2270   -3.2010  -14.0850 N.3   200  VAL200     -0.1231
     44  CA       -49.2980   -2.3110  -13.3920 C.3   200  VAL200      0.1692
     45  C        -50.0310   -1.4790  -12.3460 C.2   200  VAL200      0.2591
     46  O        -49.5200   -1.2480  -11.2480 O.2   200  VAL200     -0.2718
     47  CB       -48.5680   -1.4210  -14.4200 C.3   200  VAL200      0.0266
     48  CG1      -47.9810   -0.1930  -13.7460 C.3   200  VAL200      0.0020
     49  CG2      -47.4630   -2.2350  -15.1140 C.3   200  VAL200      0.0020
     50  N        -51.2450   -1.0330  -12.6640 N.am  201  LYS201     -0.1980
     51  CA       -52.0050   -0.1930  -11.7430 C.3   201  LYS201      0.1596
     52  C        -52.9680   -0.9900  -10.8720 C.2   201  LYS201      0.2287
     53  O        -53.0740   -0.7290   -9.6690 O.2   201  LYS201     -0.2864
     54  CB       -52.7800    0.8710  -12.5330 C.3   201  LYS201      0.0298
     55  CG       -53.5300    1.8730  -11.6330 C.3   201  LYS201      0.0038
     56  CD       -53.8680    3.1460  -12.4060 C.3   201  LYS201      0.0206
     57  CE       -54.9550    2.8680  -13.4250 C.3   201  LYS201      0.1093
     58  NZ       -55.2460    4.0370  -14.3390 N.3   201  LYS201     -0.1314
     59  N        -47.0890   -1.1490   -9.4150 N.3   224  LYS224     -0.1245
     60  CA       -47.4950   -0.1480   -8.4440 C.3   224  LYS224      0.1561
     61  C        -47.7580   -0.6600   -7.0300 C.2   224  LYS224      0.2260
     62  O        -47.3300   -0.0410   -6.0600 O.2   224  LYS224     -0.2867
     63  CB       -48.7040    0.6300   -8.9620 C.3   224  LYS224      0.0271
     64  CG       -48.3820    1.5810  -10.1010 C.3   224  LYS224      0.0035
     65  CD       -49.5450    2.5200  -10.3730 C.3   224  LYS224      0.0206
     66  CE       -49.4360    3.1660  -11.7400 C.3   224  LYS224      0.1093
     67  NZ       -48.1370    3.8550  -11.9220 N.3   224  LYS224     -0.1314
     68  N        -54.4870   13.6630   -7.8030 N.3   334  PHE334     -0.1241
     69  CA       -53.9210   13.4070   -9.1240 C.3   334  PHE334      0.1605
     70  C        -54.9040   14.0070  -10.1180 C.2   334  PHE334      0.2264
     71  O        -55.9220   13.3990  -10.4360 O.2   334  PHE334     -0.2867
     72  CB       -53.7220   11.9080   -9.3160 C.3   334  PHE334      0.0534
     73  CG       -53.0050   11.5270  -10.5960 C.ar  334  PHE334     -0.0203
     74  CD1      -52.5190   12.4930  -11.4760 C.ar  334  PHE334     -0.0042
     75  CD2      -52.8160   10.1840  -10.9070 C.ar  334  PHE334     -0.0042
     76  CE1      -51.8790   12.1280  -12.6630 C.ar  334  PHE334     -0.0003
     77  CE2      -52.1610    9.8060  -12.0970 C.ar  334  PHE334     -0.0003
     78  CZ       -51.6860   10.7680  -12.9640 C.ar  334  PHE334     -0.0000
     79  N        -57.1830   12.4530  -13.1210 N.3   337  ASP337     -0.1225
     80  CA       -56.8570   11.0360  -13.2160 C.3   337  ASP337      0.1805
     81  C        -57.4400   10.3600  -11.9790 C.2   337  ASP337      0.2597
     82  O        -58.3380   10.8910  -11.3100 O.2   337  ASP337     -0.2718
     83  CB       -55.3450   10.8750  -13.3630 C.3   337  ASP337      0.1424
     84  CG       -54.9540    9.6390  -14.1450 C.2   337  ASP337      0.3668
     85  OD1      -55.2720    8.5180  -13.6810 O.co2 337  ASP337     -0.2456
     86  OD2      -54.2960    9.7880  -15.1990 O.co2 337  ASP337     -0.2456
     87  N        -56.9250    9.1850  -11.6350 N.am  338  ASN338     -0.1974
     88  CA       -57.5250    8.4430  -10.5380 C.3   338  ASN338      0.1688
     89  C        -56.8470    8.7420   -9.2090 C.2   338  ASN338      0.2292
     90  O        -55.6430    9.0060   -9.1370 O.2   338  ASN338     -0.2864
     91  CB       -57.5220    6.9280  -10.7730 C.3   338  ASN338      0.1181
     92  CG       -56.2760    6.4160  -11.4570 C.2   338  ASN338      0.2629
     93  OD1      -56.3770    5.5860  -12.3640 O.2   338  ASN338     -0.2716
     94  ND2      -55.1010    6.8790  -11.0280 N.am  338  ASN338     -0.0877
     95  N        -59.5540   10.5680  -19.5290 N.3   384  GLY384     -0.1210
     96  CA       -58.3530   11.0120  -18.8500 C.3   384  GLY384      0.1956
     97  C        -57.7900    9.9910  -17.8860 C.2   384  GLY384      0.2611
     98  O        -56.5720    9.9010  -17.7160 O.2   384  GLY384     -0.2717
     99  N        -58.6530    9.2090  -17.2480 N.am  385  ALA385     -0.1979
    100  CA       -58.2180    8.3270  -16.1770 C.3   385  ALA385      0.1597
    101  C        -57.8980    6.9100  -16.6520 C.2   385  ALA385      0.2287
    102  O        -56.9450    6.3000  -16.1580 O.2   385  ALA385     -0.2864
    103  CB       -59.2820    8.2900  -15.0760 C.3   385  ALA385      0.0319
    104  N        -57.8500    6.0610  -20.1910 N.3   387  ASP387     -0.1239
    105  CA       -57.1560    6.1670  -21.4680 C.3   387  ASP387      0.1674
    106  C        -57.9100    5.4660  -22.5940 C.2   387  ASP387      0.2266
    107  O        -57.3130    5.0250  -23.5770 O.2   387  ASP387     -0.2867
    108  CB       -55.7180    5.6400  -21.3550 C.3   387  ASP387      0.1410
    109  CG       -54.9920    6.2150  -20.1360 C.2   387  ASP387      0.3668
    110  OD1      -54.7140    7.4220  -20.1680 O.co2 387  ASP387     -0.2456
    111  OD2      -54.7450    5.4790  -19.1480 O.co2 387  ASP387     -0.2456
@<TRIPOS>BOND
     1    34    33    2
     2   107   106    2
     3    33    32    1
     4   106   105    1
     5    32    35    1
     6    32    31    1
     7    37    39   ar
     8    37    36   ar
     9    39    41   ar
    10   105   108    1
    11   105   104    1
    12    35    36    1
    13   108   109    1
    14    25    27   ar
    15    25    24   ar
    16    27    29   ar
    17    20    19    1
    18    20    21    1
    19    20    23    1
    20    36    38   ar
    21    21    22    2
    22    41    42    1
    23    41    40   ar
    24    23    24    1
    25    24    26   ar
    26   110   109   ar
    27   109   111   ar
    28    29    30    1
    29    29    28   ar
    30    38    40   ar
    31    95    96    1
    32    26    28   ar
    33    96    97    1
    34    97    98    2
    35    97    99   am
    36    99   100    1
    37   101   100    1
    38   101   102    2
    39   100   103    1
    40     6     5    1
    41    86    84   ar
    42    49    47    1
    43     1     2    1
    44     5     2    1
    45     5     7    1
    46    47    48    1
    47    47    44    1
    48    58    57    1
    49     2     3    1
    50    84    85   ar
    51    84    83    1
    52    43    44    1
    53    57    56    1
    54    44    45    1
    55    83    80    1
    56    80    79    1
    57    80    81    1
    58    78    76   ar
    59    78    77   ar
    60     3     4    2
    61    50    45   am
    62    50    51    1
    63    76    74   ar
    64    54    51    1
    65    54    55    1
    66    56    55    1
    67    93    92    2
    68    45    46    2
    69    77    75   ar
    70    81    87   am
    71    81    82    2
    72    67    66    1
    73    51    52    1
    74    66    65    1
    75    87    88    1
    76    74    73   ar
    77    92    94   am
    78    92    91    1
    79    13    14    1
    80    13    12    1
    81    75    73   ar
    82    52    53    2
    83    91    88    1
    84    73    72    1
    85    14    15    1
    86    88    89    1
    87    71    70    2
    88    15    16    2
    89    65    64    1
    90    12     9    1
    91    70    69    1
    92    64    63    1
    93    16    17    1
    94    16    18    1
    95    11    10    2
    96    59    60    1
    97    72    69    1
    98    89    90    2
    99    69    68    1
   100     9    10    1
   101     9     8    1
   102    63    60    1
   103    60    61    1
   104    61    62    2
