@<TRIPOS>MOLECULE
tmp/5z8kA00.pdb
 108 104 0 0 0
SMALL
GASTEIGER

@<TRIPOS>ATOM
      1  N        -39.1990   -0.6640  -14.2160 N.3    98  THR98      -0.1203
      2  CA       -40.3680    0.1690  -14.4700 C.3    98  THR98       0.1994
      3  C        -41.4530   -0.6490  -15.1680 C.2    98  THR98       0.2618
      4  O        -41.1960   -1.6790  -15.8070 O.2    98  THR98      -0.2717
      5  CB       -40.0530    1.3830  -15.3590 C.3    98  THR98       0.1784
      6  OG1      -39.6000    0.9240  -16.6370 O.3    98  THR98      -0.2211
      7  CG2      -38.9630    2.2720  -14.7350 C.3    98  THR98       0.0376
      8  N        -42.6740   -0.1570  -15.0540 N.am   99  GLY99      -0.1942
      9  CA       -43.7530   -0.7260  -15.8420 C.3    99  GLY99       0.2014
     10  C        -43.5130   -0.5970  -17.3360 C.2    99  GLY99       0.2639
     11  O        -43.8470   -1.5070  -18.1050 O.2    99  GLY99      -0.2714
     12  N        -42.9340    0.5290  -17.7670 N.am  100  THR100     -0.1950
     13  CA       -42.6500    0.7380  -19.1950 C.3   100  THR100      0.1897
     14  C        -41.7020   -0.3300  -19.7320 C.2   100  THR100      0.2313
     15  O        -41.9330   -0.8890  -20.8060 O.2   100  THR100     -0.2863
     16  CB       -42.0380    2.1220  -19.4300 C.3   100  THR100      0.1794
     17  OG1      -43.0160    3.1180  -19.0900 O.3   100  THR100     -0.2208
     18  CG2      -41.6410    2.3130  -20.8910 C.3   100  THR100      0.0378
     19  N        -43.5150   -3.7920  -19.8710 N.3   103  LEU103     -0.1245
     20  CA       -44.4900   -3.9010  -20.9490 C.3   103  LEU103      0.1561
     21  C        -43.8180   -4.0410  -22.3030 C.2   103  LEU103      0.2260
     22  O        -44.2830   -4.8130  -23.1480 O.2   103  LEU103     -0.2867
     23  CB       -45.4280   -2.6900  -20.9430 C.3   103  LEU103      0.0270
     24  CG       -46.8070   -2.9000  -20.2950 C.3   103  LEU103      0.0019
     25  CD1      -47.6680   -3.8220  -21.1400 C.3   103  LEU103      0.0001
     26  CD2      -46.6860   -3.4060  -18.8260 C.3   103  LEU103      0.0001
     27  N        -53.0210    2.5460  -21.1250 N.3   124  TYR124     -0.1227
     28  CA       -51.6630    3.0810  -21.1430 C.3   124  TYR124      0.1736
     29  C        -50.6840    1.9910  -20.7260 C.2   124  TYR124      0.2595
     30  O        -50.9350    1.2570  -19.7680 O.2   124  TYR124     -0.2718
     31  CB       -51.5660    4.2770  -20.1990 C.3   124  TYR124      0.0548
     32  CG       -50.2280    4.9610  -20.1820 C.ar  124  TYR124     -0.0200
     33  CD1      -49.7780    5.6760  -21.2840 C.ar  124  TYR124     -0.0009
     34  CD2      -49.4080    4.8900  -19.0470 C.ar  124  TYR124     -0.0009
     35  CE1      -48.5620    6.3150  -21.2600 C.ar  124  TYR124      0.0417
     36  CE2      -48.1830    5.5230  -19.0170 C.ar  124  TYR124      0.0417
     37  CZ       -47.7680    6.2340  -20.1280 C.ar  124  TYR124      0.1957
     38  OH       -46.5380    6.8620  -20.1120 O.3   124  TYR124     -0.2866
     39  N        -49.5700    1.8900  -21.4530 N.am  125  HIS125     -0.1961
     40  CA       -48.5700    0.8530  -21.2020 C.3   125  HIS125      0.1787
     41  C        -47.1810    1.4210  -20.9420 C.2   125  HIS125      0.2621
     42  O        -46.2120    0.6560  -20.8620 O.2   125  HIS125     -0.2715
     43  CB       -48.5250   -0.1350  -22.3770 C.3   125  HIS125      0.0785
     44  CG       -49.8650   -0.7090  -22.7060 C.ar  125  HIS125      0.0821
     45  ND1      -50.7060   -1.2210  -21.7440 N.ar  125  HIS125     -0.2267
     46  CD2      -50.5330   -0.7970  -23.8790 C.ar  125  HIS125      0.1154
     47  CE1      -51.8320   -1.6180  -22.3150 C.ar  125  HIS125      0.1986
     48  NE2      -51.7500   -1.3700  -23.6090 N.ar  125  HIS125     -0.2212
     49  N        -47.0520    2.7250  -20.7710 N.am  126  GLY126     -0.1940
     50  CA       -45.7750    3.3350  -20.4920 C.3   126  GLY126      0.2014
     51  C        -45.3590    4.2850  -21.5980 C.2   126  GLY126      0.2638
     52  O        -46.0640    4.4860  -22.5820 O.2   126  GLY126     -0.2714
     53  N        -44.1780    4.8730  -21.4140 N.am  127  TYR127     -0.1973
     54  CA       -43.7770    5.9970  -22.2430 C.3   127  TYR127      0.1639
     55  C        -43.0690    5.5850  -23.5300 C.2   127  TYR127      0.2290
     56  O        -42.8110    6.4460  -24.3710 O.2   127  TYR127     -0.2864
     57  CB       -42.8890    6.9520  -21.4220 C.3   127  TYR127      0.0560
     58  CG       -41.5270    6.4030  -21.0510 C.ar  127  TYR127     -0.0198
     59  CD1      -40.4750    6.4500  -21.9510 C.ar  127  TYR127     -0.0009
     60  CD2      -41.2900    5.8510  -19.7970 C.ar  127  TYR127     -0.0009
     61  CE1      -39.2280    5.9380  -21.6170 C.ar  127  TYR127      0.0417
     62  CE2      -40.0300    5.3400  -19.4530 C.ar  127  TYR127      0.0417
     63  CZ       -39.0230    5.3920  -20.3770 C.ar  127  TYR127      0.1957
     64  OH       -37.7820    4.8970  -20.0930 O.3   127  TYR127     -0.2866
     65  N        -54.9210   -2.6760  -20.2350 N.3   170  SER170     -0.1217
     66  CA       -54.7890   -2.1870  -18.8740 C.3   170  SER170      0.1889
     67  C        -56.1900   -2.1660  -18.2770 C.2   170  SER170      0.2288
     68  O        -56.9560   -1.2350  -18.5610 O.2   170  SER170     -0.2866
     69  CB       -54.1750   -0.7860  -18.8800 C.3   170  SER170      0.2089
     70  OG       -52.9490   -0.7980  -19.6050 O.3   170  SER170     -0.2183
     71  N        -52.0360   -6.0380  -18.5360 N.3   198  ASP198     -0.1239
     72  CA       -51.1780   -4.9970  -17.9660 C.3   198  ASP198      0.1674
     73  C        -51.8430   -4.5170  -16.6810 C.2   198  ASP198      0.2266
     74  O        -52.6790   -3.6090  -16.6820 O.2   198  ASP198     -0.2867
     75  CB       -50.9620   -3.8620  -18.9600 C.3   198  ASP198      0.1410
     76  CG       -50.1120   -2.7180  -18.3810 C.2   198  ASP198      0.3668
     77  OD1      -49.7370   -2.7860  -17.2040 O.co2 198  ASP198     -0.2456
     78  OD2      -49.8210   -1.7520  -19.0980 O.co2 198  ASP198     -0.2456
     79  N        -50.2270   -3.2010  -14.0850 N.3   200  VAL200     -0.1231
     80  CA       -49.2980   -2.3110  -13.3920 C.3   200  VAL200      0.1692
     81  C        -50.0310   -1.4790  -12.3460 C.2   200  VAL200      0.2591
     82  O        -49.5200   -1.2480  -11.2480 O.2   200  VAL200     -0.2718
     83  CB       -48.5680   -1.4210  -14.4200 C.3   200  VAL200      0.0266
     84  CG1      -47.9810   -0.1930  -13.7460 C.3   200  VAL200      0.0020
     85  CG2      -47.4630   -2.2350  -15.1140 C.3   200  VAL200      0.0020
     86  N        -51.2450   -1.0330  -12.6640 N.am  201  LYS201     -0.1980
     87  CA       -52.0050   -0.1930  -11.7430 C.3   201  LYS201      0.1596
     88  C        -52.9680   -0.9900  -10.8720 C.2   201  LYS201      0.2287
     89  O        -53.0740   -0.7290   -9.6690 O.2   201  LYS201     -0.2864
     90  CB       -52.7800    0.8710  -12.5330 C.3   201  LYS201      0.0298
     91  CG       -53.5300    1.8730  -11.6330 C.3   201  LYS201      0.0038
     92  CD       -53.8680    3.1460  -12.4060 C.3   201  LYS201      0.0206
     93  CE       -54.9550    2.8680  -13.4250 C.3   201  LYS201      0.1093
     94  NZ       -55.2460    4.0370  -14.3390 N.3   201  LYS201     -0.1314
     95  N        -46.8800   -3.8600  -10.7280 N.3   223  ALA223     -0.1231
     96  CA       -45.7980   -2.9700  -10.3080 C.3   223  ALA223      0.1694
     97  C        -46.1460   -2.0410   -9.1570 C.2   223  ALA223      0.2591
     98  O        -45.5650   -2.1130   -8.0870 O.2   223  ALA223     -0.2718
     99  CB       -45.3100   -2.1340  -11.4830 C.3   223  ALA223      0.0304
    100  N        -47.0890   -1.1490   -9.4150 N.am  224  LYS224     -0.1980
    101  CA       -47.4950   -0.1480   -8.4440 C.3   224  LYS224      0.1596
    102  C        -47.7580   -0.6600   -7.0300 C.2   224  LYS224      0.2287
    103  O        -47.3300   -0.0410   -6.0600 O.2   224  LYS224     -0.2864
    104  CB       -48.7040    0.6300   -8.9620 C.3   224  LYS224      0.0298
    105  CG       -48.3820    1.5810  -10.1010 C.3   224  LYS224      0.0038
    106  CD       -49.5450    2.5200  -10.3730 C.3   224  LYS224      0.0206
    107  CE       -49.4360    3.1660  -11.7400 C.3   224  LYS224      0.1093
    108  NZ       -48.1370    3.8550  -11.9220 N.3   224  LYS224     -0.1314
@<TRIPOS>BOND
     1    56    55    2
     2    46    48   ar
     3    46    44   ar
     4    48    47   ar
     5    55    54    1
     6    22    21    2
     7    44    43    1
     8    44    45   ar
     9    52    51    2
    10    43    40    1
    11    47    45   ar
    12    21    20    1
    13    54    57    1
    14    54    53    1
    15    59    61   ar
    16    59    58   ar
    17    61    63   ar
    18    51    53   am
    19    51    50    1
    20    39    40    1
    21    39    29   am
    22    57    58    1
    23    33    35   ar
    24    33    32   ar
    25    35    37   ar
    26    40    41    1
    27    28    27    1
    28    28    29    1
    29    28    31    1
    30    25    24    1
    31    58    60   ar
    32    20    23    1
    33    20    19    1
    34    23    24    1
    35    41    42    2
    36    41    49   am
    37    18    16    1
    38    15    14    2
    39    49    50    1
    40    29    30    2
    41    63    64    1
    42    63    62   ar
    43    24    26    1
    44    65    66    1
    45    31    32    1
    46    32    34   ar
    47    37    38    1
    48    37    36   ar
    49    60    62   ar
    50    14    13    1
    51    70    69    1
    52    16    13    1
    53    16    17    1
    54    13    12    1
    55    78    76   ar
    56    34    36   ar
    57    75    76    1
    58    75    72    1
    59    69    66    1
    60    66    67    1
    61    68    67    2
    62    71    72    1
    63    76    77   ar
    64    11    10    2
    65    72    73    1
    66    12    10   am
    67    10     9    1
    68    74    73    2
    69     6     5    1
    70     9     8    1
    71     4     3    2
    72     5     7    1
    73     5     2    1
    74     3     8   am
    75     3     2    1
    76    85    83    1
    77     2     1    1
    78    83    84    1
    79    83    80    1
    80    94    93    1
    81    79    80    1
    82    93    92    1
    83    80    81    1
    84    86    81   am
    85    86    87    1
    86    90    87    1
    87    90    91    1
    88    92    91    1
    89    81    82    2
    90   108   107    1
    91    87    88    1
    92   107   106    1
    93    99    96    1
    94    88    89    2
    95    95    96    1
    96   106   105    1
    97    96    97    1
    98   105   104    1
    99   100    97   am
   100   100   101    1
   101    97    98    2
   102   104   101    1
   103   101   102    1
   104   102   103    2
