@<TRIPOS>MOLECULE
tmp/5z8zA00.pdb
 134 130 0 0 0
SMALL
GASTEIGER

@<TRIPOS>ATOM
      1  N        -29.8650   -0.3470   79.1060 N.3    40  TRP40      -0.1228
      2  CA       -30.1840   -1.6320   79.7270 C.3    40  TRP40       0.1722
      3  C        -28.9750   -2.5040   80.0560 C.2    40  TRP40       0.2437
      4  O        -29.0170   -3.1880   81.0940 O.2    40  TRP40      -0.2733
      5  CB       -31.1840   -2.4000   78.8530 C.3    40  TRP40       0.0563
      6  CG       -30.7220   -2.7570   77.4880 C.ar   40  TRP40       0.0003
      7  CD1      -30.8760   -2.0160   76.3460 C.ar   40  TRP40       0.0946
      8  CD2      -30.0800   -3.9780   77.0880 C.ar   40  TRP40       0.0152
      9  NE1      -30.3550   -2.6920   75.2710 N.ar   40  TRP40      -0.2442
     10  CE2      -29.8610   -3.8970   75.6950 C.ar   40  TRP40       0.0810
     11  CE3      -29.6600   -5.1220   77.7730 C.ar   40  TRP40       0.0012
     12  CZ2      -29.2380   -4.9180   74.9760 C.ar   40  TRP40       0.0191
     13  CZ3      -29.0480   -6.1400   77.0550 C.ar   40  TRP40       0.0001
     14  CH2      -28.8440   -6.0300   75.6760 C.ar   40  TRP40       0.0015
     15  N        -27.9000   -2.5520   79.2590 N.am   41  PRO41      -0.2718
     16  CA       -26.7590   -3.4050   79.6430 C.3    41  PRO41       0.1535
     17  C        -26.0940   -2.9590   80.9270 C.2    41  PRO41       0.2598
     18  O        -25.3620   -3.7460   81.5390 O.2    41  PRO41      -0.2715
     19  CB       -25.7980   -3.2760   78.4550 C.3    41  PRO41       0.0310
     20  CG       -26.6610   -2.7910   77.3110 C.3    41  PRO41       0.0237
     21  CD       -27.6700   -1.8910   77.9590 C.3    41  PRO41       0.0939
     22  N        -26.3240   -1.7160   81.3430 N.am   42  PHE42      -0.1974
     23  CA       -25.6480   -1.1030   82.4740 C.3    42  PHE42       0.1639
     24  C        -26.5150   -1.0440   83.7230 C.2    42  PHE42       0.2290
     25  O        -26.0800   -0.4800   84.7340 O.2    42  PHE42      -0.2864
     26  CB       -25.1850    0.3210   82.0780 C.3    42  PHE42       0.0560
     27  CG       -24.3230    0.3440   80.8400 C.ar   42  PHE42      -0.0200
     28  CD1      -22.9550    0.1580   80.9290 C.ar   42  PHE42      -0.0042
     29  CD2      -24.8880    0.5010   79.5800 C.ar   42  PHE42      -0.0042
     30  CE1      -22.1650    0.1550   79.7930 C.ar   42  PHE42      -0.0003
     31  CE2      -24.1050    0.4820   78.4480 C.ar   42  PHE42      -0.0003
     32  CZ       -22.7460    0.3120   78.5480 C.ar   42  PHE42      -0.0000
     33  N        -22.6780   -7.0240   85.9310 N.3    46  VAL46      -0.1245
     34  CA       -22.4750   -7.9920   84.8540 C.3    46  VAL46       0.1561
     35  C        -22.6550   -9.3930   85.4020 C.2    46  VAL46       0.2260
     36  O        -22.0080   -9.7800   86.3830 O.2    46  VAL46      -0.2867
     37  CB       -21.0860   -7.8320   84.2210 C.3    46  VAL46       0.0252
     38  CG1      -20.7900   -8.9930   83.2800 C.3    46  VAL46       0.0019
     39  CG2      -21.0090   -6.5240   83.4690 C.3    46  VAL46       0.0019
     40  N        -24.3460  -15.8010   82.9870 N.3    50  LYS50      -0.1231
     41  CA       -25.4250  -15.6950   82.0020 C.3    50  LYS50       0.1693
     42  C        -24.8920  -15.2700   80.6390 C.2    50  LYS50       0.2591
     43  O        -25.2040  -15.8840   79.6060 O.2    50  LYS50      -0.2718
     44  CB       -26.4830  -14.7010   82.4960 C.3    50  LYS50       0.0285
     45  CG       -27.5660  -14.3670   81.4900 C.3    50  LYS50       0.0035
     46  CD       -28.5730  -13.3950   82.0940 C.3    50  LYS50       0.0206
     47  CE       -28.2510  -11.9630   81.7390 C.3    50  LYS50       0.1093
     48  NZ       -28.0490  -11.7340   80.2870 N.3    50  LYS50      -0.1314
     49  N        -24.0930  -14.2120   80.6150 N.am   51  LEU51      -0.1980
     50  CA       -23.5870  -13.6580   79.3640 C.3    51  LEU51       0.1596
     51  C        -22.4730  -14.4910   78.7490 C.2    51  LEU51       0.2287
     52  O        -21.9610  -14.1210   77.6850 O.2    51  LEU51      -0.2864
     53  CB       -23.0880  -12.2310   79.6040 C.3    51  LEU51       0.0297
     54  CG       -24.1770  -11.2500   80.0300 C.3    51  LEU51       0.0022
     55  CD1      -23.5570   -9.9440   80.4920 C.3    51  LEU51       0.0001
     56  CD2      -25.1600  -11.0140   78.8800 C.3    51  LEU51       0.0001
     57  N        -19.3790  -14.7240   79.6270 N.3    53  LEU53      -0.1245
     58  CA       -18.1260  -13.9730   79.6190 C.3    53  LEU53       0.1561
     59  C        -17.2470  -14.4540   80.7680 C.2    53  LEU53       0.2260
     60  O        -16.9490  -13.6890   81.6930 O.2    53  LEU53      -0.2867
     61  CB       -18.3880  -12.4720   79.7400 C.3    53  LEU53       0.0270
     62  CG       -19.4420  -11.8750   78.8050 C.3    53  LEU53       0.0019
     63  CD1      -19.7050  -10.4220   79.1760 C.3    53  LEU53       0.0001
     64  CD2      -19.0040  -11.9790   77.3540 C.3    53  LEU53       0.0001
     65  N        -14.6640  -12.1700   82.3510 N.3    56  TYR56      -0.1241
     66  CA       -14.9800  -10.7840   82.7000 C.3    56  TYR56       0.1605
     67  C        -14.3500  -10.3800   84.0250 C.2    56  TYR56       0.2264
     68  O        -13.6520   -9.3630   84.1120 O.2    56  TYR56      -0.2867
     69  CB       -16.4910  -10.5520   82.7630 C.3    56  TYR56       0.0534
     70  CG       -16.8060   -9.0810   82.9910 C.ar   56  TYR56      -0.0201
     71  CD1      -16.8880   -8.1970   81.9230 C.ar   56  TYR56      -0.0009
     72  CD2      -16.9730   -8.5700   84.2700 C.ar   56  TYR56      -0.0009
     73  CE1      -17.1460   -6.8530   82.1220 C.ar   56  TYR56       0.0417
     74  CE2      -17.2270   -7.2180   84.4750 C.ar   56  TYR56       0.0417
     75  CZ       -17.3200   -6.3690   83.3980 C.ar   56  TYR56       0.1957
     76  OH       -17.5730   -5.0180   83.5830 O.3    56  TYR56      -0.2866
     77  N        -17.6360    2.5920   85.9970 N.3    91  MET91      -0.1245
     78  CA       -18.5040    1.8120   85.1220 C.3    91  MET91       0.1570
     79  C        -18.1080    1.9600   83.6530 C.2    91  MET91       0.2261
     80  O        -17.9810    0.9670   82.9230 O.2    91  MET91      -0.2867
     81  CB       -19.9520    2.2460   85.3260 C.3    91  MET91       0.0387
     82  CG       -20.9590    1.4780   84.4770 C.3    91  MET91       0.0595
     83  SD       -22.6230    2.1380   84.6160 S.3    91  MET91      -0.1393
     84  CE       -22.4900    3.6710   83.6750 C.3    91  MET91       0.0692
     85  N        -15.9920   -0.8790   80.9740 N.3    95  CYS95      -0.1235
     86  CA       -16.4900   -1.2820   79.6650 C.3    95  CYS95       0.1677
     87  C        -15.4430   -1.0520   78.5880 C.2    95  CYS95       0.2270
     88  O        -15.2730   -1.8830   77.6850 O.2    95  CYS95      -0.2867
     89  CB       -17.7690   -0.5080   79.3530 C.3    95  CYS95       0.0956
     90  SG       -18.5340   -0.9650   77.8040 S.3    95  CYS95      -0.0801
     91  N        -12.5760   -3.8730   79.1550 N.3    98  TYR98      -0.1227
     92  CA       -12.9000   -5.2370   78.7500 C.3    98  TYR98       0.1736
     93  C        -13.1390   -5.3450   77.2460 C.2    98  TYR98       0.2595
     94  O        -12.8300   -6.3830   76.6480 O.2    98  TYR98      -0.2718
     95  CB       -14.1220   -5.7240   79.5160 C.3    98  TYR98       0.0548
     96  CG       -14.4750   -7.1590   79.1890 C.ar   98  TYR98      -0.0200
     97  CD1      -13.7130   -8.2110   79.6820 C.ar   98  TYR98      -0.0009
     98  CD2      -15.5550   -7.4540   78.3770 C.ar   98  TYR98      -0.0009
     99  CE1      -14.0250   -9.5360   79.3660 C.ar   98  TYR98       0.0417
    100  CE2      -15.8760   -8.7700   78.0590 C.ar   98  TYR98       0.0417
    101  CZ       -15.1120   -9.8030   78.5630 C.ar   98  TYR98       0.1957
    102  OH       -15.4330  -11.1080   78.2290 O.3    98  TYR98      -0.2866
    103  N        -13.6810   -4.3040   76.6150 N.am   99  ASN99      -0.1974
    104  CA       -14.0970   -4.3750   75.2180 C.3    99  ASN99       0.1688
    105  C        -13.1960   -3.5010   74.3480 C.2    99  ASN99       0.2292
    106  O        -12.2280   -2.9030   74.8270 O.2    99  ASN99      -0.2864
    107  CB       -15.5700   -3.9840   75.0950 C.3    99  ASN99       0.1181
    108  CG       -16.4630   -4.8040   76.0290 C.2    99  ASN99       0.2629
    109  OD1      -16.7150   -5.9790   75.7800 O.2    99  ASN99      -0.2716
    110  ND2      -16.9380   -4.1820   77.1050 N.am   99  ASN99      -0.0877
    111  N        -20.4590   -3.2090   69.7640 N.3   104  ASP104     -0.1225
    112  CA       -21.7640   -2.6290   70.0580 C.3   104  ASP104      0.1805
    113  C        -21.8370   -2.1230   71.4970 C.2   104  ASP104      0.2597
    114  O        -22.4000   -1.0540   71.7570 O.2   104  ASP104     -0.2718
    115  CB       -22.8750   -3.6450   69.8060 C.3   104  ASP104      0.1424
    116  CG       -23.1450   -3.8730   68.3270 C.2   104  ASP104      0.3668
    117  OD1      -22.7280   -3.0490   67.4830 O.co2 104  ASP104     -0.2456
    118  OD2      -23.8030   -4.8800   68.0120 O.co2 104  ASP104     -0.2456
    119  N        -21.2730   -2.8750   72.4490 N.am  105  ILE105     -0.1980
    120  CA       -21.3560   -2.4380   73.8520 C.3   105  ILE105      0.1595
    121  C        -20.5760   -1.1390   74.0740 C.2   105  ILE105      0.2287
    122  O        -20.9720   -0.2980   74.9000 O.2   105  ILE105     -0.2864
    123  CB       -20.8970   -3.5650   74.8060 C.3   105  ILE105      0.0276
    124  CG1      -21.1790   -3.1720   76.2570 C.3   105  ILE105      0.0022
    125  CG2      -19.4130   -3.8610   74.6590 C.3   105  ILE105      0.0022
    126  CD1      -22.6410   -3.0360   76.5770 C.3   105  ILE105      0.0001
    127  N        -22.6180    1.8440   72.8610 N.3   108  MET108     -0.1245
    128  CA       -23.6270    2.1790   73.8560 C.3   108  MET108      0.1570
    129  C        -23.0140    2.9820   74.9990 C.2   108  MET108      0.2261
    130  O        -23.5540    4.0180   75.4000 O.2   108  MET108     -0.2867
    131  CB       -24.2890    0.8920   74.3650 C.3   108  MET108      0.0387
    132  CG       -24.9710    0.1290   73.2310 C.3   108  MET108      0.0595
    133  SD       -25.4600   -1.5650   73.6130 S.3   108  MET108     -0.1393
    134  CE       -27.1240   -1.3130   74.2210 C.3   108  MET108      0.0692
@<TRIPOS>BOND
     1   117   116   ar
     2   118   116   ar
     3   116   115    1
     4   111   112    1
     5   115   112    1
     6   112   113    1
     7   113   114    2
     8   113   119   am
     9   119   120    1
    10   127   128    1
    11   132   133    1
    12   132   131    1
    13   133   134    1
    14   120   121    1
    15   120   123    1
    16   128   131    1
    17   128   129    1
    18   121   122    2
    19   105   106    2
    20   105   104    1
    21   125   123    1
    22   123   124    1
    23    12    14   ar
    24    12    10   ar
    25   129   130    2
    26   107   104    1
    27   107   108    1
    28   104   103    1
    29     9    10   ar
    30     9     7   ar
    31    14    13   ar
    32    10     8   ar
    33   109   108    2
    34   108   110   am
    35   124   126    1
    36     7     6   ar
    37   103    93   am
    38    94    93    2
    39    13    11   ar
    40     8     6   ar
    41     8    11   ar
    42    93    92    1
    43    20    21    1
    44    20    19    1
    45    64    62    1
    46     6     5    1
    47    88    87    2
    48    52    51    2
    49    90    89    1
    50    21    15    1
    51   100    98   ar
    52   100   101   ar
    53   102   101    1
    54    98    96   ar
    55    31    32   ar
    56    31    29   ar
    57    19    16    1
    58    32    30   ar
    59   101    99   ar
    60    87    86    1
    61    51    50    1
    62    92    91    1
    63    92    95    1
    64    62    63    1
    65    62    61    1
    66     5     2    1
    67    56    54    1
    68     1     2    1
    69    96    95    1
    70    96    97   ar
    71    15    16    1
    72    15     3   am
    73    89    86    1
    74    50    53    1
    75    50    49    1
    76    99    97   ar
    77    29    27   ar
    78    53    54    1
    79    43    42    2
    80    58    57    1
    81    58    61    1
    82    58    59    1
    83    16    17    1
    84    86    85    1
    85     2     3    1
    86    30    28   ar
    87    54    55    1
    88     3     4    2
    89    48    47    1
    90    49    42   am
    91    42    41    1
    92    59    60    2
    93    27    28   ar
    94    27    26    1
    95    17    22   am
    96    17    18    2
    97    22    23    1
    98    45    46    1
    99    45    44    1
   100    47    46    1
   101    71    73   ar
   102    71    70   ar
   103    41    44    1
   104    41    40    1
   105    26    23    1
   106    73    75   ar
   107    65    66    1
   108    23    24    1
   109    66    69    1
   110    66    67    1
   111    69    70    1
   112    80    79    2
   113    70    72   ar
   114    38    37    1
   115    75    76    1
   116    75    74   ar
   117    39    37    1
   118    79    78    1
   119    84    83    1
   120    24    25    2
   121    67    68    2
   122    37    34    1
   123    72    74   ar
   124    82    83    1
   125    82    81    1
   126    34    35    1
   127    34    33    1
   128    78    81    1
   129    78    77    1
   130    35    36    2
