@<TRIPOS>MOLECULE
tmp/5z90A00.pdb
 125 121 0 0 0
SMALL
GASTEIGER

@<TRIPOS>ATOM
      1  N         -3.0440   -0.3550   -0.3390 N.3    40  TRP40      -0.1228
      2  CA        -2.7440   -1.6350   -0.9830 C.3    40  TRP40       0.1722
      3  C         -3.9650   -2.4840   -1.3150 C.2    40  TRP40       0.2437
      4  O         -3.9370   -3.1550   -2.3630 O.2    40  TRP40      -0.2733
      5  CB        -1.7480   -2.4370   -0.1360 C.3    40  TRP40       0.0563
      6  CG        -2.1720   -2.7540    1.2420 C.ar   40  TRP40       0.0003
      7  CD1       -1.9310   -2.0150    2.3620 C.ar   40  TRP40       0.0946
      8  CD2       -2.8560   -3.9370    1.6790 C.ar   40  TRP40       0.0152
      9  NE1       -2.4410   -2.6520    3.4680 N.ar   40  TRP40      -0.2442
     10  CE2       -3.0160   -3.8310    3.0790 C.ar   40  TRP40       0.0810
     11  CE3       -3.3700   -5.0600    1.0210 C.ar   40  TRP40       0.0012
     12  CZ2       -3.6630   -4.8090    3.8340 C.ar   40  TRP40       0.0191
     13  CZ3       -4.0070   -6.0370    1.7760 C.ar   40  TRP40       0.0001
     14  CH2       -4.1500   -5.9000    3.1640 C.ar   40  TRP40       0.0015
     15  N         -5.0340   -2.5350   -0.5140 N.am   41  PRO41      -0.2718
     16  CA        -6.1670   -3.4110   -0.8770 C.3    41  PRO41       0.1535
     17  C         -6.8600   -2.9670   -2.1520 C.2    41  PRO41       0.2598
     18  O         -7.6220   -3.7450   -2.7420 O.2    41  PRO41      -0.2715
     19  CB        -7.1100   -3.2990    0.3340 C.3    41  PRO41       0.0310
     20  CG        -6.2650   -2.7720    1.4320 C.3    41  PRO41       0.0237
     21  CD        -5.2630   -1.8600    0.7800 C.3    41  PRO41       0.0939
     22  N         -6.6030   -1.7390   -2.5970 N.am   42  PHE42      -0.1974
     23  CA        -7.3110   -1.1340   -3.7090 C.3    42  PHE42       0.1639
     24  C         -6.4660   -1.0600   -4.9680 C.2    42  PHE42       0.2290
     25  O         -6.9270   -0.5130   -5.9760 O.2    42  PHE42      -0.2864
     26  CB        -7.7800    0.2790   -3.2960 C.3    42  PHE42       0.0560
     27  CG        -8.6370    0.2830   -2.0530 C.ar   42  PHE42      -0.0200
     28  CD1      -10.0080    0.1190   -2.1390 C.ar   42  PHE42      -0.0042
     29  CD2       -8.0640    0.4200   -0.7940 C.ar   42  PHE42      -0.0042
     30  CE1      -10.7940    0.1060   -1.0000 C.ar   42  PHE42      -0.0003
     31  CE2       -8.8450    0.3950    0.3510 C.ar   42  PHE42      -0.0003
     32  CZ       -10.2070    0.2400    0.2510 C.ar   42  PHE42      -0.0000
     33  N        -10.2450   -6.9900   -7.1990 N.3    46  VAL46      -0.1245
     34  CA       -10.4670   -7.9860   -6.1490 C.3    46  VAL46       0.1561
     35  C        -10.3000   -9.3790   -6.7350 C.2    46  VAL46       0.2260
     36  O        -10.9900   -9.7550   -7.6920 O.2    46  VAL46      -0.2867
     37  CB       -11.8530   -7.8150   -5.5130 C.3    46  VAL46       0.0252
     38  CG1      -12.2130   -9.0370   -4.6570 C.3    46  VAL46       0.0019
     39  CG2      -11.8890   -6.5660   -4.6600 C.3    46  VAL46       0.0019
     40  N         -8.5480  -14.1500   -1.9180 N.3    51  LEU51      -0.1245
     41  CA        -9.0600  -13.6140   -0.6590 C.3    51  LEU51       0.1561
     42  C        -10.1420  -14.4820   -0.0530 C.2    51  LEU51       0.2260
     43  O        -10.6110  -14.1880    1.0500 O.2    51  LEU51      -0.2867
     44  CB        -9.6030  -12.2030   -0.8880 C.3    51  LEU51       0.0270
     45  CG        -8.5590  -11.1910   -1.3540 C.3    51  LEU51       0.0019
     46  CD1       -9.2200   -9.8650   -1.7070 C.3    51  LEU51       0.0001
     47  CD2       -7.4960  -11.0010   -0.2850 C.3    51  LEU51       0.0001
     48  N        -13.3130  -14.7600   -0.8670 N.3    53  LEU53      -0.1245
     49  CA       -14.5740  -14.0300   -0.7820 C.3    53  LEU53       0.1561
     50  C        -15.4730  -14.5180   -1.9130 C.2    53  LEU53       0.2260
     51  O        -15.7640  -13.7650   -2.8560 O.2    53  LEU53      -0.2867
     52  CB       -14.3510  -12.5200   -0.8940 C.3    53  LEU53       0.0270
     53  CG       -13.1950  -11.9520   -0.0640 C.3    53  LEU53       0.0019
     54  CD1      -12.9970  -10.4700   -0.3460 C.3    53  LEU53       0.0001
     55  CD2      -13.4480  -12.1870    1.4130 C.3    53  LEU53       0.0001
     56  N        -18.1780  -12.2660   -3.4120 N.3    56  TYR56      -0.1241
     57  CA       -17.8970  -10.8860   -3.7970 C.3    56  TYR56       0.1605
     58  C        -18.5600  -10.5320   -5.1190 C.2    56  TYR56       0.2264
     59  O        -19.3670   -9.5990   -5.1950 O.2    56  TYR56      -0.2867
     60  CB       -16.3950  -10.6300   -3.8890 C.3    56  TYR56       0.0534
     61  CG       -16.1150   -9.1580   -4.1070 C.ar   56  TYR56      -0.0201
     62  CD1      -16.0600   -8.2720   -3.0310 C.ar   56  TYR56      -0.0009
     63  CD2      -15.9430   -8.6510   -5.3870 C.ar   56  TYR56      -0.0009
     64  CE1      -15.8240   -6.9040   -3.2380 C.ar   56  TYR56       0.0417
     65  CE2      -15.7090   -7.3050   -5.5980 C.ar   56  TYR56       0.0417
     66  CZ       -15.6480   -6.4390   -4.5280 C.ar   56  TYR56       0.1957
     67  OH       -15.4110   -5.1000   -4.7570 O.3    56  TYR56      -0.2866
     68  N        -15.3380    2.5430   -7.1060 N.3    91  MET91      -0.1245
     69  CA       -14.4560    1.7740   -6.2370 C.3    91  MET91       0.1570
     70  C        -14.8580    1.8980   -4.7690 C.2    91  MET91       0.2261
     71  O        -14.9980    0.8890   -4.0630 O.2    91  MET91      -0.2867
     72  CB       -13.0150    2.2360   -6.4290 C.3    91  MET91       0.0387
     73  CG       -12.0080    1.4800   -5.5780 C.3    91  MET91       0.0595
     74  SD       -10.3590    2.1560   -5.7490 S.3    91  MET91      -0.1393
     75  CE       -10.4790    3.6770   -4.7860 C.3    91  MET91       0.0692
     76  N        -16.8870   -1.0210   -2.0950 N.3    95  CYS95      -0.1235
     77  CA       -16.3740   -1.3990   -0.7880 C.3    95  CYS95       0.1677
     78  C        -17.4110   -1.1630    0.3050 C.2    95  CYS95       0.2270
     79  O        -17.6010   -2.0140    1.1800 O.2    95  CYS95      -0.2867
     80  CB       -15.0820   -0.6310   -0.5140 C.3    95  CYS95       0.0956
     81  SG       -14.2710   -1.0050    1.0430 S.3    95  CYS95      -0.0801
     82  N        -20.2340   -3.9700   -0.1410 N.3    98  TYR98      -0.1227
     83  CA       -19.8880   -5.3350    0.2520 C.3    98  TYR98       0.1736
     84  C        -19.6060   -5.4520    1.7480 C.2    98  TYR98       0.2595
     85  O        -19.8480   -6.5130    2.3430 O.2    98  TYR98      -0.2718
     86  CB       -18.6870   -5.8160   -0.5660 C.3    98  TYR98       0.0548
     87  CG       -18.3060   -7.2490   -0.2640 C.ar   98  TYR98      -0.0200
     88  CD1      -19.0200   -8.3110   -0.8090 C.ar   98  TYR98      -0.0009
     89  CD2      -17.2490   -7.5380    0.5850 C.ar   98  TYR98      -0.0009
     90  CE1      -18.6780   -9.6270   -0.5160 C.ar   98  TYR98       0.0417
     91  CE2      -16.9020   -8.8430    0.8820 C.ar   98  TYR98       0.0417
     92  CZ       -17.6180   -9.8830    0.3340 C.ar   98  TYR98       0.1957
     93  OH       -17.2570  -11.1720    0.6640 O.3    98  TYR98      -0.2866
     94  N        -19.1080   -4.3950    2.3790 N.am   99  ASN99      -0.1974
     95  CA       -18.6630   -4.4540    3.7670 C.3    99  ASN99       0.1688
     96  C        -19.5700   -3.5940    4.6490 C.2    99  ASN99       0.2292
     97  O        -20.5350   -2.9810    4.1780 O.2    99  ASN99      -0.2864
     98  CB       -17.1910   -4.0380    3.8520 C.3    99  ASN99       0.1181
     99  CG       -16.2880   -4.8800    2.9370 C.2    99  ASN99       0.2629
    100  OD1      -15.9550   -6.0140    3.2610 O.2    99  ASN99      -0.2716
    101  ND2      -15.8920   -4.3170    1.7940 N.am   99  ASN99      -0.0877
    102  N        -12.2060   -3.2330    9.0190 N.3   104  ASP104     -0.1225
    103  CA       -10.9040   -2.6520    8.7010 C.3   104  ASP104      0.1805
    104  C        -10.8700   -2.1140    7.2740 C.2   104  ASP104      0.2597
    105  O        -10.3360   -1.0270    7.0220 O.2   104  ASP104     -0.2718
    106  CB        -9.7920   -3.6820    8.8910 C.3   104  ASP104      0.1424
    107  CG        -9.4020   -3.8690   10.3430 C.2   104  ASP104      0.3668
    108  OD1       -9.7470   -3.0080   11.1800 O.co2 104  ASP104     -0.2456
    109  OD2       -8.7300   -4.8890   10.6310 O.co2 104  ASP104     -0.2456
    110  N        -11.4380   -2.8610    6.3260 N.am  105  ILE105     -0.1980
    111  CA       -11.3870   -2.4300    4.9260 C.3   105  ILE105      0.1595
    112  C        -12.1900   -1.1480    4.7210 C.2   105  ILE105      0.2287
    113  O        -11.8150   -0.2900    3.9050 O.2   105  ILE105     -0.2864
    114  CB       -11.8780   -3.5730    4.0130 C.3   105  ILE105      0.0276
    115  CG1      -11.5630   -3.2890    2.5390 C.3   105  ILE105      0.0022
    116  CG2      -13.3690   -3.8070    4.1890 C.3   105  ILE105      0.0022
    117  CD1      -10.0870   -3.3680    2.1940 C.3   105  ILE105      0.0001
    118  N        -10.2100    1.8130    5.9540 N.3   108  MET108     -0.1245
    119  CA        -9.2190    2.1310    4.9340 C.3   108  MET108      0.1570
    120  C         -9.8450    2.9380    3.8020 C.2   108  MET108      0.2261
    121  O         -9.3190    3.9870    3.4080 O.2   108  MET108     -0.2867
    122  CB        -8.5930    0.8290    4.4130 C.3   108  MET108      0.0387
    123  CG        -7.7890    0.1240    5.4860 C.3   108  MET108      0.0595
    124  SD        -7.4010   -1.5760    5.0700 S.3   108  MET108     -0.1393
    125  CE        -5.6990   -1.4320    4.5430 C.3   108  MET108      0.0692
@<TRIPOS>BOND
     1    36    35    2
     2    33    34    1
     3    68    69    1
     4    35    34    1
     5    72    69    1
     6    72    73    1
     7    69    70    1
     8    34    37    1
     9    25    24    2
    10    74    73    1
    11    74    75    1
    12    65    63   ar
    13    65    66   ar
    14    37    39    1
    15    37    38    1
    16    63    61   ar
    17    59    58    2
    18    58    57    1
    19    24    23    1
    20    70    71    2
    21    67    66    1
    22    66    64   ar
    23    61    60    1
    24    61    62   ar
    25    60    57    1
    26    57    56    1
    27    23    26    1
    28    23    22    1
    29    26    27    1
    30    64    62   ar
    31    51    50    2
    32    18    17    2
    33    22    17   am
    34     4     3    2
    35    17    16    1
    36    28    27   ar
    37    28    30   ar
    38    76    77    1
    39    27    29   ar
    40    40    41    1
    41    50    49    1
    42    46    45    1
    43    45    44    1
    44    45    47    1
    45     3     2    1
    46     3    15   am
    47    30    32   ar
    48     2     1    1
    49     2     5    1
    50    52    49    1
    51    52    53    1
    52    44    41    1
    53    16    15    1
    54    16    19    1
    55    48    49    1
    56    88    90   ar
    57    88    87   ar
    58    29    31   ar
    59    77    80    1
    60    77    78    1
    61    41    42    1
    62    86    87    1
    63    86    83    1
    64    90    92   ar
    65    80    81    1
    66    15    21    1
    67    54    53    1
    68    87    89   ar
    69    82    83    1
    70     5     6    1
    71    53    55    1
    72    42    43    2
    73    32    31   ar
    74    83    84    1
    75    78    79    2
    76    92    93    1
    77    92    91   ar
    78    19    20    1
    79    89    91   ar
    80    21    20    1
    81    11     8   ar
    82    11    13   ar
    83     6     8   ar
    84     6     7   ar
    85     8    10   ar
    86    84    85    2
    87    84    94   am
    88    13    14   ar
    89   101    99   am
    90   117   115    1
    91     7     9   ar
    92    94    95    1
    93   115   114    1
    94    99   100    2
    95    99    98    1
    96    10     9   ar
    97    10    12   ar
    98    14    12   ar
    99   121   120    2
   100    95    98    1
   101    95    96    1
   102   120   119    1
   103   113   112    2
   104   114   116    1
   105   114   111    1
   106    97    96    2
   107   122   119    1
   108   122   123    1
   109   125   124    1
   110   112   111    1
   111   111   110    1
   112   119   118    1
   113   124   123    1
   114   110   104   am
   115   105   104    2
   116   104   103    1
   117   103   106    1
   118   103   102    1
   119   106   107    1
   120   107   109   ar
   121   107   108   ar
