@<TRIPOS>MOLECULE
tmp/5z95A00.pdb
 179 169 0 0 0
SMALL
GASTEIGER

@<TRIPOS>ATOM
      1  N         -3.5180   36.0480   21.3020 N.3    24  TYR24      -0.1241
      2  CA        -3.9570   35.1730   20.2370 C.3    24  TYR24       0.1605
      3  C         -4.8250   35.8970   19.2290 C.2    24  TYR24       0.2264
      4  O         -5.7330   36.6380   19.5670 O.2    24  TYR24      -0.2867
      5  CB        -4.7650   34.0210   20.8360 C.3    24  TYR24       0.0534
      6  CG        -5.4140   33.0940   19.8370 C.ar   24  TYR24      -0.0201
      7  CD1       -4.7010   32.0840   19.2230 C.ar   24  TYR24      -0.0009
      8  CD2       -6.7220   33.2850   19.4440 C.ar   24  TYR24      -0.0009
      9  CE1       -5.2920   31.2190   18.3420 C.ar   24  TYR24       0.0417
     10  CE2       -7.3150   32.4440   18.5320 C.ar   24  TYR24       0.0417
     11  CZ        -6.6110   31.4050   17.9970 C.ar   24  TYR24       0.1957
     12  OH        -7.1980   30.5550   17.0890 O.3    24  TYR24      -0.2866
     13  N         -8.0440   27.1310   31.4060 N.3   122  LEU122     -0.1245
     14  CA        -9.4270   27.1780   30.9430 C.3   122  LEU122      0.1561
     15  C        -10.2880   26.0370   31.4570 C.2   122  LEU122      0.2260
     16  O        -11.4890   26.2250   31.6710 O.2   122  LEU122     -0.2867
     17  CB        -9.4590   27.1270   29.4140 C.3   122  LEU122      0.0270
     18  CG        -9.1350   28.4130   28.6980 C.3   122  LEU122      0.0019
     19  CD1       -7.7530   28.9160   28.9300 C.3   122  LEU122      0.0001
     20  CD2       -9.3970   28.2320   27.2000 C.3   122  LEU122      0.0001
     21  N        -14.0460   27.9280   33.1610 N.3   131  GLY131     -0.1210
     22  CA       -15.0810   28.2440   32.2140 C.3   131  GLY131      0.1956
     23  C        -15.3890   27.1720   31.1930 C.2   131  GLY131      0.2612
     24  O        -16.3390   27.3530   30.4680 O.2   131  GLY131     -0.2717
     25  N        -14.5730   26.1220   31.0900 N.am  132  PHE132     -0.1962
     26  CA       -14.6950   25.1240   30.0220 C.3   132  PHE132      0.1771
     27  C        -14.6410   23.7170   30.5810 C.2   132  PHE132      0.2619
     28  O        -13.7960   23.4260   31.3880 O.2   132  PHE132     -0.2715
     29  CB       -13.5750   25.3630   28.9940 C.3   132  PHE132      0.0574
     30  CG       -13.6530   26.7160   28.3710 C.ar  132  PHE132     -0.0200
     31  CD1      -13.0860   27.8110   29.0040 C.ar  132  PHE132     -0.0042
     32  CD2      -14.3890   26.9250   27.2070 C.ar  132  PHE132     -0.0042
     33  CE1      -13.2350   29.0760   28.4880 C.ar  132  PHE132     -0.0003
     34  CE2      -14.5060   28.1920   26.6740 C.ar  132  PHE132     -0.0003
     35  CZ       -13.9360   29.2650   27.3100 C.ar  132  PHE132     -0.0000
     36  N        -15.5020   22.8460   30.0790 N.am  133  GLU133     -0.1977
     37  CA       -15.5380   21.4740   30.5680 C.3   133  GLU133      0.1602
     38  C        -14.7560   20.5610   29.6400 C.2   133  GLU133      0.2287
     39  O        -14.9260   20.5790   28.3960 O.2   133  GLU133     -0.2864
     40  CB       -16.9730   21.0050   30.7360 C.3   133  GLU133      0.0415
     41  CG       -17.5770   21.5190   32.0540 C.3   133  GLU133      0.1163
     42  CD       -17.1540   20.7190   33.2540 C.2   133  GLU133      0.3649
     43  OE1      -16.9320   19.5020   33.1240 O.co2 133  GLU133     -0.2457
     44  OE2      -17.0540   21.3080   34.3470 O.co2 133  GLU133     -0.2457
     45  N        -16.5790   18.4590   26.8350 N.3   136  VAL136     -0.1231
     46  CA       -17.0940   19.2970   25.7570 C.3   136  VAL136      0.1692
     47  C        -15.9400   19.7660   24.8810 C.2   136  VAL136      0.2591
     48  O        -16.0120   19.6710   23.6530 O.2   136  VAL136     -0.2718
     49  CB       -17.9100   20.5120   26.2340 C.3   136  VAL136      0.0266
     50  CG1      -18.4380   21.3150   25.0620 C.3   136  VAL136      0.0020
     51  CG2      -19.0720   20.0610   27.0960 C.3   136  VAL136      0.0020
     52  N        -14.8760   20.2540   25.5250 N.am  137  MET137     -0.1979
     53  CA       -13.6800   20.6660   24.7890 C.3   137  MET137      0.1605
     54  C        -13.1430   19.5420   23.9120 C.2   137  MET137      0.2287
     55  O        -12.7690   19.7730   22.7660 O.2   137  MET137     -0.2864
     56  CB       -12.6120   21.1250   25.7940 C.3   137  MET137      0.0413
     57  CG       -11.3400   21.6950   25.1990 C.3   137  MET137      0.0598
     58  SD       -11.4840   23.2440   24.3150 S.3   137  MET137     -0.1393
     59  CE       -11.5370   24.3980   25.6520 C.3   137  MET137      0.0692
     60  N        -15.2150   19.4160   20.7470 N.3   140  THR140     -0.1203
     61  CA       -14.9370   20.5370   19.8880 C.3   140  THR140      0.1994
     62  C        -13.6030   20.4130   19.1790 C.2   140  THR140      0.2617
     63  O        -13.4680   20.6880   17.9680 O.2   140  THR140     -0.2717
     64  CB       -15.0290   21.8270   20.6630 C.3   140  THR140      0.1784
     65  OG1      -16.2830   21.8860   21.3390 O.3   140  THR140     -0.2211
     66  CG2      -14.8440   23.0380   19.7540 C.3   140  THR140      0.0376
     67  N        -12.5860   20.0250   19.9430 N.am  141  LEU141     -0.1979
     68  CA       -11.2570   19.9230   19.3820 C.3   141  LEU141      0.1596
     69  C        -11.1190   18.7610   18.4000 C.2   141  LEU141      0.2287
     70  O        -10.2600   18.8300   17.5200 O.2   141  LEU141     -0.2864
     71  CB       -10.1960   19.9100   20.4710 C.3   141  LEU141      0.0297
     72  CG       -10.0870   21.1960   21.3190 C.3   141  LEU141      0.0022
     73  CD1       -8.9530   21.0580   22.3180 C.3   141  LEU141      0.0001
     74  CD2       -9.8350   22.4510   20.4810 C.3   141  LEU141      0.0001
     75  N        -11.8570   20.3610   15.1230 N.3   144  LEU144     -0.1245
     76  CA       -11.4080   21.7300   15.0190 C.3   144  LEU144      0.1561
     77  C        -10.8000   22.0520   13.6560 C.2   144  LEU144      0.2260
     78  O        -11.1000   23.0790   13.0700 O.2   144  LEU144     -0.2867
     79  CB       -10.3610   22.0530   16.1110 C.3   144  LEU144      0.0270
     80  CG        -9.6810   23.4120   15.9850 C.3   144  LEU144      0.0019
     81  CD1      -10.6260   24.5560   16.2360 C.3   144  LEU144      0.0001
     82  CD2       -8.4880   23.5050   16.9260 C.3   144  LEU144      0.0001
     83  N        -12.1760   25.1890   11.4580 N.3   148  PHE148     -0.1241
     84  CA       -11.5340   26.3070   12.1460 C.3   148  PHE148      0.1605
     85  C        -12.2120   27.6360   11.8580 C.2   148  PHE148      0.2264
     86  O        -12.5170   28.4020   12.7720 O.2   148  PHE148     -0.2867
     87  CB       -10.0460   26.4000   11.7980 C.3   148  PHE148      0.0534
     88  CG        -9.3610   27.5380   12.5200 C.ar  148  PHE148     -0.0203
     89  CD1       -9.0340   27.4250   13.8740 C.ar  148  PHE148     -0.0042
     90  CD2       -9.1440   28.7450   11.9210 C.ar  148  PHE148     -0.0042
     91  CE1       -8.4880   28.4820   14.5800 C.ar  148  PHE148     -0.0003
     92  CE2       -8.5670   29.8020   12.6240 C.ar  148  PHE148     -0.0003
     93  CZ        -8.2560   29.6510   13.9430 C.ar  148  PHE148     -0.0000
     94  N        -16.0770   27.7420   13.1500 N.3   151  LEU151     -0.1231
     95  CA       -16.1330   27.7890   14.6150 C.3   151  LEU151      0.1693
     96  C        -15.6450   29.1540   15.1250 C.2   151  LEU151      0.2592
     97  O        -16.2580   29.7600   16.0170 O.2   151  LEU151     -0.2718
     98  CB       -15.3200   26.6460   15.2160 C.3   151  LEU151      0.0284
     99  CG       -15.1890   26.6600   16.7550 C.3   151  LEU151      0.0019
    100  CD1      -16.5170   26.5710   17.4640 C.3   151  LEU151      0.0001
    101  CD2      -14.2490   25.5430   17.1770 C.3   151  LEU151      0.0001
    102  N        -14.5570   29.6220   14.5520 N.am  152  SER152     -0.1952
    103  CA       -13.9870   30.8910   14.9810 C.3   152  SER152      0.1924
    104  C        -14.9290   32.0290   14.6910 C.2   152  SER152      0.2314
    105  O        -15.1650   32.8910   15.5500 O.2   152  SER152     -0.2863
    106  CB       -12.6530   31.1160   14.2700 C.3   152  SER152      0.2116
    107  OG       -11.6760   30.1800   14.7090 O.3   152  SER152     -0.2180
    108  N        -18.1100   31.9060   17.0010 N.3   155  THR155     -0.1218
    109  CA       -17.8970   32.2600   18.4000 C.3   155  THR155      0.1862
    110  C        -17.3520   33.6500   18.6080 C.2   155  THR155      0.2287
    111  O        -17.5220   34.2090   19.7110 O.2   155  THR155     -0.2866
    112  CB       -17.0460   31.2240   19.1430 C.3   155  THR155      0.1770
    113  OG1      -15.7800   31.1040   18.4830 O.3   155  THR155     -0.2211
    114  CG2      -17.7270   29.9050   19.2020 C.3   155  THR155      0.0375
    115  N        -19.2990   36.5590   20.5270 N.3   158  LEU158     -0.1231
    116  CA       -19.3740   36.4710   22.0210 C.3   158  LEU158      0.1693
    117  C        -18.0200   36.6040   22.6350 C.2   158  LEU158      0.2591
    118  O        -17.8910   37.2420   23.6870 O.2   158  LEU158     -0.2718
    119  CB       -20.0310   35.2110   22.5550 C.3   158  LEU158      0.0284
    120  CG       -21.5020   35.0750   22.2870 C.3   158  LEU158      0.0019
    121  CD1      -22.0440   33.8650   23.0330 C.3   158  LEU158      0.0001
    122  CD2      -22.2850   36.3360   22.6560 C.3   158  LEU158      0.0001
    123  N        -16.9950   36.0410   22.0040 N.am  159  LEU159     -0.1980
    124  CA       -15.6550   36.1980   22.5450 C.3   159  LEU159      0.1596
    125  C        -15.3150   37.6700   22.7110 C.2   159  LEU159      0.2287
    126  O        -14.8340   38.0770   23.7700 O.2   159  LEU159     -0.2864
    127  CB       -14.6370   35.4950   21.6520 C.3   159  LEU159      0.0297
    128  CG       -13.1750   35.6500   22.0550 C.3   159  LEU159      0.0022
    129  CD1      -12.9270   34.9140   23.3490 C.3   159  LEU159      0.0001
    130  CD2      -12.2590   35.1470   20.9510 C.3   159  LEU159      0.0001
    131  N        -10.3020   41.9970   14.0820 N.3   172  TYR172     -0.1241
    132  CA        -9.8810   40.7250   14.6940 C.3   172  TYR172      0.1605
    133  C         -9.8050   39.6230   13.6330 C.2   172  TYR172      0.2264
    134  O         -8.8510   38.8610   13.5740 O.2   172  TYR172     -0.2867
    135  CB       -10.8370   40.3700   15.8020 C.3   172  TYR172      0.0534
    136  CG       -10.4920   39.0740   16.4870 C.ar  172  TYR172     -0.0201
    137  CD1       -9.4000   38.9680   17.3460 C.ar  172  TYR172     -0.0009
    138  CD2      -11.2760   37.9490   16.3310 C.ar  172  TYR172     -0.0009
    139  CE1       -9.0810   37.8080   17.9720 C.ar  172  TYR172      0.0417
    140  CE2      -10.9730   36.7760   16.9860 C.ar  172  TYR172      0.0417
    141  CZ        -9.8660   36.7040   17.8010 C.ar  172  TYR172      0.1957
    142  OH        -9.5540   35.5400   18.4720 O.3   172  TYR172     -0.2866
    143  N         -4.1830   27.2650   19.1450 N.3   188  THR188     -0.1218
    144  CA        -5.4660   27.0740   19.7920 C.3   188  THR188      0.1862
    145  C         -5.4400   25.9070   20.7940 C.2   188  THR188      0.2287
    146  O         -5.8890   26.0200   21.9250 O.2   188  THR188     -0.2866
    147  CB        -6.5680   26.8340   18.7470 C.3   188  THR188      0.1770
    148  OG1       -6.6860   27.9790   17.8980 O.3   188  THR188     -0.2211
    149  CG2       -7.8950   26.5670   19.3980 C.3   188  THR188      0.0375
    150  N         -3.4570   26.7680   23.9310 N.3   191  ILE191     -0.1231
    151  CA        -4.2170   27.5870   24.8810 C.3   191  ILE191      0.1692
    152  C         -5.2190   26.7410   25.6380 C.2   191  ILE191      0.2592
    153  O         -5.3070   26.8110   26.8710 O.2   191  ILE191     -0.2718
    154  CB        -4.8930   28.7750   24.1790 C.3   191  ILE191      0.0266
    155  CG1       -3.8240   29.7650   23.7090 C.3   191  ILE191      0.0019
    156  CG2       -5.9550   29.4480   25.0700 C.3   191  ILE191      0.0020
    157  CD1       -4.3170   30.7770   22.6890 C.3   191  ILE191      0.0001
    158  N         -5.9430   25.9170   24.9140 N.am  192  CYS192     -0.1970
    159  CA        -6.9810   25.1040   25.5470 C.3   192  CYS192      0.1712
    160  C         -6.4320   24.1720   26.6040 C.2   192  CYS192      0.2296
    161  O         -7.1240   23.8870   27.5900 O.2   192  CYS192     -0.2864
    162  CB        -7.7500   24.3270   24.4480 C.3   192  CYS192      0.0983
    163  SG        -8.8290   25.3590   23.4280 S.3   192  CYS192     -0.0798
    164  N        -16.2280   35.6890   28.3390 N.3   216  ILE216     -0.1231
    165  CA       -16.5330   34.2730   28.2430 C.3   216  ILE216      0.1692
    166  C        -15.3190   33.3620   28.4210 C.2   216  ILE216      0.2591
    167  O        -15.4860   32.1770   28.7170 O.2   216  ILE216     -0.2718
    168  CB       -17.2960   33.8850   26.9460 C.3   216  ILE216      0.0266
    169  CG1      -16.4280   34.0020   25.7050 C.3   216  ILE216      0.0019
    170  CG2      -18.5940   34.6400   26.8400 C.3   216  ILE216      0.0020
    171  CD1      -17.0050   33.3750   24.4320 C.3   216  ILE216      0.0001
    172  N        -14.1140   33.8930   28.2460 N.am  217  MET217     -0.1979
    173  CA       -12.9070   33.1000   28.3810 C.3   217  MET217      0.1605
    174  C        -12.2730   33.2000   29.7700 C.2   217  MET217      0.2287
    175  O        -11.3530   32.4360   30.0600 O.2   217  MET217     -0.2864
    176  CB       -11.8850   33.5060   27.3200 C.3   217  MET217      0.0413
    177  CG       -10.8050   32.4630   27.0790 C.3   217  MET217      0.0598
    178  SD        -9.9420   32.8380   25.5580 S.3   217  MET217     -0.1393
    179  CE        -8.3020   32.3520   26.0620 C.3   217  MET217      0.0692
@<TRIPOS>BOND
     1    83    84    1
     2    87    84    1
     3    87    88    1
     4    85    84    1
     5    85    86    2
     6    90    88   ar
     7    90    92   ar
     8    88    89   ar
     9    92    93   ar
    10    78    77    2
    11    94    95    1
    12   134   133    2
    13   133   132    1
    14    77    76    1
    15    89    91   ar
    16    93    91   ar
    17   131   132    1
    18   106   107    1
    19   106   103    1
    20   102   103    1
    21   102    96   am
    22    95    96    1
    23    95    98    1
    24   104   103    1
    25   104   105    2
    26   132   135    1
    27    76    75    1
    28    76    79    1
    29    96    97    2
    30    98    99    1
    31   135   136    1
    32    80    79    1
    33    80    81    1
    34    80    82    1
    35   138   136   ar
    36   138   140   ar
    37   136   137   ar
    38    99   101    1
    39    99   100    1
    40   140   141   ar
    41   108   109    1
    42    12    11    1
    43   137   139   ar
    44    70    69    2
    45   141   139   ar
    46   141   142    1
    47   148   147    1
    48    63    62    2
    49    11     9   ar
    50    11    10   ar
    51     9     7   ar
    52    69    68    1
    53   109   110    1
    54   109   112    1
    55   113   112    1
    56    10     8   ar
    57   110   111    2
    58   147   149    1
    59   147   144    1
    60   112   114    1
    61   143   144    1
    62    62    61    1
    63    62    67   am
    64     7     6   ar
    65     3     4    2
    66     3     2    1
    67    68    67    1
    68    68    71    1
    69     8     6   ar
    70    66    64    1
    71   144   145    1
    72     6     5    1
    73    61    64    1
    74    61    60    1
    75     2     5    1
    76     2     1    1
    77    71    72    1
    78    74    72    1
    79   115   116    1
    80    64    65    1
    81   145   146    2
    82   130   128    1
    83    72    73    1
    84   127   128    1
    85   127   124    1
    86   123   124    1
    87   123   117   am
    88   116   119    1
    89   116   117    1
    90   128   129    1
    91   120   119    1
    92   120   122    1
    93   120   121    1
    94   124   125    1
    95   117   118    2
    96   157   155    1
    97   125   126    2
    98    55    54    2
    99   163   162    1
   100    48    47    2
   101   155   154    1
   102    54    53    1
   103   150   151    1
   104   154   151    1
   105   154   156    1
   106    58    57    1
   107    58    59    1
   108   171   169    1
   109   162   159    1
   110    53    52    1
   111    53    56    1
   112   151   152    1
   113    47    52   am
   114    47    46    1
   115   158   159    1
   116   158   152   am
   117    50    49    1
   118    57    56    1
   119   159   160    1
   120   178   179    1
   121   178   177    1
   122   152   153    2
   123   169   168    1
   124    46    49    1
   125    46    45    1
   126    49    51    1
   127   160   161    2
   128    34    32   ar
   129    34    35   ar
   130   170   168    1
   131   168   165    1
   132   177   176    1
   133    20    18    1
   134    32    30   ar
   135    35    33   ar
   136   176   173    1
   137   165   164    1
   138   165   166    1
   139   172   173    1
   140   172   166   am
   141    30    29    1
   142    30    31   ar
   143   173   174    1
   144    39    38    2
   145   166   167    2
   146    33    31   ar
   147    18    19    1
   148    18    17    1
   149    29    26    1
   150    17    14    1
   151    38    37    1
   152   174   175    2
   153    26    27    1
   154    26    25    1
   155    36    37    1
   156    36    27   am
   157    24    23    2
   158    37    40    1
   159    27    28    2
   160    40    41    1
   161    14    13    1
   162    14    15    1
   163    25    23   am
   164    23    22    1
   165    15    16    2
   166    41    42    1
   167    22    21    1
   168    43    42   ar
   169    42    44   ar
