@<TRIPOS>MOLECULE
tmp/5z96A01.pdb
 220 212 0 0 0
SMALL
GASTEIGER

@<TRIPOS>ATOM
      1  N        185.8940  158.9280  170.2400 N.3   377  TRP377     -0.1241
      2  CA       186.4190  157.9160  171.1500 C.3   377  TRP377      0.1605
      3  C        187.8490  158.2060  171.5720 C.2   377  TRP377      0.2264
      4  O        188.2570  157.8050  172.6660 O.2   377  TRP377     -0.2867
      5  CB       186.3550  156.5340  170.5100 C.3   377  TRP377      0.0550
      6  CG       184.9760  156.0490  170.2600 C.ar  377  TRP377      0.0003
      7  CD1      184.3280  156.0210  169.0690 C.ar  377  TRP377      0.0946
      8  CD2      184.0590  155.5370  171.2290 C.ar  377  TRP377      0.0152
      9  NE1      183.0660  155.5100  169.2280 N.ar  377  TRP377     -0.2442
     10  CE2      182.8770  155.2080  170.5480 C.ar  377  TRP377      0.0810
     11  CE3      184.1230  155.3250  172.6060 C.ar  377  TRP377      0.0012
     12  CZ2      181.7720  154.6770  171.1930 C.ar  377  TRP377      0.0191
     13  CZ3      183.0230  154.7980  173.2440 C.ar  377  TRP377      0.0001
     14  CH2      181.8640  154.4800  172.5390 C.ar  377  TRP377      0.0015
     15  N        187.5570  160.6440  174.2810 N.3   380  MET380     -0.1245
     16  CA       187.1680  159.8900  175.4650 C.3   380  MET380      0.1570
     17  C        188.3530  159.1480  176.0680 C.2   380  MET380      0.2261
     18  O        188.4260  158.9760  177.2900 O.2   380  MET380     -0.2867
     19  CB       186.0550  158.9190  175.0920 C.3   380  MET380      0.0387
     20  CG       185.3950  158.2540  176.2580 C.3   380  MET380      0.0595
     21  SD       183.9830  157.2900  175.7260 S.3   380  MET380     -0.1393
     22  CE       183.4150  156.7040  177.3030 C.3   380  MET380      0.0692
     23  N        182.9080  151.9750  179.1410 N.3   431  LEU431     -0.1245
     24  CA       182.0640  152.3110  178.0010 C.3   431  LEU431      0.1561
     25  C        182.8000  152.2140  176.6750 C.2   431  LEU431      0.2260
     26  O        182.2050  152.5170  175.6400 O.2   431  LEU431     -0.2867
     27  CB       181.4830  153.7180  178.1340 C.3   431  LEU431      0.0270
     28  CG       180.3180  153.9920  179.0730 C.3   431  LEU431      0.0019
     29  CD1      180.0750  155.4760  179.1640 C.3   431  LEU431      0.0001
     30  CD2      179.0930  153.3060  178.5380 C.3   431  LEU431      0.0001
     31  N        181.5260  149.5350  173.7350 N.3   434  ILE434     -0.1245
     32  CA       180.5600  149.9060  172.7130 C.3   434  ILE434      0.1561
     33  C        181.2690  150.2190  171.3990 C.2   434  ILE434      0.2260
     34  O        180.7480  149.9210  170.3170 O.2   434  ILE434     -0.2867
     35  CB       179.7100  151.0780  173.2400 C.3   434  ILE434      0.0252
     36  CG1      178.9210  150.6290  174.4670 C.3   434  ILE434      0.0019
     37  CG2      178.7370  151.5830  172.2150 C.3   434  ILE434      0.0019
     38  CD1      178.1890  151.7460  175.1570 C.3   434  ILE434      0.0001
     39  N        173.3340  160.9830  168.1700 N.3   454  LEU454     -0.1245
     40  CA       173.8220  161.7380  169.3260 C.3   454  LEU454      0.1561
     41  C        174.0180  163.2170  169.0190 C.2   454  LEU454      0.2260
     42  O        173.7750  164.0700  169.8800 O.2   454  LEU454     -0.2867
     43  CB       175.1290  161.1450  169.8400 C.3   454  LEU454      0.0270
     44  CG       175.0170  159.8350  170.5980 C.3   454  LEU454      0.0019
     45  CD1      176.3900  159.3020  170.9270 C.3   454  LEU454      0.0001
     46  CD2      174.2350  160.0910  171.8540 C.3   454  LEU454      0.0001
     47  N        170.7890  164.8200  169.2730 N.3   457  ILE457     -0.1231
     48  CA       170.3430  164.9660  170.6570 C.3   457  ILE457      0.1692
     49  C        171.0280  166.1540  171.3200 C.2   457  ILE457      0.2591
     50  O        170.3850  166.9400  172.0240 O.2   457  ILE457     -0.2718
     51  CB       170.5770  163.6670  171.4440 C.3   457  ILE457      0.0266
     52  CG1      169.6920  162.5590  170.9110 C.3   457  ILE457      0.0019
     53  CG2      170.2960  163.8470  172.9200 C.3   457  ILE457      0.0020
     54  CD1      170.0120  161.2600  171.5320 C.3   457  ILE457      0.0001
     55  N        172.3340  166.3180  171.0960 N.am  458  LEU458     -0.1980
     56  CA       173.0800  167.3960  171.7380 C.3   458  LEU458      0.1596
     57  C        172.6590  168.7830  171.2710 C.2   458  LEU458      0.2287
     58  O        172.8410  169.7450  172.0200 O.2   458  LEU458     -0.2864
     59  CB       174.5770  167.2100  171.5120 C.3   458  LEU458      0.0297
     60  CG       175.2050  166.0270  172.2440 C.3   458  LEU458      0.0022
     61  CD1      176.6450  165.8280  171.8170 C.3   458  LEU458      0.0001
     62  CD2      175.1230  166.2400  173.7410 C.3   458  LEU458      0.0001
     63  N        169.5350  169.3670  170.9760 N.3   460  PHE460     -0.1227
     64  CA       168.2620  169.5120  171.6590 C.3   460  PHE460      0.1736
     65  C        168.4120  169.7990  173.1380 C.2   460  PHE460      0.2595
     66  O        167.5590  170.4680  173.7180 O.2   460  PHE460     -0.2718
     67  CB       167.4190  168.2480  171.4810 C.3   460  PHE460      0.0547
     68  CG       166.0450  168.3720  172.0330 C.ar  460  PHE460     -0.0202
     69  CD1      165.0840  169.0680  171.3350 C.ar  460  PHE460     -0.0042
     70  CD2      165.7180  167.8260  173.2610 C.ar  460  PHE460     -0.0042
     71  CE1      163.8220  169.2040  171.8300 C.ar  460  PHE460     -0.0003
     72  CE2      164.4540  167.9630  173.7630 C.ar  460  PHE460     -0.0003
     73  CZ       163.5110  168.6600  173.0450 C.ar  460  PHE460     -0.0000
     74  N        169.4800  169.3130  173.7680 N.am  461  LEU461     -0.1980
     75  CA       169.6350  169.5090  175.2020 C.3   461  LEU461      0.1596
     76  C        170.0610  170.9240  175.5490 C.2   461  LEU461      0.2287
     77  O        170.0650  171.2760  176.7290 O.2   461  LEU461     -0.2864
     78  CB       170.6370  168.5060  175.7720 C.3   461  LEU461      0.0297
     79  CG       170.2710  167.0250  175.6150 C.3   461  LEU461      0.0022
     80  CD1      171.3470  166.1510  176.2240 C.3   461  LEU461      0.0001
     81  CD2      168.9120  166.6890  176.2000 C.3   461  LEU461      0.0001
     82  N        166.7800  172.5000  176.3350 N.3   464  TYR464     -0.1227
     83  CA       166.3730  172.0280  177.6450 C.3   464  TYR464      0.1736
     84  C        167.1820  172.6910  178.7530 C.2   464  TYR464      0.2595
     85  O        166.6410  172.9810  179.8260 O.2   464  TYR464     -0.2718
     86  CB       166.4930  170.5150  177.7340 C.3   464  TYR464      0.0548
     87  CG       165.9580  170.0960  179.0490 C.ar  464  TYR464     -0.0200
     88  CD1      164.6110  170.2270  179.3010 C.ar  464  TYR464     -0.0009
     89  CD2      166.7870  169.6380  180.0600 C.ar  464  TYR464     -0.0009
     90  CE1      164.0960  169.9000  180.4910 C.ar  464  TYR464      0.0417
     91  CE2      166.2700  169.3000  181.2710 C.ar  464  TYR464      0.0417
     92  CZ       164.9190  169.4370  181.4700 C.ar  464  TYR464      0.1957
     93  OH       164.3470  169.1200  182.6570 O.3   464  TYR464     -0.2866
     94  N        168.4710  172.9490  178.5140 N.am  465  CYS465     -0.1970
     95  CA       169.2540  173.6880  179.4970 C.3   465  CYS465      0.1712
     96  C        168.7590  175.1160  179.6570 C.2   465  CYS465      0.2296
     97  O        168.8260  175.6700  180.7630 O.2   465  CYS465     -0.2864
     98  CB       170.7320  173.6800  179.1260 C.3   465  CYS465      0.0983
     99  SG       171.5610  172.1180  179.4500 S.3   465  CYS465     -0.0798
    100  N        165.8010  174.7580  181.9670 N.3   468  LEU468     -0.1245
    101  CA       166.2890  174.6100  183.3380 C.3   468  LEU468      0.1561
    102  C        166.7220  175.9370  183.9370 C.2   468  LEU468      0.2260
    103  O        166.4730  176.2010  185.1190 O.2   468  LEU468     -0.2867
    104  CB       167.4550  173.6310  183.4010 C.3   468  LEU468      0.0270
    105  CG       167.1280  172.1590  183.4570 C.3   468  LEU468      0.0019
    106  CD1      168.4040  171.3400  183.3510 C.3   468  LEU468      0.0001
    107  CD2      166.4740  171.8900  184.7530 C.3   468  LEU468      0.0001
    108  N        168.5710  164.5740  197.9100 N.3   494  ARG494     -0.1245
    109  CA       169.3130  163.3800  198.3180 C.3   494  ARG494      0.1563
    110  C        169.1590  163.1770  199.8120 C.2   494  ARG494      0.2260
    111  O        170.1170  163.3330  200.5680 O.2   494  ARG494     -0.2867
    112  CB       170.8050  163.3960  197.9390 C.3   494  ARG494      0.0307
    113  CG       171.1410  163.2670  196.4760 C.3   494  ARG494      0.0489
    114  CD       171.1690  164.6150  195.7920 C.3   494  ARG494      0.2205
    115  NE       171.9930  165.5760  196.5190 N.pl3 494  ARG494     -0.0865
    116  CZ       173.3120  165.6710  196.4080 C.cat 494  ARG494      0.5346
    117  NH1      173.9720  164.8580  195.6050 N.pl3 494  ARG494      0.1354
    118  NH2      173.9710  166.5810  197.1110 N.pl3 494  ARG494      0.1354
    119  N        171.6790  176.1360  192.7710 N.3   506  PHE506     -0.1241
    120  CA       172.2530  174.8430  192.4510 C.3   506  PHE506      0.1605
    121  C        171.3680  173.6980  192.9120 C.2   506  PHE506      0.2264
    122  O        171.2070  172.7090  192.1840 O.2   506  PHE506     -0.2867
    123  CB       173.6290  174.7670  193.0840 C.3   506  PHE506      0.0534
    124  CG       174.3800  173.5360  192.7480 C.ar  506  PHE506     -0.0203
    125  CD1      174.8390  173.3290  191.4650 C.ar  506  PHE506     -0.0042
    126  CD2      174.6820  172.6120  193.7250 C.ar  506  PHE506     -0.0042
    127  CE1      175.5500  172.2060  191.1520 C.ar  506  PHE506     -0.0003
    128  CE2      175.4000  171.4920  193.4210 C.ar  506  PHE506     -0.0003
    129  CZ       175.8340  171.2900  192.1320 C.ar  506  PHE506     -0.0000
    130  N        168.4370  173.6460  190.4050 N.3   509  LEU509     -0.1231
    131  CA       168.8120  172.9010  189.2080 C.3   509  LEU509      0.1693
    132  C        168.8030  171.4030  189.4640 C.2   509  LEU509      0.2591
    133  O        168.3500  170.6250  188.6130 O.2   509  LEU509     -0.2718
    134  CB       170.1920  173.3410  188.7300 C.3   509  LEU509      0.0284
    135  CG       170.3150  174.7410  188.1490 C.3   509  LEU509      0.0019
    136  CD1      171.7710  175.0800  187.9550 C.3   509  LEU509      0.0001
    137  CD2      169.5980  174.7980  186.8330 C.3   509  LEU509      0.0001
    138  N        169.2920  170.9790  190.6350 N.am  510  GLN510     -0.1979
    139  CA       169.1810  169.5690  190.9950 C.3   510  GLN510      0.1601
    140  C        167.7320  169.1410  191.1700 C.2   510  GLN510      0.2287
    141  O        167.3820  168.0070  190.8320 O.2   510  GLN510     -0.2864
    142  CB       169.9490  169.2710  192.2770 C.3   510  GLN510      0.0394
    143  CG       171.4410  169.3570  192.1630 C.3   510  GLN510      0.0908
    144  CD       172.1250  168.9340  193.4370 C.2   510  GLN510      0.2608
    145  OE1      171.4740  168.6540  194.4420 O.2   510  GLN510     -0.2717
    146  NE2      173.4420  168.8610  193.4000 N.am  510  GLN510     -0.0878
    147  N        166.1100  168.9480  187.5900 N.3   513  PHE513     -0.1227
    148  CA       166.7360  167.8600  186.8440 C.3   513  PHE513      0.1736
    149  C        166.3230  166.5000  187.3720 C.2   513  PHE513      0.2595
    150  O        166.0560  165.5820  186.5930 O.2   513  PHE513     -0.2718
    151  CB       168.2530  167.9650  186.8790 C.3   513  PHE513      0.0547
    152  CG       168.9340  166.7460  186.3390 C.ar  513  PHE513     -0.0202
    153  CD1      168.8710  166.4500  184.9960 C.ar  513  PHE513     -0.0042
    154  CD2      169.6270  165.8910  187.1750 C.ar  513  PHE513     -0.0042
    155  CE1      169.4810  165.3300  184.4990 C.ar  513  PHE513     -0.0003
    156  CE2      170.2400  164.7690  186.6770 C.ar  513  PHE513     -0.0003
    157  CZ       170.1660  164.4920  185.3410 C.ar  513  PHE513     -0.0000
    158  N        166.2780  166.3380  188.6860 N.am  514  TRP514     -0.1976
    159  CA       165.7620  165.0740  189.1770 C.3   514  TRP514      0.1640
    160  C        164.2560  164.9700  189.0510 C.2   514  TRP514      0.2290
    161  O        163.7280  163.8570  189.0840 O.2   514  TRP514     -0.2864
    162  CB       166.1720  164.8320  190.6210 C.3   514  TRP514      0.0576
    163  CG       167.5870  164.4810  190.7820 C.ar  514  TRP514      0.0006
    164  CD1      168.5640  165.2450  191.3120 C.ar  514  TRP514      0.0946
    165  CD2      168.2070  163.2770  190.3550 C.ar  514  TRP514      0.0152
    166  NE1      169.7570  164.5850  191.2750 N.ar  514  TRP514     -0.2442
    167  CE2      169.5600  163.3680  190.6870 C.ar  514  TRP514      0.0810
    168  CE3      167.7440  162.1200  189.7360 C.ar  514  TRP514      0.0012
    169  CZ2      170.4510  162.3550  190.4220 C.ar  514  TRP514      0.0191
    170  CZ3      168.6230  161.1220  189.4810 C.ar  514  TRP514      0.0001
    171  CH2      169.9620  161.2400  189.8210 C.ar  514  TRP514      0.0015
    172  N        162.7170  165.5860  186.3350 N.3   516  ILE516     -0.1231
    173  CA       162.4400  164.9000  185.0700 C.3   516  ILE516      0.1692
    174  C        161.8870  163.5130  185.3440 C.2   516  ILE516      0.2592
    175  O        160.8940  163.0800  184.7540 O.2   516  ILE516     -0.2718
    176  CB       163.7060  164.8090  184.2060 C.3   516  ILE516      0.0266
    177  CG1      164.2360  166.1840  183.8880 C.3   516  ILE516      0.0019
    178  CG2      163.4120  164.0940  182.9120 C.3   516  ILE516      0.0020
    179  CD1      165.5840  166.1380  183.2390 C.3   516  ILE516      0.0001
    180  N        162.5210  162.8030  186.2530 N.am  517  PHE517     -0.1976
    181  CA       162.1030  161.4800  186.6580 C.3   517  PHE517      0.1639
    182  C        161.1800  161.6370  187.8590 C.2   517  PHE517      0.2290
    183  O        161.0520  162.7210  188.4270 O.2   517  PHE517     -0.2864
    184  CB       163.3500  160.6580  186.9580 C.3   517  PHE517      0.0560
    185  CG       164.4280  160.8700  185.9310 C.ar  517  PHE517     -0.0200
    186  CD1      164.3210  160.3120  184.6810 C.ar  517  PHE517     -0.0042
    187  CD2      165.5150  161.6890  186.2010 C.ar  517  PHE517     -0.0042
    188  CE1      165.2870  160.5470  183.7180 C.ar  517  PHE517     -0.0003
    189  CE2      166.4830  161.9250  185.2530 C.ar  517  PHE517     -0.0003
    190  CZ       166.3590  161.3440  184.0090 C.ar  517  PHE517     -0.0000
    191  N        158.7010  170.1200  180.0250 N.3   549  SER549     -0.1217
    192  CA       159.8400  169.2160  179.9210 C.3   549  SER549      0.1889
    193  C        159.4340  167.7830  179.6120 C.2   549  SER549      0.2288
    194  O        160.1160  167.1170  178.8300 O.2   549  SER549     -0.2866
    195  CB       160.6570  169.2340  181.2050 C.3   549  SER549      0.2089
    196  OG       159.9570  168.6020  182.2550 O.3   549  SER549     -0.2183
    197  N        158.5710  168.7670  175.4330 N.3   553  LEU553     -0.1231
    198  CA       159.9160  168.6680  174.8720 C.3   553  LEU553      0.1693
    199  C        160.3840  167.2330  174.6950 C.2   553  LEU553      0.2591
    200  O        161.0400  166.9250  173.6990 O.2   553  LEU553     -0.2718
    201  CB       160.9330  169.4230  175.7220 C.3   553  LEU553      0.0284
    202  CG       160.9670  170.9400  175.6030 C.3   553  LEU553      0.0019
    203  CD1      161.9640  171.5060  176.5860 C.3   553  LEU553      0.0001
    204  CD2      161.3340  171.3330  174.1930 C.3   553  LEU553      0.0001
    205  N        160.0670  166.3400  175.6270 N.am  554  LEU554     -0.1980
    206  CA       160.6280  164.9970  175.5380 C.3   554  LEU554      0.1596
    207  C        159.9950  164.2000  174.4060 C.2   554  LEU554      0.2287
    208  O        160.6750  163.3920  173.7590 O.2   554  LEU554     -0.2864
    209  CB       160.4790  164.2970  176.8870 C.3   554  LEU554      0.0297
    210  CG       161.2250  162.9990  177.1640 C.3   554  LEU554      0.0022
    211  CD1      161.6790  163.0150  178.6010 C.3   554  LEU554      0.0001
    212  CD2      160.3210  161.8110  176.9430 C.3   554  LEU554      0.0001
    213  N        161.5500  165.3640  171.3330 N.3   557  LEU557     -0.1245
    214  CA       162.8230  164.6860  171.1660 C.3   557  LEU557      0.1561
    215  C        162.6210  163.2950  170.5940 C.2   557  LEU557      0.2260
    216  O        163.4340  162.8290  169.7840 O.2   557  LEU557     -0.2867
    217  CB       163.5530  164.6330  172.5010 C.3   557  LEU557      0.0270
    218  CG       164.9070  163.9450  172.5300 C.3   557  LEU557      0.0019
    219  CD1      165.8440  164.6090  171.5620 C.3   557  LEU557      0.0001
    220  CD2      165.4680  163.9950  173.9220 C.3   557  LEU557      0.0001
@<TRIPOS>BOND
     1    39    40    1
     2    41    40    1
     3    41    42    2
     4     7     9   ar
     5     7     6   ar
     6     9    10   ar
     7    47    48    1
     8    40    43    1
     9   216   215    2
    10    43    44    1
    11     1     2    1
    12     6     5    1
    13     6     8   ar
    14    34    33    2
    15     5     2    1
    16    10    12   ar
    17    10     8   ar
    18   215   214    1
    19    44    45    1
    20    44    46    1
    21    48    49    1
    22    48    51    1
    23    52    51    1
    24    52    54    1
    25    63    64    1
    26    55    49   am
    27    55    56    1
    28     2     3    1
    29   214   213    1
    30   214   217    1
    31    12    14   ar
    32     8    11   ar
    33    57    56    1
    34    57    58    2
    35    49    50    2
    36    69    71   ar
    37    69    68   ar
    38    33    32    1
    39    51    53    1
    40    67    64    1
    41    67    68    1
    42    59    56    1
    43    59    60    1
    44   219   218    1
    45     3     4    2
    46    64    65    1
    47    61    60    1
    48    71    73   ar
    49    68    70   ar
    50    37    35    1
    51    60    62    1
    52   217   218    1
    53   218   220    1
    54    14    13   ar
    55    11    13   ar
    56    32    35    1
    57    32    31    1
    58    73    72   ar
    59    65    66    2
    60    65    74   am
    61    35    36    1
    62    70    72   ar
    63   200   199    2
    64   208   207    2
    65    74    75    1
    66   204   202    1
    67    15    16    1
    68   207   206    1
    69    36    38    1
    70   199   198    1
    71   199   205   am
    72   198   197    1
    73   198   201    1
    74    19    16    1
    75    19    20    1
    76    75    76    1
    77    75    78    1
    78    16    17    1
    79   206   205    1
    80   206   209    1
    81    76    77    2
    82   202   201    1
    83   202   203    1
    84    79    78    1
    85    79    81    1
    86    79    80    1
    87    26    25    2
    88    21    20    1
    89    21    22    1
    90    17    18    2
    91    82    83    1
    92    25    24    1
    93   209   210    1
    94   212   210    1
    95   210   211    1
    96    83    86    1
    97    83    84    1
    98    86    87    1
    99    24    27    1
   100    24    23    1
   101    27    28    1
   102    94    84   am
   103    94    95    1
   104    30    28    1
   105    84    85    2
   106   194   193    2
   107    87    88   ar
   108    87    89   ar
   109    28    29    1
   110    98    99    1
   111    98    95    1
   112    88    90   ar
   113    95    96    1
   114   193   192    1
   115    96    97    2
   116   192   191    1
   117   192   195    1
   118    89    91   ar
   119    90    92   ar
   120   195   196    1
   121    91    92   ar
   122    92    93    1
   123   100   101    1
   124   178   176    1
   125   179   177    1
   126   101   104    1
   127   101   102    1
   128   106   105    1
   129   104   105    1
   130   105   107    1
   131   188   190   ar
   132   188   186   ar
   133   177   176    1
   134   102   103    2
   135   190   189   ar
   136   176   173    1
   137   155   153   ar
   138   155   157   ar
   139   186   185   ar
   140   175   174    2
   141   153   152   ar
   142   173   174    1
   143   173   172    1
   144   189   187   ar
   145   157   156   ar
   146   174   180   am
   147   185   187   ar
   148   185   184    1
   149   180   181    1
   150   152   151    1
   151   152   154   ar
   152   150   149    2
   153   181   184    1
   154   181   182    1
   155   156   154   ar
   156   137   135    1
   157   148   151    1
   158   148   149    1
   159   148   147    1
   160   149   158   am
   161   182   183    2
   162   136   135    1
   163   135   134    1
   164   133   132    2
   165   158   159    1
   166   134   131    1
   167   160   161    2
   168   160   159    1
   169   159   162    1
   170   131   132    1
   171   131   130    1
   172   132   138   am
   173   170   168   ar
   174   170   171   ar
   175   168   165   ar
   176   171   169   ar
   177   165   167   ar
   178   165   163   ar
   179   169   167   ar
   180   162   163    1
   181   138   139    1
   182   167   166   ar
   183   163   164   ar
   184   141   140    2
   185   139   140    1
   186   139   142    1
   187   127   125   ar
   188   127   129   ar
   189   166   164   ar
   190   125   124   ar
   191   129   128   ar
   192   143   142    1
   193   143   144    1
   194   122   121    2
   195   120   119    1
   196   120   121    1
   197   120   123    1
   198   124   123    1
   199   124   126   ar
   200   146   144   am
   201   128   126   ar
   202   144   145    2
   203   117   116    1
   204   114   113    1
   205   114   115    1
   206   116   115    2
   207   116   118    1
   208   113   112    1
   209   108   109    1
   210   112   109    1
   211   109   110    1
   212   110   111    2
