@<TRIPOS>MOLECULE
tmp/5z96A00.pdb
 209 204 0 0 0
SMALL
GASTEIGER

@<TRIPOS>ATOM
      1  N        192.5960  141.3290  156.1300 N.3   261  TRP261     -0.1227
      2  CA       192.2690  141.2220  157.5470 C.3   261  TRP261      0.1737
      3  C        192.3280  139.7850  158.0480 C.2   261  TRP261      0.2595
      4  O        192.5540  139.5520  159.2320 O.2   261  TRP261     -0.2718
      5  CB       190.8830  141.8360  157.7870 C.3   261  TRP261      0.0564
      6  CG       190.2980  141.7650  159.1790 C.ar  261  TRP261      0.0003
      7  CD1      189.2950  140.9450  159.5920 C.ar  261  TRP261      0.0946
      8  CD2      190.6340  142.5750  160.3120 C.ar  261  TRP261      0.0152
      9  NE1      189.0010  141.1690  160.9070 N.ar  261  TRP261     -0.2442
     10  CE2      189.8100  142.1670  161.3730 C.ar  261  TRP261      0.0810
     11  CE3      191.5630  143.5920  160.5370 C.ar  261  TRP261      0.0012
     12  CZ2      189.8820  142.7360  162.6280 C.ar  261  TRP261      0.0191
     13  CZ3      191.6340  144.1480  161.7940 C.ar  261  TRP261      0.0001
     14  CH2      190.7940  143.7280  162.8180 C.ar  261  TRP261      0.0015
     15  N        192.1630  138.8080  157.1590 N.am  262  TYR262     -0.1976
     16  CA       192.0720  137.4020  157.5340 C.3   262  TYR262      0.1639
     17  C        193.2860  136.5880  157.1210 C.2   262  TYR262      0.2290
     18  O        193.2150  135.3570  157.1560 O.2   262  TYR262     -0.2864
     19  CB       190.8290  136.7770  156.9070 C.3   262  TYR262      0.0560
     20  CG       189.5170  137.1250  157.5430 C.ar  262  TYR262     -0.0198
     21  CD1      189.4270  137.4430  158.8820 C.ar  262  TYR262     -0.0009
     22  CD2      188.3640  137.1730  156.7800 C.ar  262  TYR262     -0.0009
     23  CE1      188.2150  137.7610  159.4530 C.ar  262  TYR262      0.0417
     24  CE2      187.1570  137.5020  157.3360 C.ar  262  TYR262      0.0417
     25  CZ       187.0910  137.8010  158.6740 C.ar  262  TYR262      0.1957
     26  OH       185.8840  138.1280  159.2390 O.3   262  TYR262     -0.2866
     27  N        187.6660  131.1190  157.0870 N.3   268  TRP268     -0.1241
     28  CA       187.1700  131.4610  158.4160 C.3   268  TRP268      0.1605
     29  C        185.7530  132.0050  158.3540 C.2   268  TRP268      0.2264
     30  O        184.9600  131.7660  159.2700 O.2   268  TRP268     -0.2867
     31  CB       188.0660  132.4940  159.0910 C.3   268  TRP268      0.0550
     32  CG       187.7010  132.7100  160.5270 C.ar  268  TRP268      0.0003
     33  CD1      188.0120  131.9030  161.5800 C.ar  268  TRP268      0.0946
     34  CD2      186.8780  133.7550  161.0560 C.ar  268  TRP268      0.0152
     35  NE1      187.4810  132.4080  162.7390 N.ar  268  TRP268     -0.2442
     36  CE2      186.7730  133.5420  162.4420 C.ar  268  TRP268      0.0810
     37  CE3      186.2360  134.8620  160.4940 C.ar  268  TRP268      0.0012
     38  CZ2      186.0520  134.3900  163.2730 C.ar  268  TRP268      0.0191
     39  CZ3      185.5220  135.7030  161.3220 C.ar  268  TRP268      0.0001
     40  CH2      185.4320  135.4620  162.6940 C.ar  268  TRP268      0.0015
     41  N        183.3150  129.8730  165.7300 N.3   276  LYS276     -0.1231
     42  CA       183.9860  131.1690  165.7290 C.3   276  LYS276      0.1693
     43  C        184.1020  131.7310  167.1390 C.2   276  LYS276      0.2591
     44  O        185.1080  132.3640  167.4830 O.2   276  LYS276     -0.2718
     45  CB       183.2260  132.1500  164.8380 C.3   276  LYS276      0.0285
     46  CG       183.2240  131.8220  163.3590 C.3   276  LYS276      0.0035
     47  CD       182.4090  132.8570  162.5920 C.3   276  LYS276      0.0206
     48  CE       182.3080  132.5110  161.1180 C.3   276  LYS276      0.1093
     49  NZ       181.4810  133.4920  160.3640 N.3   276  LYS276     -0.1314
     50  N        183.0840  131.5030  167.9730 N.am  277  MET277     -0.1979
     51  CA       183.1460  131.9530  169.3590 C.3   277  MET277      0.1605
     52  C        184.1670  131.1620  170.1660 C.2   277  MET277      0.2287
     53  O        184.8040  131.7160  171.0700 O.2   277  MET277     -0.2864
     54  CB       181.7670  131.8470  170.0050 C.3   277  MET277      0.0413
     55  CG       180.6480  132.6590  169.4260 C.3   277  MET277      0.0598
     56  SD       181.0000  134.4190  169.7920 S.3   277  MET277     -0.1393
     57  CE       181.4290  134.4740  171.4610 C.3   277  MET277      0.0692
     58  N        187.7220  132.3970  168.7880 N.3   280  CYS280     -0.1235
     59  CA       187.9920  133.7200  169.3430 C.3   280  CYS280      0.1677
     60  C        188.1580  133.6740  170.8550 C.2   280  CYS280      0.2270
     61  O        188.8800  134.5010  171.4220 O.2   280  CYS280     -0.2867
     62  CB       186.8750  134.6930  168.9710 C.3   280  CYS280      0.0956
     63  SG       186.7980  135.1220  167.2220 S.3   280  CYS280     -0.0801
     64  N        193.5410  140.2110  162.2090 N.3   310  PHE310     -0.1241
     65  CA       192.4280  139.6990  162.9910 C.3   310  PHE310      0.1605
     66  C        192.8720  139.1580  164.3360 C.2   310  PHE310      0.2264
     67  O        192.1280  139.2730  165.3130 O.2   310  PHE310     -0.2867
     68  CB       191.6880  138.6140  162.2130 C.3   310  PHE310      0.0534
     69  CG       190.5490  138.0080  162.9570 C.ar  310  PHE310     -0.0203
     70  CD1      189.4310  138.7560  163.2630 C.ar  310  PHE310     -0.0042
     71  CD2      190.5740  136.6750  163.3090 C.ar  310  PHE310     -0.0042
     72  CE1      188.3720  138.1910  163.9420 C.ar  310  PHE310     -0.0003
     73  CE2      189.5140  136.1040  163.9850 C.ar  310  PHE310     -0.0003
     74  CZ       188.4180  136.8650  164.3040 C.ar  310  PHE310     -0.0000
     75  N        193.2610  142.1370  166.7880 N.3   313  PHE313     -0.1227
     76  CA       192.0680  142.7630  167.3340 C.3   313  PHE313      0.1736
     77  C        191.5560  142.0180  168.5480 C.2   313  PHE313      0.2595
     78  O        191.6440  142.5280  169.6670 O.2   313  PHE313     -0.2718
     79  CB       190.9750  142.8210  166.2620 C.3   313  PHE313      0.0547
     80  CG       189.6600  143.3170  166.7690 C.ar  313  PHE313     -0.0202
     81  CD1      189.4700  144.6530  167.0760 C.ar  313  PHE313     -0.0042
     82  CD2      188.5980  142.4460  166.9160 C.ar  313  PHE313     -0.0042
     83  CE1      188.2500  145.0950  167.5430 C.ar  313  PHE313     -0.0003
     84  CE2      187.3920  142.8840  167.3790 C.ar  313  PHE313     -0.0003
     85  CZ       187.2180  144.2060  167.6920 C.ar  313  PHE313     -0.0000
     86  N        191.0710  140.8030  168.3520 N.am  314  ILE314     -0.1980
     87  CA       191.2160  139.7390  169.3270 C.3   314  ILE314      0.1595
     88  C        192.5910  139.1870  169.0280 C.2   314  ILE314      0.2287
     89  O        192.7200  138.2560  168.2260 O.2   314  ILE314     -0.2864
     90  CB       190.1290  138.6670  169.1760 C.3   314  ILE314      0.0276
     91  CG1      188.7500  139.3190  169.2810 C.3   314  ILE314      0.0022
     92  CG2      190.2730  137.5830  170.2390 C.3   314  ILE314      0.0022
     93  CD1      187.6150  138.4120  168.8960 C.3   314  ILE314      0.0001
     94  N        191.6230  143.4200  172.2130 N.3   317  THR317     -0.1218
     95  CA       190.3910  143.5380  172.9740 C.3   317  THR317      0.1862
     96  C        190.3230  142.5100  174.0900 C.2   317  THR317      0.2287
     97  O        189.5860  142.6960  175.0600 O.2   317  THR317     -0.2866
     98  CB       189.1880  143.3930  172.0540 C.3   317  THR317      0.1770
     99  OG1      189.1840  142.0840  171.4800 O.3   317  THR317     -0.2211
    100  CG2      189.2710  144.4220  170.9510 C.3   317  THR317      0.0375
    101  N        189.8380  143.3810  177.8470 N.3   321  LEU321     -0.1245
    102  CA       188.8320  142.7020  178.6530 C.3   321  LEU321      0.1561
    103  C        189.3880  142.2170  179.9760 C.2   321  LEU321      0.2260
    104  O        188.6860  142.2770  180.9810 O.2   321  LEU321     -0.2867
    105  CB       188.2170  141.5240  177.9060 C.3   321  LEU321      0.0270
    106  CG       187.0840  141.8660  176.9680 C.3   321  LEU321      0.0019
    107  CD1      186.6380  140.6010  176.2810 C.3   321  LEU321      0.0001
    108  CD2      185.9740  142.4670  177.7890 C.3   321  LEU321      0.0001
    109  N        189.3410  144.9120  182.2140 N.3   324  LEU324     -0.1231
    110  CA       188.0070  145.2110  182.7390 C.3   324  LEU324      0.1693
    111  C        187.5270  144.1730  183.7530 C.2   324  LEU324      0.2592
    112  O        186.8150  144.5170  184.7020 O.2   324  LEU324     -0.2718
    113  CB       187.0070  145.3630  181.5970 C.3   324  LEU324      0.0284
    114  CG       186.7590  146.8170  181.1990 C.3   324  LEU324      0.0019
    115  CD1      187.9640  147.5200  180.6270 C.3   324  LEU324      0.0001
    116  CD2      185.6550  146.8270  180.1900 C.3   324  LEU324      0.0001
    117  N        187.8780  142.8950  183.5590 N.am  325  PHE325     -0.1976
    118  CA       187.6440  141.8980  184.6020 C.3   325  PHE325      0.1639
    119  C        188.4440  142.2210  185.8460 C.2   325  PHE325      0.2290
    120  O        187.9960  141.9520  186.9650 O.2   325  PHE325     -0.2864
    121  CB       188.0200  140.4850  184.1430 C.3   325  PHE325      0.0560
    122  CG       187.0610  139.8650  183.1740 C.ar  325  PHE325     -0.0200
    123  CD1      185.8050  139.4720  183.5880 C.ar  325  PHE325     -0.0042
    124  CD2      187.4560  139.5700  181.8810 C.ar  325  PHE325     -0.0042
    125  CE1      184.9290  138.8710  182.7020 C.ar  325  PHE325     -0.0003
    126  CE2      186.5860  138.9760  180.9860 C.ar  325  PHE325     -0.0003
    127  CZ       185.3240  138.6220  181.4000 C.ar  325  PHE325     -0.0000
    128  N        186.5880  144.8060  187.5860 N.3   328  LEU328     -0.1245
    129  CA       185.5490  144.1380  188.3650 C.3   328  LEU328      0.1561
    130  C        186.1190  143.5970  189.6620 C.2   328  LEU328      0.2260
    131  O        185.4900  143.7040  190.7190 O.2   328  LEU328     -0.2867
    132  CB       184.9340  142.9790  187.5780 C.3   328  LEU328      0.0270
    133  CG       184.0450  143.1070  186.3450 C.3   328  LEU328      0.0019
    134  CD1      183.9530  141.7470  185.7030 C.3   328  LEU328      0.0001
    135  CD2      182.6670  143.5420  186.7190 C.3   328  LEU328      0.0001
    136  N        184.9990  151.4330  180.8360 N.3   430  SER430     -0.1217
    137  CA       184.1490  150.3130  180.4610 C.3   430  SER430      0.1889
    138  C        183.0130  150.7040  179.5310 C.2   430  SER430      0.2288
    139  O        182.2230  149.8350  179.1570 O.2   430  SER430     -0.2866
    140  CB       183.6090  149.6370  181.7120 C.3   430  SER430      0.2089
    141  OG       182.9690  150.5860  182.5190 O.3   430  SER430     -0.2183
    142  N        183.7130  149.4090  175.3540 N.3   433  LEU433     -0.1245
    143  CA       183.3240  148.1800  174.6820 C.3   433  LEU433      0.1561
    144  C        182.2400  148.4140  173.6440 C.2   433  LEU433      0.2260
    145  O        182.0490  147.5700  172.7650 O.2   433  LEU433     -0.2867
    146  CB       182.8370  147.1550  175.6980 C.3   433  LEU433      0.0270
    147  CG       183.8130  146.7640  176.8000 C.3   433  LEU433      0.0019
    148  CD1      183.1370  145.7640  177.7150 C.3   433  LEU433      0.0001
    149  CD2      185.1030  146.2120  176.2390 C.3   433  LEU433      0.0001
    150  N        183.7180  148.5950  170.2750 N.3   436  LEU436     -0.1231
    151  CA       184.1270  147.3110  169.7300 C.3   436  LEU436      0.1693
    152  C        183.0350  146.6490  168.9090 C.2   436  LEU436      0.2592
    153  O        183.2140  145.5100  168.4730 O.2   436  LEU436     -0.2718
    154  CB       184.5460  146.3740  170.8670 C.3   436  LEU436      0.0284
    155  CG       185.9850  146.3410  171.3810 C.3   436  LEU436      0.0019
    156  CD1      186.4730  147.6690  171.9190 C.3   436  LEU436      0.0001
    157  CD2      186.0250  145.3170  172.4920 C.3   436  LEU436      0.0001
    158  N        181.9140  147.3310  168.6930 N.am  437  PHE437     -0.1976
    159  CA       180.7870  146.7460  167.9880 C.3   437  PHE437      0.1639
    160  C        180.9120  146.8150  166.4840 C.2   437  PHE437      0.2290
    161  O        180.2820  146.0060  165.7980 O.2   437  PHE437     -0.2864
    162  CB       179.4970  147.4400  168.3930 C.3   437  PHE437      0.0560
    163  CG       178.9620  146.9910  169.7020 C.ar  437  PHE437     -0.0200
    164  CD1      179.3300  145.7700  170.2280 C.ar  437  PHE437     -0.0042
    165  CD2      178.0980  147.7930  170.4180 C.ar  437  PHE437     -0.0042
    166  CE1      178.8390  145.3620  171.4300 C.ar  437  PHE437     -0.0003
    167  CE2      177.6150  147.3790  171.6230 C.ar  437  PHE437     -0.0003
    168  CZ       177.9790  146.1630  172.1200 C.ar  437  PHE437     -0.0000
    169  N        183.1450  145.8680  164.5330 N.3   439  ALA439     -0.1231
    170  CA       183.6360  144.6520  163.9110 C.3   439  ALA439      0.1694
    171  C        182.5210  143.6430  163.7040 C.2   439  ALA439      0.2592
    172  O        182.6090  142.8080  162.7970 O.2   439  ALA439     -0.2718
    173  CB       184.7480  144.0410  164.7570 C.3   439  ALA439      0.0304
    174  N        181.4690  143.7050  164.5130 N.am  440  ASN440     -0.1960
    175  CA       180.3950  142.7310  164.4030 C.3   440  ASN440      0.1819
    176  C        179.3940  143.2080  163.3600 C.2   440  ASN440      0.2622
    177  O        179.1770  144.4080  163.1900 O.2   440  ASN440     -0.2715
    178  CB       179.7150  142.5370  165.7500 C.3   440  ASN440      0.1195
    179  CG       178.9150  141.2630  165.8140 C.2   440  ASN440      0.2630
    180  OD1      178.8160  140.5330  164.8370 O.2   440  ASN440     -0.2716
    181  ND2      178.3610  140.9690  166.9810 N.am  440  ASN440     -0.0877
    182  N        178.7930  142.2630  162.6410 N.am  441  SER441     -0.1950
    183  CA       177.9420  142.6350  161.5160 C.3   441  SER441      0.1924
    184  C        176.5160  142.9090  161.9680 C.2   441  SER441      0.2314
    185  O        175.7290  143.5150  161.2350 O.2   441  SER441     -0.2863
    186  CB       177.9660  141.5360  160.4600 C.3   441  SER441      0.2116
    187  OG       177.3290  140.3670  160.9350 O.3   441  SER441     -0.2180
    188  N        175.6970  143.9380  165.5080 N.3   443  LEU443     -0.1245
    189  CA       175.7870  145.0280  166.4640 C.3   443  LEU443      0.1561
    190  C        176.4950  146.2420  165.8970 C.2   443  LEU443      0.2260
    191  O        176.5400  147.2820  166.5530 O.2   443  LEU443     -0.2867
    192  CB       176.5200  144.5550  167.7160 C.3   443  LEU443      0.0270
    193  CG       175.8520  143.3780  168.4200 C.3   443  LEU443      0.0019
    194  CD1      176.7140  142.8960  169.5630 C.3   443  LEU443      0.0001
    195  CD2      174.4900  143.7780  168.9100 C.3   443  LEU443      0.0001
    196  N        189.3480  148.1050  161.0540 N.3   584  TRP584     -0.1241
    197  CA       190.2100  147.1290  160.4020 C.3   584  TRP584      0.1605
    198  C        191.5480  147.7310  160.0380 C.2   584  TRP584      0.2264
    199  O        192.5980  147.1370  160.2860 O.2   584  TRP584     -0.2867
    200  CB       189.5660  146.5950  159.1300 C.3   584  TRP584      0.0550
    201  CG       188.5580  145.5580  159.3220 C.ar  584  TRP584      0.0003
    202  CD1      188.1190  145.0570  160.4950 C.ar  584  TRP584      0.0946
    203  CD2      187.9180  144.8060  158.2970 C.ar  584  TRP584      0.0152
    204  NE1      187.2010  144.0670  160.2710 N.ar  584  TRP584     -0.2442
    205  CE2      187.0670  143.8910  158.9220 C.ar  584  TRP584      0.0810
    206  CE3      187.9680  144.8360  156.9080 C.ar  584  TRP584      0.0012
    207  CZ2      186.2820  143.0070  158.2120 C.ar  584  TRP584      0.0191
    208  CZ3      187.1810  143.9750  156.2070 C.ar  584  TRP584      0.0001
    209  CH2      186.3500  143.0690  156.8540 C.ar  584  TRP584      0.0015
@<TRIPOS>BOND
     1     1     2    1
     2   208   209   ar
     3   208   206   ar
     4    22    24   ar
     5    22    20   ar
     6   209   207   ar
     7    19    16    1
     8    19    20    1
     9   206   203   ar
    10    27    28    1
    11    17    18    2
    12    17    16    1
    13    15    16    1
    14    15     3   am
    15    24    25   ar
    16    20    21   ar
    17     2     5    1
    18     2     3    1
    19     5     6    1
    20     3     4    2
    21   207   205   ar
    22   203   205   ar
    23   203   201   ar
    24    29    28    1
    25    29    30    2
    26    28    31    1
    27    25    26    1
    28    25    23   ar
    29    21    23   ar
    30   205   204   ar
    31    31    32    1
    32   200   201    1
    33   200   197    1
    34     6     7   ar
    35     6     8   ar
    36   201   202   ar
    37     7     9   ar
    38   198   199    2
    39   198   197    1
    40   204   202   ar
    41     8    11   ar
    42     8    10   ar
    43    49    48    1
    44   197   196    1
    45   186   187    1
    46   186   183    1
    47    37    34   ar
    48    37    39   ar
    49    32    34   ar
    50    32    33   ar
    51    11    13   ar
    52     9    10   ar
    53    34    36   ar
    54    48    47    1
    55   185   184    2
    56    39    40   ar
    57    10    12   ar
    58   183   184    1
    59   183   182    1
    60    33    35   ar
    61    13    14   ar
    62    64    65    1
    63    68    69    1
    64    68    65    1
    65    36    35   ar
    66    36    38   ar
    67    47    46    1
    68    12    14   ar
    69   182   176   am
    70    40    38   ar
    71   172   171    2
    72    69    70   ar
    73    69    71   ar
    74    65    66    1
    75   177   176    2
    76    70    72   ar
    77    71    73   ar
    78    46    45    1
    79   176   175    1
    80   171   170    1
    81   171   174   am
    82   170   169    1
    83   170   173    1
    84    72    74   ar
    85    73    74   ar
    86    66    67    2
    87   175   174    1
    88   175   178    1
    89   180   179    2
    90    45    42    1
    91   188   189    1
    92    42    41    1
    93    42    43    1
    94   178   179    1
    95   161   160    2
    96   179   181   am
    97   190   189    1
    98   190   191    2
    99    79    80    1
   100    79    76    1
   101   189   192    1
   102   160   159    1
   103    80    82   ar
   104    80    81   ar
   105    75    76    1
   106    82    84   ar
   107    81    83   ar
   108    43    44    2
   109    43    50   am
   110    63    62    1
   111    76    77    1
   112    84    85   ar
   113    83    85   ar
   114   192   193    1
   115    50    51    1
   116   159   162    1
   117   159   158    1
   118    89    88    2
   119    86    77   am
   120    86    87    1
   121   162   163    1
   122   193   195    1
   123   193   194    1
   124   153   152    2
   125    77    78    2
   126   158   152   am
   127    58    59    1
   128    93    91    1
   129   152   151    1
   130    62    59    1
   131    88    87    1
   132    90    91    1
   133    90    87    1
   134    90    92    1
   135    59    60    1
   136    51    54    1
   137    51    52    1
   138    55    56    1
   139    55    54    1
   140   163   164   ar
   141   163   165   ar
   142   151   150    1
   143   151   154    1
   144    56    57    1
   145    52    53    2
   146   164   166   ar
   147   165   167   ar
   148    60    61    2
   149   154   155    1
   150   100    98    1
   151   155   156    1
   152   155   157    1
   153   166   168   ar
   154    99    98    1
   155   167   168   ar
   156    98    95    1
   157    94    95    1
   158   145   144    2
   159    95    96    1
   160   144   143    1
   161    96    97    2
   162   143   142    1
   163   143   146    1
   164   146   147    1
   165   149   147    1
   166   107   106    1
   167   147   148    1
   168   106   108    1
   169   106   105    1
   170   101   102    1
   171   105   102    1
   172   102   103    1
   173   139   138    2
   174   138   137    1
   175   103   104    2
   176   116   114    1
   177   137   136    1
   178   137   140    1
   179   115   114    1
   180   126   127   ar
   181   126   124   ar
   182   114   113    1
   183   127   125   ar
   184   113   110    1
   185   140   141    1
   186   124   122   ar
   187   109   110    1
   188   125   123   ar
   189   110   111    1
   190   122   123   ar
   191   122   121    1
   192   117   111   am
   193   117   118    1
   194   111   112    2
   195   121   118    1
   196   118   119    1
   197   134   133    1
   198   119   120    2
   199   133   135    1
   200   133   132    1
   201   132   129    1
   202   128   129    1
   203   129   130    1
   204   130   131    2
