@<TRIPOS>MOLECULE
tmp/5z96A02.pdb
 94 87 0 0 0
SMALL
GASTEIGER

@<TRIPOS>ATOM
      1  N        168.3770  173.6120  174.3520 N.3   463  ILE463     -0.1245
      2  CA       167.0550  174.1730  174.6090 C.3   463  ILE463      0.1561
      3  C        166.5680  173.7660  175.9830 C.2   463  ILE463      0.2260
      4  O        166.0120  174.5810  176.7360 O.2   463  ILE463     -0.2867
      5  CB       166.0810  173.7020  173.5230 C.3   463  ILE463      0.0252
      6  CG1      166.6030  174.1210  172.1710 C.3   463  ILE463      0.0019
      7  CG2      164.6960  174.2620  173.7410 C.3   463  ILE463      0.0019
      8  CD1      165.8690  173.5300  171.0920 C.3   463  ILE463      0.0001
      9  N        165.5670  175.8330  179.4220 N.3   467  VAL467     -0.1245
     10  CA       164.3500  175.6820  180.2180 C.3   467  VAL467      0.1561
     11  C        164.6960  175.4640  181.6940 C.2   467  VAL467      0.2260
     12  O        164.0050  175.9740  182.5900 O.2   467  VAL467     -0.2867
     13  CB       163.4820  174.5530  179.6320 C.3   467  VAL467      0.0252
     14  CG1      162.2440  174.3040  180.4590 C.3   467  VAL467      0.0019
     15  CG2      163.0690  174.9100  178.2260 C.3   467  VAL467      0.0019
     16  N        151.1070  177.9230  195.9390 N.3   536  PHE536     -0.1241
     17  CA       150.3760  177.5580  194.7320 C.3   536  PHE536      0.1605
     18  C        151.0590  178.0700  193.4730 C.2   536  PHE536      0.2264
     19  O        151.0490  177.3880  192.4440 O.2   536  PHE536     -0.2867
     20  CB       148.9440  178.0690  194.7940 C.3   536  PHE536      0.0534
     21  CG       148.1890  177.8570  193.5270 C.ar  536  PHE536     -0.0203
     22  CD1      147.8280  176.5850  193.1320 C.ar  536  PHE536     -0.0042
     23  CD2      147.8460  178.9300  192.7210 C.ar  536  PHE536     -0.0042
     24  CE1      147.1450  176.3870  191.9550 C.ar  536  PHE536     -0.0003
     25  CE2      147.1540  178.7360  191.5460 C.ar  536  PHE536     -0.0003
     26  CZ       146.8010  177.4640  191.1640 C.ar  536  PHE536     -0.0000
     27  N        154.0400  175.8190  192.9510 N.3   539  ALA539     -0.1231
     28  CA       153.6160  174.5240  192.4380 C.3   539  ALA539      0.1694
     29  C        153.1120  174.5980  191.0060 C.2   539  ALA539      0.2592
     30  O        153.2580  173.6240  190.2660 O.2   539  ALA539     -0.2718
     31  CB       152.5320  173.9310  193.3260 C.3   539  ALA539      0.0304
     32  N        152.5380  175.7250  190.5900 N.am  540  THR540     -0.1953
     33  CA       152.1150  175.8730  189.2030 C.3   540  THR540      0.1897
     34  C        153.3140  176.0510  188.2840 C.2   540  THR540      0.2313
     35  O        153.3260  175.5290  187.1650 O.2   540  THR540     -0.2863
     36  CB       151.1590  177.0570  189.0800 C.3   540  THR540      0.1794
     37  OG1      150.0680  176.8680  189.9820 O.3   540  THR540     -0.2208
     38  CG2      150.5940  177.1610  187.6840 C.3   540  THR540      0.0378
     39  N        154.6150  172.7550  187.8650 N.3   543  GLY543     -0.1210
     40  CA       153.7500  171.9640  187.0040 C.3   543  GLY543      0.1956
     41  C        153.9400  172.2710  185.5330 C.2   543  GLY543      0.2612
     42  O        153.9790  171.3630  184.7020 O.2   543  GLY543     -0.2717
     43  N        154.0550  173.5550  185.1890 N.am  544  THR544     -0.1952
     44  CA       154.3310  173.9120  183.8040 C.3   544  THR544      0.1897
     45  C        155.7400  173.5220  183.4040 C.2   544  THR544      0.2313
     46  O        155.9940  173.2730  182.2210 O.2   544  THR544     -0.2863
     47  CB       154.1340  175.4010  183.5750 C.3   544  THR544      0.1794
     48  OG1      155.0290  176.1260  184.4170 O.3   544  THR544     -0.2208
     49  CG2      152.7260  175.7970  183.8970 C.3   544  THR544      0.0378
     50  N        155.1840  169.9460  182.4690 N.3   547  VAL547     -0.1231
     51  CA       154.4820  169.7870  181.2000 C.3   547  VAL547      0.1692
     52  C        155.3980  170.1210  180.0340 C.2   547  VAL547      0.2591
     53  O        155.4610  169.3770  179.0490 O.2   547  VAL547     -0.2718
     54  CB       153.2060  170.6410  181.1850 C.3   547  VAL547      0.0266
     55  CG1      152.5930  170.6670  179.8090 C.3   547  VAL547      0.0020
     56  CG2      152.2220  170.0680  182.1440 C.3   547  VAL547      0.0020
     57  N        156.1340  171.2300  180.1280 N.am  548  ILE548     -0.1980
     58  CA       157.0320  171.6170  179.0450 C.3   548  ILE548      0.1595
     59  C        158.1810  170.6240  178.9110 C.2   548  ILE548      0.2287
     60  O        158.5540  170.2410  177.7990 O.2   548  ILE548     -0.2864
     61  CB       157.5250  173.0580  179.2600 C.3   548  ILE548      0.0276
     62  CG1      156.3690  174.0330  179.0720 C.3   548  ILE548      0.0022
     63  CG2      158.6290  173.4210  178.3030 C.3   548  ILE548      0.0022
     64  CD1      156.6960  175.4360  179.4720 C.3   548  ILE548      0.0001
     65  N        156.1220  166.4690  178.6900 N.3   551  VAL551     -0.1231
     66  CA       155.0670  166.2130  177.7320 C.3   551  VAL551      0.1692
     67  C        155.3580  166.8740  176.3930 C.2   551  VAL551      0.2592
     68  O        155.2080  166.2470  175.3430 O.2   551  VAL551     -0.2718
     69  CB       153.7090  166.6670  178.3060 C.3   551  VAL551      0.0266
     70  CG1      152.6160  166.5670  177.2870 C.3   551  VAL551      0.0020
     71  CG2      153.3630  165.8150  179.4940 C.3   551  VAL551      0.0020
     72  N        155.8330  168.1110  176.4060 N.am  552  VAL552     -0.1966
     73  CA       156.1330  168.8330  175.1860 C.3   552  VAL552      0.1727
     74  C        157.5170  168.4920  174.6610 C.2   552  VAL552      0.2616
     75  O        157.6420  167.9440  173.5710 O.2   552  VAL552     -0.2715
     76  CB       155.9650  170.3510  175.4030 C.3   552  VAL552      0.0290
     77  CG1      156.4310  171.1270  174.1900 C.3   552  VAL552      0.0023
     78  CG2      154.5160  170.6680  175.7090 C.3   552  VAL552      0.0023
     79  N        158.5710  168.7670  175.4330 N.am  553  LEU553     -0.1977
     80  CA       159.9160  168.6680  174.8720 C.3   553  LEU553      0.1596
     81  C        160.3840  167.2330  174.6950 C.2   553  LEU553      0.2287
     82  O        161.0400  166.9250  173.6990 O.2   553  LEU553     -0.2864
     83  CB       160.9330  169.4230  175.7220 C.3   553  LEU553      0.0297
     84  CG       160.9670  170.9400  175.6030 C.3   553  LEU553      0.0022
     85  CD1      161.9640  171.5060  176.5860 C.3   553  LEU553      0.0001
     86  CD2      161.3340  171.3330  174.1930 C.3   553  LEU553      0.0001
     87  N        158.8560  165.7440  171.6860 N.3   556  MET556     -0.1245
     88  CA       159.4870  166.3580  170.5240 C.3   556  MET556      0.1570
     89  C        160.8680  165.7820  170.2750 C.2   556  MET556      0.2261
     90  O        161.3260  165.7340  169.1290 O.2   556  MET556     -0.2867
     91  CB       159.6040  167.8610  170.7060 C.3   556  MET556      0.0387
     92  CG       158.3340  168.6250  170.5250 C.3   556  MET556      0.0595
     93  SD       158.6320  170.3640  170.8340 S.3   556  MET556     -0.1393
     94  CE       157.0580  171.0810  170.4660 C.3   556  MET556      0.0692
@<TRIPOS>BOND
     1    90    89    2
     2    89    88    1
     3    94    93    1
     4    88    91    1
     5    88    87    1
     6    92    91    1
     7    92    93    1
     8     8     6    1
     9     6     5    1
    10     5     7    1
    11     5     2    1
    12    75    74    2
    13    82    81    2
    14    77    76    1
    15    86    84    1
    16     1     2    1
    17     2     3    1
    18    74    73    1
    19    74    79   am
    20    81    80    1
    21    80    79    1
    22    80    83    1
    23    73    76    1
    24    73    72    1
    25    68    67    2
    26    76    78    1
    27    84    83    1
    28    84    85    1
    29     3     4    2
    30    67    72   am
    31    67    66    1
    32    70    69    1
    33    66    69    1
    34    66    65    1
    35    60    59    2
    36    15    13    1
    37    63    61    1
    38    69    71    1
    39    59    58    1
    40    58    61    1
    41    58    57    1
    42    53    52    2
    43    62    61    1
    44    62    64    1
    45     9    10    1
    46    13    10    1
    47    13    14    1
    48    55    54    1
    49    52    57   am
    50    52    51    1
    51    10    11    1
    52    54    51    1
    53    54    56    1
    54    51    50    1
    55    11    12    2
    56    46    45    2
    57    45    44    1
    58    47    44    1
    59    47    49    1
    60    47    48    1
    61    44    43    1
    62    42    41    2
    63    43    41   am
    64    41    40    1
    65    40    39    1
    66    35    34    2
    67    38    36    1
    68    34    33    1
    69    36    33    1
    70    36    37    1
    71    33    32    1
    72    30    29    2
    73    32    29   am
    74    29    28    1
    75    26    25   ar
    76    26    24   ar
    77    25    23   ar
    78    24    22   ar
    79    28    27    1
    80    28    31    1
    81    19    18    2
    82    23    21   ar
    83    22    21   ar
    84    18    17    1
    85    21    20    1
    86    17    20    1
    87    17    16    1
