@<TRIPOS>MOLECULE
tmp/5z99A00.pdb
 206 204 0 0 0
SMALL
GASTEIGER

@<TRIPOS>ATOM
      1  N          4.6070   41.4580  -10.3800 N.3    13  TYR13      -0.1228
      2  CA         4.8480   40.2040   -9.6770 C.3    13  TYR13       0.1721
      3  C          3.9090   39.1310  -10.1870 C.2    13  TYR13       0.2437
      4  O          2.6820   39.3200  -10.1390 O.2    13  TYR13      -0.2733
      5  CB         4.6350   40.3910   -8.1770 C.3    13  TYR13       0.0547
      6  CG         5.7830   41.0830   -7.4630 C.ar   13  TYR13      -0.0200
      7  CD1        6.8000   40.3480   -6.8510 C.ar   13  TYR13      -0.0009
      8  CD2        5.8370   42.4700   -7.3780 C.ar   13  TYR13      -0.0009
      9  CE1        7.8450   40.9840   -6.1810 C.ar   13  TYR13       0.0417
     10  CE2        6.8810   43.1150   -6.7180 C.ar   13  TYR13       0.0417
     11  CZ         7.8820   42.3640   -6.1280 C.ar   13  TYR13       0.1957
     12  OH         8.9140   43.0060   -5.4730 O.3    13  TYR13      -0.2866
     13  N          4.4200   38.0020  -10.6660 N.am   14  PRO14      -0.2729
     14  CA         3.5390   36.8890  -11.0180 C.3    14  PRO14       0.1401
     15  C          2.7410   36.4430   -9.8080 C.2    14  PRO14       0.2269
     16  O          3.1010   36.7070   -8.6530 O.2    14  PRO14      -0.2865
     17  CB         4.5150   35.7890  -11.4540 C.3    14  PRO14       0.0296
     18  CG         5.7730   36.5060  -11.8240 C.3    14  PRO14       0.0237
     19  CD         5.8410   37.6890  -10.9000 C.3    14  PRO14       0.0939
     20  N          2.1040   34.1450   -7.1450 N.3    16  SER16      -0.1202
     21  CA         2.9660   33.1670   -6.5050 C.3    16  SER16       0.2020
     22  C          2.3230   32.5060   -5.3030 C.2    16  SER16       0.2619
     23  O          2.8550   31.5020   -4.8200 O.2    16  SER16      -0.2717
     24  CB         4.2980   33.8020   -6.0700 C.3    16  SER16       0.2103
     25  OG         4.0770   34.8080   -5.0890 O.3    16  SER16      -0.2182
     26  N          1.2280   33.0620   -4.7890 N.am   17  THR17      -0.1952
     27  CA         0.3680   32.3930   -3.8270 C.3    17  THR17       0.1897
     28  C         -1.0720   32.5980   -4.2660 C.2    17  THR17       0.2313
     29  O         -1.3730   33.4170   -5.1470 O.2    17  THR17      -0.2863
     30  CB         0.5080   32.9710   -2.4080 C.3    17  THR17       0.1794
     31  OG1       -0.0030   34.3080   -2.3790 O.3    17  THR17      -0.2208
     32  CG2        1.9760   32.9780   -1.9480 C.3    17  THR17       0.0378
     33  N          0.7320   35.5370    0.8570 N.3    25  SER25      -0.1202
     34  CA         1.8920   36.4120    1.0160 C.3    25  SER25       0.2020
     35  C          2.4860   36.9030   -0.2990 C.2    25  SER25       0.2619
     36  O          3.3800   37.7560   -0.2670 O.2    25  SER25      -0.2717
     37  CB         3.0050   35.7020    1.7980 C.3    25  SER25       0.2103
     38  OG         3.3620   34.4810    1.1580 O.3    25  SER25      -0.2182
     39  N          2.0320   36.3970   -1.4430 N.am   26  GLY26      -0.1942
     40  CA         2.5680   36.8730   -2.7110 C.3    26  GLY26       0.2014
     41  C          2.2050   38.3300   -2.9470 C.2    26  GLY26       0.2638
     42  O          1.0780   38.7600   -2.6960 O.2    26  GLY26      -0.2714
     43  N          3.1680   39.0870   -3.4790 N.am   27  ALA27      -0.1977
     44  CA         2.9820   40.5310   -3.6220 C.3    27  ALA27       0.1597
     45  C          1.7270   40.8650   -4.4160 C.2    27  ALA27       0.2287
     46  O          0.9480   41.7430   -4.0270 O.2    27  ALA27      -0.2864
     47  CB         4.2130   41.1650   -4.2750 C.3    27  ALA27       0.0319
     48  N         -1.4830   39.9510   -2.4150 N.3    30  MET30      -0.1245
     49  CA        -1.7460   40.9220   -1.3590 C.3    30  MET30       0.1570
     50  C         -2.3050   42.2130   -1.9310 C.2    30  MET30       0.2261
     51  O         -3.2460   42.7920   -1.3700 O.2    30  MET30      -0.2867
     52  CB        -0.4710   41.1940   -0.5770 C.3    30  MET30       0.0387
     53  CG         0.0060   39.9820    0.1720 C.3    30  MET30       0.0595
     54  SD         1.3450   40.4170    1.2860 S.3    30  MET30      -0.1393
     55  CE         2.6060   40.8570    0.0600 C.3    30  MET30       0.0692
     56  N          0.4940   32.2010    7.6680 N.3   103  LEU103     -0.1245
     57  CA         1.7760   32.8870    7.6090 C.3   103  LEU103      0.1561
     58  C          1.7770   34.1950    8.3820 C.2   103  LEU103      0.2260
     59  O          2.7740   34.9250    8.3300 O.2   103  LEU103     -0.2867
     60  CB         2.1900   33.1620    6.1630 C.3   103  LEU103      0.0270
     61  CG         2.7390   31.9800    5.3710 C.3   103  LEU103      0.0019
     62  CD1        1.6270   31.0070    5.0030 C.3   103  LEU103      0.0001
     63  CD2        3.4590   32.4880    4.1360 C.3   103  LEU103      0.0001
     64  N         17.0430   40.0900   -0.0270 N.3   245  PHE245     -0.1241
     65  CA        17.6270   39.4160    1.1240 C.3   245  PHE245      0.1605
     66  C         18.4540   38.2080    0.7040 C.2   245  PHE245      0.2264
     67  O         18.2380   37.6140   -0.3600 O.2   245  PHE245     -0.2867
     68  CB        16.5990   39.0610    2.2290 C.3   245  PHE245      0.0534
     69  CG        15.5220   38.0710    1.8250 C.ar  245  PHE245     -0.0203
     70  CD1       15.8150   36.7230    1.6690 C.ar  245  PHE245     -0.0042
     71  CD2       14.2000   38.4800    1.6640 C.ar  245  PHE245     -0.0042
     72  CE1       14.8170   35.8040    1.3430 C.ar  245  PHE245     -0.0003
     73  CE2       13.1990   37.5650    1.3330 C.ar  245  PHE245     -0.0003
     74  CZ        13.5110   36.2230    1.1780 C.ar  245  PHE245     -0.0000
     75  N         15.0450   33.8130   -7.1340 N.3   329  THR329     -0.1218
     76  CA        13.7680   33.9950   -7.7990 C.3   329  THR329      0.1862
     77  C         13.9800   34.5220   -9.2180 C.2   329  THR329      0.2287
     78  O         15.1010   34.8360   -9.6460 O.2   329  THR329     -0.2866
     79  CB        12.8610   34.9250   -6.9910 C.3   329  THR329      0.1770
     80  OG1       13.5160   36.1810   -6.7820 O.3   329  THR329     -0.2211
     81  CG2       12.5180   34.2970   -5.6460 C.3   329  THR329      0.0375
     82  N         12.4080   37.2740  -10.6450 N.3   331  HIS331     -0.1241
     83  CA        12.2060   38.6970  -10.8930 C.3   331  HIS331      0.1621
     84  C         13.3670   39.2390  -11.7110 C.2   331  HIS331      0.2264
     85  O         14.5310   38.9310  -11.4450 O.2   331  HIS331     -0.2867
     86  CB        12.0950   39.4550   -9.5660 C.3   331  HIS331      0.0745
     87  CG        11.1610   38.8080   -8.5940 C.ar  331  HIS331      0.0817
     88  ND1       11.5380   37.7490   -7.7940 N.ar  331  HIS331     -0.2268
     89  CD2        9.8530   39.0360   -8.3290 C.ar  331  HIS331      0.1154
     90  CE1       10.5070   37.3710   -7.0570 C.ar  331  HIS331      0.1986
     91  NE2        9.4710   38.1270   -7.3690 N.ar  331  HIS331     -0.2212
     92  N          8.8370   32.1900   -7.7120 N.3   360  SER360     -0.1217
     93  CA         8.7480   32.2960   -6.2550 C.3   360  SER360      0.1889
     94  C          7.8740   31.1960   -5.6590 C.2   360  SER360      0.2288
     95  O          8.2230   30.6120   -4.6260 O.2   360  SER360     -0.2866
     96  CB         8.2180   33.6770   -5.8700 C.3   360  SER360      0.2089
     97  OG         8.1960   33.8420   -4.4620 O.3   360  SER360     -0.2183
     98  N          9.4650   28.4680   -2.8370 N.3   364  TYR364     -0.1241
     99  CA         9.0820   28.2260   -1.4510 C.3   364  TYR364      0.1605
    100  C          8.4730   26.8430   -1.2510 C.2   364  TYR364      0.2264
    101  O          8.8690   26.1100   -0.3390 O.2   364  TYR364     -0.2867
    102  CB         8.1720   29.3420   -0.9320 C.3   364  TYR364      0.0534
    103  CG         8.9550   30.6230   -0.7540 C.ar  364  TYR364     -0.0201
    104  CD1        9.7890   30.7900    0.3490 C.ar  364  TYR364     -0.0009
    105  CD2        8.9040   31.6380   -1.6990 C.ar  364  TYR364     -0.0009
    106  CE1       10.5480   31.9440    0.5180 C.ar  364  TYR364      0.0417
    107  CE2        9.6590   32.8020   -1.5460 C.ar  364  TYR364      0.0417
    108  CZ        10.4760   32.9420   -0.4330 C.ar  364  TYR364      0.1957
    109  OH        11.2270   34.0890   -0.2690 O.3   364  TYR364     -0.2866
    110  N         13.3980   38.7190   -3.1220 N.3   379  PRO379     -0.2102
    111  CA        12.9110   40.0110   -2.6350 C.3   379  PRO379      0.1504
    112  C         11.8790   39.8240   -1.5350 C.2   379  PRO379      0.2576
    113  O         11.1700   38.8180   -1.4570 O.2   379  PRO379     -0.2718
    114  CB        12.2400   40.6000   -3.8870 C.3   379  PRO379      0.0282
    115  CG        11.6760   39.3810   -4.5770 C.3   379  PRO379      0.0208
    116  CD        12.6260   38.2330   -4.2800 C.3   379  PRO379      0.0893
    117  N         11.8030   40.8190   -0.6640 N.am  380  GLY380     -0.1943
    118  CA        10.8020   40.7990    0.3880 C.3   380  GLY380      0.2014
    119  C         10.3960   42.2000    0.7720 C.2   380  GLY380      0.2639
    120  O         11.2010   43.1370    0.7230 O.2   380  GLY380     -0.2714
    121  N          9.1220   42.3460    1.1420 N.am  381  ASP381     -0.1957
    122  CA         8.6310   43.6340    1.6160 C.3   381  ASP381      0.1825
    123  C          7.4230   43.4610    2.5210 C.2   381  ASP381      0.2464
    124  O          6.2790   43.6710    2.0970 O.2   381  ASP381     -0.2730
    125  CB         8.2750   44.5700    0.4560 C.3   381  ASP381      0.1450
    126  CG         7.7950   45.9140    0.9450 C.2   381  ASP381      0.3671
    127  OD1        8.0160   46.2170    2.1420 O.co2 381  ASP381     -0.2456
    128  OD2        7.1940   46.6660    0.1520 O.co2 381  ASP381     -0.2456
    129  N          7.6500   43.1260    3.7930 N.am  382  PRO382     -0.2727
    130  CA         6.5480   43.0810    4.7590 C.3   382  PRO382      0.1402
    131  C          5.9770   44.4480    5.1140 C.2   382  PRO382      0.2269
    132  O          5.0070   44.5050    5.8720 O.2   382  PRO382     -0.2865
    133  CB         7.1930   42.4150    5.9850 C.3   382  PRO382      0.0296
    134  CG         8.6760   42.7880    5.8660 C.3   382  PRO382      0.0237
    135  CD         8.9320   42.6960    4.3790 C.3   382  PRO382      0.0939
    136  N          2.1910   45.2920    5.2100 N.3   385  PHE385     -0.1241
    137  CA         1.2910   45.0610    6.3370 C.3   385  PHE385      0.1605
    138  C          1.2480   46.2370    7.2990 C.2   385  PHE385      0.2264
    139  O          0.3220   46.3230    8.1160 O.2   385  PHE385     -0.2867
    140  CB         1.7650   43.8500    7.1500 C.3   385  PHE385      0.0534
    141  CG         1.8920   42.5820    6.3480 C.ar  385  PHE385     -0.0203
    142  CD1        0.7810   41.9850    5.7770 C.ar  385  PHE385     -0.0042
    143  CD2        3.1290   41.9740    6.1980 C.ar  385  PHE385     -0.0042
    144  CE1        0.9110   40.8030    5.0420 C.ar  385  PHE385     -0.0003
    145  CE2        3.2570   40.8000    5.4660 C.ar  385  PHE385     -0.0003
    146  CZ         2.1480   40.2200    4.8970 C.ar  385  PHE385     -0.0000
    147  N          7.8050   39.6470   10.9610 N.3   395  TRP395     -0.1227
    148  CA         7.5470   38.8860    9.7390 C.3   395  TRP395      0.1737
    149  C          8.5570   37.7620    9.5770 C.2   395  TRP395      0.2595
    150  O          8.1860   36.5960    9.3820 O.2   395  TRP395     -0.2718
    151  CB         7.6040   39.8130    8.5250 C.3   395  TRP395      0.0564
    152  CG         7.5810   39.1110    7.1640 C.ar  395  TRP395      0.0003
    153  CD1        8.5150   39.2220    6.1860 C.ar  395  TRP395      0.0946
    154  CD2        6.5790   38.2060    6.6660 C.ar  395  TRP395      0.0152
    155  NE1        8.1450   38.4730    5.0750 N.ar  395  TRP395     -0.2442
    156  CE2        6.9660   37.8330    5.3520 C.ar  395  TRP395      0.0810
    157  CE3        5.3950   37.6780    7.1950 C.ar  395  TRP395      0.0012
    158  CZ2        6.2200   36.9450    4.5700 C.ar  395  TRP395      0.0191
    159  CZ3        4.6400   36.7990    6.4080 C.ar  395  TRP395      0.0001
    160  CH2        5.0700   36.4380    5.1040 C.ar  395  TRP395      0.0015
    161  N          9.8470   38.1010    9.6330 N.am  396  TRP396     -0.1976
    162  CA        10.9100   37.1330    9.4070 C.3   396  TRP396      0.1640
    163  C         11.4500   36.4880   10.6800 C.2   396  TRP396      0.2290
    164  O         12.0450   35.4030   10.5950 O.2   396  TRP396     -0.2864
    165  CB        12.0840   37.7680    8.6360 C.3   396  TRP396      0.0576
    166  CG        11.8190   37.9510    7.1660 C.ar  396  TRP396      0.0006
    167  CD1       11.3490   37.0050    6.3110 C.ar  396  TRP396      0.0946
    168  CD2       12.0340   39.1390    6.3820 C.ar  396  TRP396      0.0152
    169  NE1       11.2600   37.5220    5.0350 N.ar  396  TRP396     -0.2442
    170  CE2       11.6630   38.8330    5.0550 C.ar  396  TRP396      0.0810
    171  CE3       12.5020   40.4290    6.6730 C.ar  396  TRP396      0.0012
    172  CZ2       11.7330   39.7750    4.0160 C.ar  396  TRP396      0.0191
    173  CZ3       12.5680   41.3670    5.6380 C.ar  396  TRP396      0.0001
    174  CH2       12.1850   41.0270    4.3250 C.ar  396  TRP396      0.0015
    175  N          9.1150   31.7270    9.4210 N.3   402  TRP402     -0.1241
    176  CA        10.3860   31.7140    8.7100 C.3   402  TRP402      0.1605
    177  C         11.5170   31.0590    9.5160 C.2   402  TRP402      0.2264
    178  O         12.2590   30.2340    8.9660 O.2   402  TRP402     -0.2867
    179  CB        10.7870   33.1260    8.2490 C.3   402  TRP402      0.0550
    180  CG         9.9190   33.7390    7.1600 C.ar  402  TRP402      0.0003
    181  CD1        8.6720   34.2820    7.2990 C.ar  402  TRP402      0.0946
    182  CD2       10.2680   33.8950    5.7750 C.ar  402  TRP402      0.0152
    183  NE1        8.2170   34.7550    6.0830 N.ar  402  TRP402     -0.2442
    184  CE2        9.1860   34.5340    5.1410 C.ar  402  TRP402      0.0810
    185  CE3       11.4010   33.5640    5.0180 C.ar  402  TRP402      0.0012
    186  CZ2        9.1920   34.8370    3.7760 C.ar  402  TRP402      0.0191
    187  CZ3       11.4160   33.8720    3.6710 C.ar  402  TRP402      0.0001
    188  CH2       10.3160   34.5040    3.0660 C.ar  402  TRP402      0.0015
    189  N         11.6240   27.8080    7.4250 N.3   406  ARG406     -0.1245
    190  CA        12.2680   28.2790    6.2000 C.3   406  ARG406      0.1563
    191  C         13.7790   28.3840    6.3530 C.2   406  ARG406      0.2260
    192  O         14.5010   27.6140    5.7140 O.2   406  ARG406     -0.2867
    193  CB        11.6120   29.5600    5.6810 C.3   406  ARG406      0.0307
    194  CG        10.1700   29.2920    5.2730 C.3   406  ARG406      0.0489
    195  CD         9.4820   30.4780    4.6570 C.3   406  ARG406      0.2205
    196  NE         8.3670   30.0110    3.8380 N.pl3 406  ARG406     -0.0865
    197  CZ         7.4250   30.7970    3.3350 C.cat 406  ARG406      0.5346
    198  NH1        6.4680   30.2730    2.5810 N.pl3 406  ARG406      0.1354
    199  NH2        7.4270   32.0980    3.5980 N.pl3 406  ARG406      0.1354
    200  N          5.3800   47.2040   -2.1840 N.3   475  THR475     -0.1218
    201  CA         4.9670   46.4970   -3.3840 C.3   475  THR475      0.1862
    202  C          3.4640   46.6720   -3.6150 C.2   475  THR475      0.2287
    203  O          2.6980   47.0180   -2.7090 O.2   475  THR475     -0.2866
    204  CB         5.2920   45.0080   -3.2770 C.3   475  THR475      0.1770
    205  OG1        4.5970   44.4460   -2.1510 O.3   475  THR475     -0.2211
    206  CG2        6.8080   44.7800   -3.1330 C.3   475  THR475      0.0375
@<TRIPOS>BOND
     1    18    17    1
     2    18    19    1
     3    84    85    2
     4    84    83    1
     5    17    14    1
     6    14    13    1
     7    14    15    1
     8    19    13    1
     9    83    82    1
    10    83    86    1
    11    13     3   am
    12     1     2    1
    13     3     4    2
    14     3     2    1
    15    15    16    2
    16     2     5    1
    17    78    77    2
    18    86    87    1
    19    77    76    1
    20    87    89   ar
    21    87    88   ar
    22    89    91   ar
    23     5     6    1
    24    76    75    1
    25    76    79    1
    26    88    90   ar
    27    92    93    1
    28     6     8   ar
    29     6     7   ar
    30     8    10   ar
    31    91    90   ar
    32    20    21    1
    33    79    80    1
    34    79    81    1
    35     7     9   ar
    36    10    11   ar
    37    21    24    1
    38    21    22    1
    39    93    96    1
    40    93    94    1
    41     9    11   ar
    42    11    12    1
    43    24    25    1
    44    96    97    1
    45    94    95    2
    46    22    23    2
    47    22    26   am
    48    29    28    2
    49    26    27    1
    50   115   116    1
    51   115   114    1
    52    45    46    2
    53    45    44    1
    54   116   110    1
    55    47    44    1
    56    28    27    1
    57   114   111    1
    58    27    30    1
    59    44    43    1
    60   202   201    1
    61   202   203    2
    62    43    41   am
    63   201   204    1
    64   201   200    1
    65   204   206    1
    66   204   205    1
    67   110   111    1
    68    41    40    1
    69    41    42    2
    70    98    99    1
    71    40    39    1
    72   111   112    1
    73    48    49    1
    74    30    31    1
    75    30    32    1
    76    50    51    2
    77    50    49    1
    78   105   107   ar
    79   105   103   ar
    80   107   108   ar
    81   112   113    2
    82   112   117   am
    83    99   100    1
    84    99   102    1
    85    39    35   am
    86    49    52    1
    87   100   101    2
    88   102   103    1
    89   103   104   ar
    90   117   118    1
    91    52    53    1
    92   108   109    1
    93   108   106   ar
    94    67    66    2
    95    35    36    2
    96    35    34    1
    97    64    65    1
    98    55    54    1
    99   128   126   ar
   100    53    54    1
   101   104   106   ar
   102   118   119    1
   103   125   126    1
   104   125   122    1
   105    66    65    1
   106   120   119    2
   107   119   121   am
   108    33    34    1
   109   126   127   ar
   110    34    37    1
   111    65    68    1
   112   121   122    1
   113    38    37    1
   114    74    73   ar
   115    74    72   ar
   116    73    71   ar
   117    72    70   ar
   118   122   123    1
   119    71    69   ar
   120    70    69   ar
   121    69    68    1
   122   124   123    2
   123   123   129   am
   124   198   197    1
   125   188   187   ar
   126   188   186   ar
   127   197   199    1
   128   197   196    2
   129   187   185   ar
   130   186   184   ar
   131   129   135    1
   132   129   130    1
   133   196   195    1
   134   172   174   ar
   135   172   170   ar
   136    63    61    1
   137   174   173   ar
   138   135   134    1
   139   158   160   ar
   140   158   156   ar
   141   195   194    1
   142   130   131    1
   143   130   133    1
   144   146   144   ar
   145   146   145   ar
   146    62    61    1
   147   185   182   ar
   148   169   170   ar
   149   169   167   ar
   150   144   142   ar
   151   170   168   ar
   152   155   156   ar
   153   155   153   ar
   154   160   159   ar
   155   131   132    2
   156   184   182   ar
   157   184   183   ar
   158   136   137    1
   159   194   193    1
   160   156   154   ar
   161    61    60    1
   162   145   143   ar
   163   173   171   ar
   164   193   190    1
   165   192   191    2
   166   182   180   ar
   167   142   141   ar
   168   134   133    1
   169   183   181   ar
   170    60    57    1
   171   153   152   ar
   172   143   141   ar
   173   190   191    1
   174   190   189    1
   175   167   166   ar
   176   137   140    1
   177   137   138    1
   178   141   140    1
   179   168   171   ar
   180   168   166   ar
   181   159   157   ar
   182   154   152   ar
   183   154   157   ar
   184   180   181   ar
   185   180   179    1
   186   152   151    1
   187   166   165    1
   188   138   139    2
   189    57    56    1
   190    57    58    1
   191   179   176    1
   192    59    58    2
   193   151   148    1
   194   165   162    1
   195   176   175    1
   196   176   177    1
   197   178   177    2
   198   150   149    2
   199   162   161    1
   200   162   163    1
   201   149   161   am
   202   149   148    1
   203   148   147    1
   204   164   163    2
