@<TRIPOS>MOLECULE
tmp/5z9bB01.pdb
 89 79 0 0 0
SMALL
GASTEIGER

@<TRIPOS>ATOM
      1  N          1.2660   -9.7230  -13.2080 N.3    28  VAL28      -0.1245
      2  CA         1.2860  -10.0250  -11.7760 C.3    28  VAL28       0.1561
      3  C          2.3880  -11.0260  -11.4090 C.2    28  VAL28       0.2260
      4  O          3.0590  -10.8870  -10.3820 O.2    28  VAL28      -0.2867
      5  CB        -0.0730  -10.5420  -11.2940 C.3    28  VAL28       0.0252
      6  CG1       -0.0390  -10.8000   -9.7930 C.3    28  VAL28       0.0019
      7  CG2       -1.1870   -9.5300  -11.5770 C.3    28  VAL28       0.0019
      8  N          5.8340   -9.3620  -11.1260 N.3    31  ASN31      -0.1225
      9  CA         5.9910   -8.6620   -9.8680 C.3    31  ASN31       0.1785
     10  C          6.2150   -9.6420   -8.7220 C.2    31  ASN31       0.2597
     11  O          7.1020   -9.4160   -7.8830 O.2    31  ASN31      -0.2718
     12  CB         4.8070   -7.7370   -9.6040 C.3    31  ASN31       0.1169
     13  CG         4.8200   -6.5150  -10.5060 C.2    31  ASN31       0.2627
     14  OD1        5.4070   -5.4930  -10.1670 O.2    31  ASN31      -0.2716
     15  ND2        4.1990   -6.6260  -11.6840 N.am   31  ASN31      -0.0877
     16  N          5.4500  -10.7390   -8.6990 N.am   32  ALA32      -0.1979
     17  CA         5.6100  -11.7520   -7.6520 C.3    32  ALA32       0.1597
     18  C          7.0100  -12.3500   -7.6410 C.2    32  ALA32       0.2287
     19  O          7.5830  -12.5860   -6.5760 O.2    32  ALA32      -0.2864
     20  CB         4.5550  -12.8470   -7.7790 C.3    32  ALA32       0.0319
     21  N          9.4430   -9.8110   -6.0790 N.3    35  GLU35      -0.1245
     22  CA         9.3300   -9.9030   -4.6140 C.3    35  GLU35       0.1567
     23  C          9.9850  -11.1530   -4.0670 C.2    35  GLU35       0.2260
     24  O         10.6350  -11.1030   -3.0260 O.2    35  GLU35      -0.2867
     25  CB         7.8760   -9.9340   -4.1490 C.3    35  GLU35       0.0388
     26  CG         7.1430   -8.6020   -4.1250 C.3    35  GLU35       0.1160
     27  CD         7.8360   -7.5330   -3.3200 C.2    35  GLU35       0.3649
     28  OE1        8.0010   -7.7220   -2.0980 O.co2  35  GLU35      -0.2457
     29  OE2        8.1790   -6.4900   -3.9210 O.co2  35  GLU35      -0.2457
     30  N         -2.2470  -14.8770   -7.2300 N.3    56  VAL56      -0.1245
     31  CA        -0.7990  -15.0740   -7.2080 C.3    56  VAL56       0.1561
     32  C         -0.3230  -14.7070   -5.8110 C.2    56  VAL56       0.2260
     33  O         -0.5190  -13.5770   -5.3790 O.2    56  VAL56      -0.2867
     34  CB        -0.0850  -14.1830   -8.2260 C.3    56  VAL56       0.0252
     35  CG1        1.4050  -14.4880   -8.2220 C.3    56  VAL56       0.0019
     36  CG2       -0.7010  -14.3570   -9.6150 C.3    56  VAL56       0.0019
     37  N          3.0400  -14.6600   -3.1770 N.3    58  ASP58      -0.1239
     38  CA         4.4770  -14.7780   -2.9840 C.3    58  ASP58       0.1674
     39  C          4.7900  -14.6930   -1.5050 C.2    58  ASP58       0.2266
     40  O          4.0090  -14.1550   -0.7220 O.2    58  ASP58      -0.2867
     41  CB         5.2510  -13.7360   -3.7960 C.3    58  ASP58       0.1410
     42  CG         5.1740  -12.3180   -3.2200 C.2    58  ASP58       0.3668
     43  OD1        5.6360  -12.0690   -2.0800 O.co2  58  ASP58      -0.2456
     44  OD2        4.7100  -11.4220   -3.9450 O.co2  58  ASP58      -0.2456
     45  N          4.7890   -5.8920   -0.0110 N.3    63  ILE63      -0.1245
     46  CA         4.9250   -4.5430   -0.5440 C.3    63  ILE63       0.1561
     47  C          4.6780   -3.5020    0.5480 C.2    63  ILE63       0.2260
     48  O          3.9480   -3.7780    1.5090 O.2    63  ILE63      -0.2867
     49  CB         4.1050   -4.3180   -1.8290 C.3    63  ILE63       0.0252
     50  CG1        2.6090   -4.3010   -1.5570 C.3    63  ILE63       0.0019
     51  CG2        4.5280   -5.3590   -2.8770 C.3    63  ILE63       0.0019
     52  CD1        1.7570   -4.5480   -2.7920 C.3    63  ILE63       0.0001
     53  N          0.9290    2.0420   -5.6130 N.3    79  ILE79      -0.1231
     54  CA         1.3250    1.0050   -6.5660 C.3    79  ILE79       0.1692
     55  C          0.1460    0.4930   -7.4090 C.2    79  ILE79       0.2591
     56  O          0.2890    0.2390   -8.6090 O.2    79  ILE79      -0.2718
     57  CB         2.0490   -0.1430   -5.8440 C.3    79  ILE79       0.0266
     58  CG1        3.4280    0.3310   -5.3650 C.3    79  ILE79       0.0019
     59  CG2        2.2330   -1.3400   -6.7600 C.3    79  ILE79       0.0020
     60  CD1        4.1160   -0.6250   -4.4010 C.3    79  ILE79       0.0001
     61  N         -1.0130    0.3530   -6.7730 N.am   80  MET80      -0.1979
     62  CA        -2.1810   -0.2020   -7.4160 C.3    80  MET80       0.1605
     63  C         -2.9690    0.7610   -8.2740 C.2    80  MET80       0.2287
     64  O         -3.7780    0.3050   -9.0840 O.2    80  MET80      -0.2864
     65  CB        -3.1140   -0.7940   -6.3590 C.3    80  MET80       0.0413
     66  CG        -2.5370   -1.9750   -5.5930 C.3    80  MET80       0.0598
     67  SD        -2.0180   -3.4610   -6.5030 S.3    80  MET80      -0.1393
     68  CE        -3.4680   -3.7000   -7.4880 C.3    80  MET80       0.0692
     69  N          1.2210   -3.2490  -12.4630 N.3    87  VAL87      -0.1245
     70  CA         0.0660   -3.8470  -11.8260 C.3    87  VAL87       0.1561
     71  C         -1.1570   -2.9280  -11.7940 C.2    87  VAL87       0.2260
     72  O         -2.2700   -3.4120  -11.7450 O.2    87  VAL87      -0.2867
     73  CB         0.4390   -4.3730  -10.4280 C.3    87  VAL87       0.0252
     74  CG1        0.7880   -3.2440   -9.4840 C.3    87  VAL87       0.0019
     75  CG2       -0.6910   -5.1910   -9.8520 C.3    87  VAL87       0.0019
     76  N          2.9740  -11.1040   -0.2710 N.3   132  THR132     -0.1218
     77  CA         1.9480  -10.3570   -0.9910 C.3   132  THR132      0.1862
     78  C          1.1400  -11.3100   -1.8360 C.2   132  THR132      0.2287
     79  O          1.6990  -12.1260   -2.5710 O.2   132  THR132     -0.2866
     80  CB         2.5900   -9.3260   -1.9150 C.3   132  THR132      0.1770
     81  OG1        3.4050   -8.4630   -1.1330 O.3   132  THR132     -0.2211
     82  CG2        1.5360   -8.4980   -2.6480 C.3   132  THR132      0.0375
     83  N         -2.2140  -11.1920   -4.5100 N.3   134  VAL134     -0.1245
     84  CA        -3.1640  -10.4750   -5.3280 C.3   134  VAL134      0.1561
     85  C         -4.0790  -11.4840   -5.9460 C.2   134  VAL134      0.2260
     86  O         -3.6080  -12.5000   -6.4560 O.2   134  VAL134     -0.2867
     87  CB        -2.4390   -9.6820   -6.4250 C.3   134  VAL134      0.0252
     88  CG1       -3.4050   -9.1740   -7.4880 C.3   134  VAL134      0.0019
     89  CG2       -1.6730   -8.5260   -5.7950 C.3   134  VAL134      0.0019
@<TRIPOS>BOND
     1     1     2    1
     2    69    70    1
     3    70    71    1
     4    70    73    1
     5    71    72    2
     6     2     3    1
     7     2     5    1
     8    15    13   am
     9     7     5    1
    10     3     4    2
    11     5     6    1
    12     8     9    1
    13    13    14    2
    14    13    12    1
    15    73    75    1
    16    73    74    1
    17     9    12    1
    18     9    10    1
    19    36    34    1
    20    64    63    2
    21    10    16   am
    22    10    11    2
    23    16    17    1
    24    56    55    2
    25    63    62    1
    26    34    35    1
    27    34    31    1
    28    20    17    1
    29    17    18    1
    30    18    19    2
    31    68    67    1
    32    88    87    1
    33    62    61    1
    34    62    65    1
    35    55    61   am
    36    55    54    1
    37    30    31    1
    38    31    32    1
    39    59    57    1
    40    54    57    1
    41    54    53    1
    42    67    66    1
    43    86    85    2
    44    87    89    1
    45    87    84    1
    46    65    66    1
    47    21    22    1
    48    85    84    1
    49    57    58    1
    50    32    33    2
    51    58    60    1
    52    84    83    1
    53    22    25    1
    54    22    23    1
    55    25    26    1
    56    26    27    1
    57    23    24    2
    58    44    42   ar
    59    29    27   ar
    60    41    42    1
    61    41    38    1
    62    27    28   ar
    63    42    43   ar
    64    37    38    1
    65    38    39    1
    66    51    49    1
    67    52    50    1
    68    82    80    1
    69    79    78    2
    70    80    81    1
    71    80    77    1
    72    78    77    1
    73    49    50    1
    74    49    46    1
    75    39    40    2
    76    77    76    1
    77    46    45    1
    78    46    47    1
    79    47    48    2
