@<TRIPOS>MOLECULE
tmp/5z9cA00.pdb
 114 110 0 0 0
SMALL
GASTEIGER

@<TRIPOS>ATOM
      1  N          7.6890    5.6480   -6.2450 N.3    29  TRP29      -0.1228
      2  CA         8.4710    4.8900   -7.2480 C.3    29  TRP29       0.1722
      3  C          8.8170    3.4460   -6.7990 C.2    29  TRP29       0.2437
      4  O          8.7550    2.5300   -7.6210 O.2    29  TRP29      -0.2733
      5  CB         9.7640    5.6440   -7.6820 C.3    29  TRP29       0.0563
      6  CG        10.7750    5.7980   -6.5860 C.ar   29  TRP29       0.0003
      7  CD1       10.9420    6.8780   -5.7720 C.ar   29  TRP29       0.0946
      8  CD2       11.7340    4.8160   -6.1540 C.ar   29  TRP29       0.0152
      9  NE1       11.9250    6.6180   -4.8520 N.ar   29  TRP29      -0.2442
     10  CE2       12.4160    5.3590   -5.0520 C.ar   29  TRP29       0.0810
     11  CE3       12.0620    3.5240   -6.5790 C.ar   29  TRP29       0.0012
     12  CZ2       13.3990    4.6530   -4.3590 C.ar   29  TRP29       0.0191
     13  CZ3       13.0350    2.8250   -5.8930 C.ar   29  TRP29       0.0001
     14  CH2       13.6870    3.3890   -4.7910 C.ar   29  TRP29       0.0015
     15  N          9.1750    3.1900   -5.5080 N.am   30  PRO30      -0.2729
     16  CA         9.5540    1.8540   -5.0640 C.3    30  PRO30       0.1401
     17  C          8.3570    1.0610   -4.6030 C.2    30  PRO30       0.2269
     18  O          8.4780   -0.0690   -4.1270 O.2    30  PRO30      -0.2865
     19  CB        10.4740    2.1270   -3.8920 C.3    30  PRO30       0.0296
     20  CG        10.0200    3.4260   -3.3310 C.3    30  PRO30       0.0237
     21  CD         9.2380    4.1420   -4.3850 C.3    30  PRO30       0.0939
     22  N          9.9890   -3.8950   -5.5000 N.3    35  VAL35      -0.1245
     23  CA        11.4270   -3.8140   -5.4290 C.3    35  VAL35       0.1561
     24  C         12.0470   -5.1160   -5.9060 C.2    35  VAL35       0.2260
     25  O         11.6990   -6.2110   -5.4420 O.2    35  VAL35      -0.2867
     26  CB        11.9230   -3.4630   -4.0000 C.3    35  VAL35       0.0252
     27  CG1       10.7920   -2.9400   -3.1460 C.3    35  VAL35       0.0019
     28  CG2       12.6140   -4.6290   -3.3170 C.3    35  VAL35       0.0019
     29  N         18.0900   -3.0100   -6.0600 N.3    40  LEU40      -0.1245
     30  CA        18.4730   -2.0520   -5.0300 C.3    40  LEU40       0.1561
     31  C         19.5970   -2.6120   -4.1550 C.2    40  LEU40       0.2260
     32  O         20.0920   -1.9370   -3.2490 O.2    40  LEU40      -0.2867
     33  CB        17.2630   -1.6910   -4.1590 C.3    40  LEU40       0.0270
     34  CG        16.0150   -1.2600   -4.9250 C.3    40  LEU40       0.0019
     35  CD1       14.9460   -2.3360   -4.8770 C.3    40  LEU40       0.0001
     36  CD2       15.4850    0.0560   -4.3810 C.3    40  LEU40       0.0001
     37  N         19.5590   -5.7350   -2.1710 N.3    42  LEU42      -0.1245
     38  CA        18.8880   -6.0200   -0.9210 C.3    42  LEU42       0.1561
     39  C         18.9910   -7.5060   -0.6250 C.2    42  LEU42       0.2260
     40  O         18.0510   -8.2720   -0.8610 O.2    42  LEU42      -0.2867
     41  CB        17.4220   -5.6120   -1.0350 C.3    42  LEU42       0.0270
     42  CG        17.1810   -4.2960   -1.7700 C.3    42  LEU42       0.0019
     43  CD1       15.7120   -4.1030   -2.0450 C.3    42  LEU42       0.0001
     44  CD2       17.7150   -3.1390   -0.9600 C.3    42  LEU42       0.0001
     45  N         16.3460   -8.6360    1.7860 N.3    45  TYR45      -0.1241
     46  CA        15.0350   -8.0000    1.6770 C.3    45  TYR45       0.1605
     47  C         13.9470   -9.0410    1.8090 C.2    45  TYR45       0.2264
     48  O         13.0970   -8.9490    2.6790 O.2    45  TYR45      -0.2867
     49  CB        14.8810   -7.2540    0.3520 C.3    45  TYR45       0.0534
     50  CG        13.9370   -6.0700    0.4190 C.ar   45  TYR45      -0.0201
     51  CD1       12.7000   -6.0750   -0.2160 C.ar   45  TYR45      -0.0009
     52  CD2       14.3020   -4.9310    1.1110 C.ar   45  TYR45      -0.0009
     53  CE1       11.8650   -4.9710   -0.1550 C.ar   45  TYR45       0.0417
     54  CE2       13.4700   -3.8340    1.1760 C.ar   45  TYR45       0.0417
     55  CZ        12.2570   -3.8570    0.5430 C.ar   45  TYR45       0.1957
     56  OH        11.4390   -2.7530    0.5990 O.3    45  TYR45      -0.2866
     57  N          9.0740   -1.2570    4.2800 N.3    84  CYS84      -0.1235
     58  CA        10.0630   -0.2020    4.1290 C.3    84  CYS84       0.1677
     59  C         10.6330    0.2150    5.4890 C.2    84  CYS84       0.2270
     60  O         11.7740    0.6620    5.5810 O.2    84  CYS84      -0.2867
     61  CB         9.4160    0.9680    3.4070 C.3    84  CYS84       0.0956
     62  SG         8.9540    0.5500    1.7170 S.3    84  CYS84      -0.0801
     63  N         12.7600   -3.2370    6.7470 N.3    87  TYR87      -0.1227
     64  CA        14.0840   -3.3260    6.1860 C.3    87  TYR87       0.1736
     65  C         14.8930   -2.0850    6.5190 C.2    87  TYR87       0.2595
     66  O         15.9260   -2.1620    7.1850 O.2    87  TYR87      -0.2718
     67  CB        13.9990   -3.4780    4.6860 C.3    87  TYR87       0.0548
     68  CG        15.1830   -4.2060    4.1580 C.ar   87  TYR87      -0.0200
     69  CD1       15.2480   -5.5620    4.3150 C.ar   87  TYR87      -0.0009
     70  CD2       16.2410   -3.5540    3.5460 C.ar   87  TYR87      -0.0009
     71  CE1       16.3290   -6.2680    3.8800 C.ar   87  TYR87       0.0417
     72  CE2       17.3360   -4.2590    3.0900 C.ar   87  TYR87       0.0417
     73  CZ        17.3750   -5.6260    3.2600 C.ar   87  TYR87       0.1957
     74  OH        18.4590   -6.3590    2.8180 O.3    87  TYR87      -0.2866
     75  N         14.4040   -0.9410    6.0610 N.am   88  ASN88      -0.1974
     76  CA        15.1070    0.3150    6.2310 C.3    88  ASN88       0.1688
     77  C         14.7260    0.9540    7.5470 C.2    88  ASN88       0.2292
     78  O         13.5660    1.2950    7.7720 O.2    88  ASN88      -0.2864
     79  CB        14.8280    1.2390    5.0640 C.3    88  ASN88       0.1181
     80  CG        15.4070    0.6850    3.7780 C.2    88  ASN88       0.2629
     81  OD1       14.7400   -0.0550    3.0550 O.2    88  ASN88      -0.2716
     82  ND2       16.6510    1.0350    3.4840 N.am   88  ASN88      -0.0877
     83  N         15.1870    6.1910    7.1410 N.3    92  ASP92      -0.1225
     84  CA        15.7910    5.9780    5.8410 C.3    92  ASP92       0.1805
     85  C         14.9350    6.6540    4.8120 C.2    92  ASP92       0.2598
     86  O         13.7290    6.7490    5.0060 O.2    92  ASP92      -0.2718
     87  CB        15.9490    4.4910    5.5160 C.3    92  ASP92       0.1424
     88  CG        16.7930    4.2460    4.2800 C.2    92  ASP92       0.3668
     89  OD1       17.9520    3.8030    4.4290 O.co2  92  ASP92      -0.2456
     90  OD2       16.3050    4.4880    3.1580 O.co2  92  ASP92      -0.2456
     91  N         15.5440    7.1560    3.7530 N.am   93  ASP93      -0.1960
     92  CA        14.8050    7.8970    2.7480 C.3    93  ASP93       0.1840
     93  C         13.5530    7.1350    2.3430 C.2    93  ASP93       0.2621
     94  O         12.4770    7.6840    2.4180 O.2    93  ASP93      -0.2715
     95  CB        15.6760    8.2010    1.5270 C.3    93  ASP93       0.1450
     96  CG        14.9840    9.1260    0.5410 C.2    93  ASP93       0.3671
     97  OD1       14.7450    8.7060   -0.6100 O.co2  93  ASP93      -0.2456
     98  OD2       14.6750   10.2800    0.9140 O.co2  93  ASP93      -0.2456
     99  N         13.6820    5.8500    2.0040 N.am   94  ILE94      -0.1977
    100  CA        12.5230    5.0430    1.5950 C.3    94  ILE94       0.1596
    101  C         11.4560    4.9690    2.6910 C.2    94  ILE94       0.2287
    102  O         10.2670    5.0290    2.3880 O.2    94  ILE94      -0.2864
    103  CB        12.9240    3.6180    1.1640 C.3    94  ILE94       0.0276
    104  CG1       11.6690    2.7970    0.8300 C.3    94  ILE94       0.0022
    105  CG2       13.7560    2.9150    2.2390 C.3    94  ILE94       0.0022
    106  CD1       10.9220    3.3080   -0.3780 C.3    94  ILE94       0.0001
    107  N         10.0100    8.2440    2.7050 N.3    97  MET97      -0.1245
    108  CA         9.1620    8.2540    1.5330 C.3    97  MET97       0.1570
    109  C          7.8380    7.5850    1.8430 C.2    97  MET97       0.2261
    110  O          6.7700    8.1390    1.5800 O.2    97  MET97      -0.2867
    111  CB         9.8700    7.5140    0.3990 C.3    97  MET97       0.0387
    112  CG        11.2110    8.1280    0.0260 C.3    97  MET97       0.0595
    113  SD        12.1110    7.1420   -1.1660 S.3    97  MET97      -0.1393
    114  CE        10.7880    6.8720   -2.3090 C.3    97  MET97       0.0692
@<TRIPOS>BOND
     1     5     2    1
     2     5     6    1
     3     4     3    2
     4     2     3    1
     5     2     1    1
     6     3    15   am
     7     6     8   ar
     8     6     7   ar
     9    11     8   ar
    10    11    13   ar
    11     8    10   ar
    12    29    30    1
    13    24    25    2
    14    24    23    1
    15    13    14   ar
    16     7     9   ar
    17    15    16    1
    18    15    21    1
    19    22    23    1
    20    23    26    1
    21    16    17    1
    22    16    19    1
    23    10     9   ar
    24    10    12   ar
    25    30    33    1
    26    30    31    1
    27    34    35    1
    28    34    36    1
    29    34    33    1
    30    14    12   ar
    31    17    18    2
    32    21    20    1
    33    31    32    2
    34    26    28    1
    35    26    27    1
    36    19    20    1
    37   114   113    1
    38    37    38    1
    39    43    42    1
    40    42    41    1
    41    42    44    1
    42   113   112    1
    43    41    38    1
    44    38    39    1
    45    40    39    2
    46    97    96   ar
    47   106   104    1
    48    51    53   ar
    49    51    50   ar
    50    53    55   ar
    51   112   111    1
    52    49    50    1
    53    49    46    1
    54   111   108    1
    55    50    52   ar
    56    96    98   ar
    57    96    95    1
    58    55    56    1
    59    55    54   ar
    60   104   103    1
    61    52    54   ar
    62   103   100    1
    63   103   105    1
    64    95    92    1
    65   108   109    1
    66   108   107    1
    67   110   109    2
    68   100    99    1
    69   100   101    1
    70    46    45    1
    71    46    47    1
    72    62    61    1
    73    47    48    2
    74    99    93   am
    75    93    94    2
    76    93    92    1
    77   102   101    2
    78    92    91    1
    79    74    73    1
    80    81    80    2
    81    72    73   ar
    82    72    70   ar
    83    90    88   ar
    84    73    71   ar
    85    61    58    1
    86    82    80   am
    87    70    68   ar
    88    91    85   am
    89    80    79    1
    90    71    69   ar
    91    58    57    1
    92    58    59    1
    93    68    69   ar
    94    68    67    1
    95    88    89   ar
    96    88    87    1
    97    67    64    1
    98    85    86    2
    99    85    84    1
   100    79    76    1
   101    59    60    2
   102    87    84    1
   103    84    83    1
   104    75    76    1
   105    75    65   am
   106    64    65    1
   107    64    63    1
   108    76    77    1
   109    65    66    2
   110    77    78    2
