@<TRIPOS>MOLECULE
tmp/5z9eA00.pdb
 124 115 0 0 0
SMALL
GASTEIGER

@<TRIPOS>ATOM
      1  N         26.7090   18.9290   12.9850 N.3    28  VAL28      -0.1245
      2  CA        26.9080   19.0150   14.4420 C.3    28  VAL28       0.1561
      3  C         27.8060   20.2330   14.7270 C.2    28  VAL28       0.2260
      4  O         27.5390   21.0210   15.6330 O.2    28  VAL28      -0.2867
      5  CB        27.5280   17.7400   15.0380 C.3    28  VAL28       0.0252
      6  CG1       27.7280   17.8690   16.5510 C.3    28  VAL28       0.0019
      7  CG2       26.6300   16.5190   14.7820 C.3    28  VAL28       0.0019
      8  N         26.1450   23.6720   14.8670 N.3    31  ASN31      -0.1225
      9  CA        25.4420   23.9260   16.1060 C.3    31  ASN31       0.1785
     10  C         26.4230   24.2370   17.2260 C.2    31  ASN31       0.2597
     11  O         26.1850   25.1470   18.0170 O.2    31  ASN31      -0.2718
     12  CB        24.5410   22.7510   16.4380 C.3    31  ASN31       0.1169
     13  CG        23.3940   22.6340   15.4610 C.2    31  ASN31       0.2627
     14  OD1       23.4070   21.8030   14.5540 O.2    31  ASN31      -0.2716
     15  ND2       22.4250   23.5050   15.6080 N.am   31  ASN31      -0.0877
     16  N         27.5390   23.5150   17.2550 N.am   32  ALA32      -0.1979
     17  CA        28.5830   23.7410   18.2510 C.3    32  ALA32       0.1597
     18  C         29.1910   25.1350   18.1380 C.2    32  ALA32       0.2287
     19  O         29.4690   25.7540   19.1470 O.2    32  ALA32      -0.2864
     20  CB        29.6750   22.7070   18.1370 C.3    32  ALA32       0.0319
     21  N         27.6800   27.8880   16.8830 N.3    34  ASP34      -0.1225
     22  CA        26.6280   28.7840   17.4150 C.3    34  ASP34       0.1805
     23  C         26.6830   28.8530   18.9390 C.2    34  ASP34       0.2597
     24  O         26.5740   29.9310   19.5220 O.2    34  ASP34      -0.2718
     25  CB        25.2050   28.3230   17.0320 C.3    34  ASP34       0.1424
     26  CG        24.8780   28.5170   15.5530 C.2    34  ASP34       0.3668
     27  OD1       25.5800   29.2900   14.8620 O.co2  34  ASP34      -0.2456
     28  OD2       23.8980   27.8850   15.0780 O.co2  34  ASP34      -0.2456
     29  N         26.8280   27.6870   19.5690 N.am   35  GLU35      -0.1979
     30  CA        26.9030   27.5970   21.0270 C.3    35  GLU35       0.1602
     31  C         28.1550   28.2510   21.5870 C.2    35  GLU35       0.2287
     32  O         28.0780   29.0080   22.5570 O.2    35  GLU35      -0.2864
     33  CB        26.8230   26.1350   21.4810 C.3    35  GLU35       0.0415
     34  CG        25.4350   25.5220   21.3220 C.3    35  GLU35       0.1163
     35  CD        24.3970   26.2090   22.1830 C.2    35  GLU35       0.3649
     36  OE1       23.3830   26.7040   21.6310 O.co2  35  GLU35      -0.2457
     37  OE2       24.6120   26.2790   23.4090 O.co2  35  GLU35      -0.2457
     38  N         31.8530   16.1890   19.1590 N.3    56  VAL56      -0.1231
     39  CA        31.9920   17.6330   19.0130 C.3    56  VAL56       0.1692
     40  C         31.5740   18.2200   20.3490 C.2    56  VAL56       0.2592
     41  O         30.4640   17.9570   20.8220 O.2    56  VAL56      -0.2718
     42  CB        31.0930   18.2020   17.9000 C.3    56  VAL56       0.0266
     43  CG1       31.3170   19.6910   17.7320 C.3    56  VAL56       0.0020
     44  CG2       31.3560   17.5120   16.5700 C.3    56  VAL56       0.0020
     45  N         32.4750   18.9820   20.9620 N.am   57  GLN57      -0.1966
     46  CA        32.2430   19.6080   22.2600 C.3    57  GLN57       0.1733
     47  C         32.3420   21.0970   22.0760 C.2    57  GLN57       0.2616
     48  O         33.2150   21.5490   21.3270 O.2    57  GLN57      -0.2715
     49  CB        33.3680   19.2970   23.2480 C.3    57  GLN57       0.0408
     50  CG        33.8130   17.8630   23.3570 C.3    57  GLN57       0.0908
     51  CD        35.1530   17.7400   24.0670 C.2    57  GLN57       0.2608
     52  OE1       36.0280   17.0080   23.6180 O.2    57  GLN57      -0.2717
     53  NE2       35.3040   18.4380   25.1930 N.am   57  GLN57      -0.0878
     54  N         31.5030   21.8370   22.7940 N.am   58  ASP58      -0.1971
     55  CA        31.6820   23.2850   22.9570 C.3    58  ASP58       0.1709
     56  C         31.7010   23.6630   24.4310 C.2    58  ASP58       0.2293
     57  O         31.3200   22.8760   25.3010 O.2    58  ASP58      -0.2864
     58  CB        30.6050   24.0580   22.2160 C.3    58  ASP58       0.1436
     59  CG        29.2440   23.9400   22.8800 C.2    58  ASP58       0.3671
     60  OD1       28.9950   24.6940   23.8390 O.co2  58  ASP58      -0.2456
     61  OD2       28.4400   23.1100   22.4330 O.co2  58  ASP58      -0.2456
     62  N         26.9350   27.7670   26.7480 N.3    61  ARG61      -0.1245
     63  CA        26.0390   27.8190   27.9240 C.3    61  ARG61       0.1563
     64  C         25.4010   26.4720   28.2680 C.2    61  ARG61       0.2260
     65  O         24.8700   26.3190   29.3720 O.2    61  ARG61      -0.2867
     66  CB        24.8900   28.8200   27.7010 C.3    61  ARG61       0.0307
     67  CG        25.2960   30.2660   27.3700 C.3    61  ARG61       0.0489
     68  CD        24.2290   30.9690   26.5260 C.3    61  ARG61       0.2205
     69  NE        24.0490   30.2920   25.2310 N.pl3  61  ARG61      -0.0865
     70  CZ        23.1420   30.6040   24.3010 C.cat  61  ARG61       0.5346
     71  NH1       22.2920   31.6160   24.4820 N.pl3  61  ARG61       0.1354
     72  NH2       23.0870   29.8950   23.1720 N.pl3  61  ARG61       0.1354
     73  N         22.8970   23.5680   25.9090 N.3    63  ILE63      -0.1231
     74  CA        21.5870   23.6850   25.2680 C.3    63  ILE63       0.1678
     75  C         20.4770   23.4880   26.3110 C.2    63  ILE63       0.2434
     76  O         20.6890   22.8050   27.3260 O.2    63  ILE63      -0.2733
     77  CB        21.4220   22.7870   24.0320 C.3    63  ILE63       0.0265
     78  CG1       21.4540   21.3050   24.3750 C.3    63  ILE63       0.0019
     79  CG2       22.4930   23.1340   22.9970 C.3    63  ILE63       0.0020
     80  CD1       21.0470   20.4320   23.2050 C.3    63  ILE63       0.0001
     81  N         19.3050   24.1070   26.0780 N.am   64  PRO64      -0.2729
     82  CA        18.2850   24.1040   27.1390 C.3    64  PRO64       0.1401
     83  C         17.7840   22.7030   27.4650 C.2    64  PRO64       0.2269
     84  O         17.6410   21.8670   26.5690 O.2    64  PRO64      -0.2865
     85  CB        17.1570   24.9890   26.5750 C.3    64  PRO64       0.0296
     86  CG        17.3880   25.0590   25.1070 C.3    64  PRO64       0.0237
     87  CD        18.8700   24.8600   24.8830 C.3    64  PRO64       0.0939
     88  N         14.7710   19.0050   20.0060 N.3    79  ILE79      -0.1231
     89  CA        15.7870   19.3150   19.0100 C.3    79  ILE79       0.1692
     90  C         16.3480   18.0480   18.3260 C.2    79  ILE79       0.2591
     91  O         16.5930   18.0420   17.1120 O.2    79  ILE79      -0.2718
     92  CB        16.9060   20.1420   19.6490 C.3    79  ILE79       0.0266
     93  CG1       16.3790   21.5600   19.9650 C.3    79  ILE79       0.0019
     94  CG2       18.1280   20.2340   18.7540 C.3    79  ILE79       0.0020
     95  CD1       17.1020   22.2260   21.1060 C.3    79  ILE79       0.0001
     96  N         16.5430   16.9880   19.1000 N.am   80  MET80      -0.1979
     97  CA        17.0780   15.7330   18.5590 C.3    80  MET80       0.1605
     98  C         16.1130   14.8910   17.7500 C.2    80  MET80       0.2287
     99  O         16.5590   14.0320   16.9800 O.2    80  MET80      -0.2864
    100  CB        17.6400   14.8580   19.6900 C.3    80  MET80       0.0413
    101  CG        18.9380   15.3870   20.2440 C.3    80  MET80       0.0598
    102  SD        20.2440   15.1740   19.0210 S.3    80  MET80      -0.1393
    103  CE        21.4830   16.2010   19.7710 C.3    80  MET80       0.0692
    104  N         20.3680   18.8790   13.5760 N.3    87  VAL87      -0.1245
    105  CA        21.0150   17.7470   14.2120 C.3    87  VAL87       0.1561
    106  C         20.0810   16.5380   14.3080 C.2    87  VAL87       0.2260
    107  O         20.5320   15.4150   14.4900 O.2    87  VAL87      -0.2867
    108  CB        21.5480   18.1360   15.6160 C.3    87  VAL87       0.0252
    109  CG1       20.4120   18.3160   16.6100 C.3    87  VAL87       0.0019
    110  CG2       22.5480   17.1100   16.1220 C.3    87  VAL87       0.0019
    111  N         28.0900   21.7680   25.7420 N.3   132  THR132     -0.1218
    112  CA        27.3790   20.6430   25.1660 C.3   132  THR132      0.1862
    113  C         28.3950   19.7630   24.4470 C.2   132  THR132      0.2287
    114  O         29.3970   20.2590   23.9020 O.2   132  THR132     -0.2866
    115  CB        26.2750   21.1450   24.2020 C.3   132  THR132      0.1770
    116  OG1       25.4210   22.0680   24.8870 O.3   132  THR132     -0.2211
    117  CG2       25.4450   20.0130   23.6200 C.3   132  THR132      0.0375
    118  N         28.1560   16.2610   21.7490 N.3   134  VAL134     -0.1245
    119  CA        27.4450   15.2100   21.0300 C.3   134  VAL134      0.1561
    120  C         28.4950   14.2880   20.4440 C.2   134  VAL134      0.2260
    121  O         29.4560   14.7490   19.8130 O.2   134  VAL134     -0.2867
    122  CB        26.5330   15.7680   19.9120 C.3   134  VAL134      0.0252
    123  CG1       26.0420   14.6660   18.9800 C.3   134  VAL134      0.0019
    124  CG2       25.3540   16.5000   20.5240 C.3   134  VAL134      0.0019
@<TRIPOS>BOND
     1     1     2    1
     2   104   105    1
     3   105   106    1
     4   105   108    1
     5   106   107    2
     6     2     3    1
     7     2     5    1
     8    14    13    2
     9     3     4    2
    10     7     5    1
    11    27    26   ar
    12     8     9    1
    13     5     6    1
    14    28    26   ar
    15    13    15   am
    16    13    12    1
    17    26    25    1
    18   108   110    1
    19   108   109    1
    20     9    12    1
    21     9    10    1
    22    44    42    1
    23    21    22    1
    24    99    98    2
    25    25    22    1
    26    91    90    2
    27    10    16   am
    28    10    11    2
    29    16    17    1
    30    22    23    1
    31    43    42    1
    32    98    97    1
    33    42    39    1
    34    20    17    1
    35    18    17    1
    36    18    19    2
    37    90    89    1
    38    90    96   am
    39    97    96    1
    40    97   100    1
    41    94    92    1
    42    23    24    2
    43    23    29   am
    44   123   122    1
    45    89    92    1
    46    89    88    1
    47    39    38    1
    48    39    40    1
    49   102   103    1
    50   102   101    1
    51    29    30    1
    52    92    93    1
    53   100   101    1
    54   121   120    2
    55   122   124    1
    56   122   119    1
    57    93    95    1
    58    40    41    2
    59    40    45   am
    60   120   119    1
    61    45    46    1
    62    30    33    1
    63    30    31    1
    64   119   118    1
    65    34    33    1
    66    34    35    1
    67    48    47    2
    68    31    32    2
    69    36    35   ar
    70    47    46    1
    71    47    54   am
    72    35    37   ar
    73    58    59    1
    74    58    55    1
    75    46    49    1
    76    61    59   ar
    77    54    55    1
    78    59    60   ar
    79    55    56    1
    80    79    77    1
    81    72    70    1
    82    80    78    1
    83    49    50    1
    84    50    51    1
    85    52    51    2
    86   117   115    1
    87   114   113    2
    88    77    78    1
    89    77    74    1
    90    51    53   am
    91   115   116    1
    92   115   112    1
    93    70    71    1
    94    70    69    2
    95    56    57    2
    96   113   112    1
    97    87    86    1
    98    87    81    1
    99    86    85    1
   100   112   111    1
   101    69    68    1
   102    74    73    1
   103    74    75    1
   104    81    75   am
   105    81    82    1
   106    75    76    2
   107    68    67    1
   108    84    83    2
   109    85    82    1
   110    62    63    1
   111    82    83    1
   112    67    66    1
   113    66    63    1
   114    63    64    1
   115    64    65    2
