@<TRIPOS>MOLECULE
tmp/5z9fA00.pdb
 97 88 0 0 0
SMALL
GASTEIGER

@<TRIPOS>ATOM
      1  N        -26.8320   18.7080  -12.8040 N.3    28  VAL28      -0.1245
      2  CA       -27.0140   18.8020  -14.2570 C.3    28  VAL28       0.1561
      3  C        -27.8910   20.0140  -14.5850 C.2    28  VAL28       0.2260
      4  O        -27.5900   20.8000  -15.5010 O.2    28  VAL28      -0.2867
      5  CB       -27.6120   17.5110  -14.8510 C.3    28  VAL28       0.0252
      6  CG1      -27.8740   17.6730  -16.3470 C.3    28  VAL28       0.0019
      7  CG2      -26.6540   16.3420  -14.6340 C.3    28  VAL28       0.0019
      8  N        -26.1360   23.3930  -14.6530 N.3    31  ASN31      -0.1225
      9  CA       -25.4580   23.6630  -15.9180 C.3    31  ASN31       0.1785
     10  C        -26.4450   24.0030  -17.0320 C.2    31  ASN31       0.2597
     11  O        -26.1750   24.8970  -17.8270 O.2    31  ASN31      -0.2718
     12  CB       -24.5510   22.4980  -16.3190 C.3    31  ASN31       0.1169
     13  CG       -23.3200   22.3980  -15.4310 C.2    31  ASN31       0.2627
     14  OD1      -23.4320   22.3040  -14.2100 O.2    31  ASN31      -0.2716
     15  ND2      -22.1500   22.4070  -16.0360 N.am   31  ASN31      -0.0877
     16  N        -27.5720   23.2920  -17.0780 N.am   32  ALA32      -0.1979
     17  CA       -28.6180   23.5230  -18.0830 C.3    32  ALA32       0.1597
     18  C        -29.2370   24.9150  -17.9600 C.2    32  ALA32       0.2287
     19  O        -29.5220   25.5580  -18.9660 O.2    32  ALA32      -0.2864
     20  CB       -29.7040   22.4670  -17.9720 C.3    32  ALA32       0.0319
     21  N        -26.8780   27.4660  -19.4320 N.3    35  GLU35      -0.1245
     22  CA       -27.0040   27.3890  -20.8930 C.3    35  GLU35       0.1567
     23  C        -28.2460   28.0900  -21.4100 C.2    35  GLU35       0.2260
     24  O        -28.1740   28.8750  -22.3620 O.2    35  GLU35      -0.2867
     25  CB       -27.0340   25.9290  -21.3740 C.3    35  GLU35       0.0388
     26  CG       -25.7180   25.1940  -21.2100 C.3    35  GLU35       0.1160
     27  CD       -24.5780   25.8310  -21.9840 C.2    35  GLU35       0.3649
     28  OE1      -23.5450   26.1590  -21.3590 O.co2  35  GLU35      -0.2457
     29  OE2      -24.7260   26.0130  -23.2100 O.co2  35  GLU35      -0.2457
     30  N        -31.9680   15.8990  -18.9990 N.3    56  VAL56      -0.1245
     31  CA       -32.1060   17.3450  -18.9030 C.3    56  VAL56       0.1561
     32  C        -31.7470   17.9320  -20.2670 C.2    56  VAL56       0.2260
     33  O        -30.6340   17.7310  -20.7560 O.2    56  VAL56      -0.2867
     34  CB       -31.2020   17.9320  -17.8080 C.3    56  VAL56       0.0252
     35  CG1      -31.4730   19.4190  -17.6360 C.3    56  VAL56       0.0019
     36  CG2      -31.4230   17.2020  -16.4830 C.3    56  VAL56       0.0019
     37  N        -31.6310   21.4920  -22.6300 N.3    58  ASP58      -0.1239
     38  CA       -31.7230   22.9590  -22.7200 C.3    58  ASP58       0.1674
     39  C        -31.7490   23.3880  -24.1830 C.2    58  ASP58       0.2266
     40  O        -31.3490   22.6320  -25.0740 O.2    58  ASP58      -0.2867
     41  CB       -30.6060   23.6620  -21.9240 C.3    58  ASP58       0.1410
     42  CG       -29.2140   23.5020  -22.5450 C.2    58  ASP58       0.3668
     43  OD1      -28.9760   24.0240  -23.6630 O.co2  58  ASP58      -0.2456
     44  OD2      -28.3400   22.8880  -21.8960 O.co2  58  ASP58      -0.2456
     45  N        -22.9990   23.3700  -25.7860 N.3    63  ILE63      -0.1245
     46  CA       -21.6780   23.5130  -25.1750 C.3    63  ILE63       0.1561
     47  C        -20.5770   23.3260  -26.2340 C.2    63  ILE63       0.2260
     48  O        -20.7850   22.6160  -27.2250 O.2    63  ILE63      -0.2867
     49  CB       -21.4650   22.6030  -23.9460 C.3    63  ILE63       0.0252
     50  CG1      -21.6200   21.1180  -24.2870 C.3    63  ILE63       0.0019
     51  CG2      -22.4350   22.9980  -22.8400 C.3    63  ILE63       0.0019
     52  CD1      -21.2210   20.2020  -23.1500 C.3    63  ILE63       0.0001
     53  N        -15.3770   19.1460  -19.9710 N.3    79  ILE79      -0.1231
     54  CA       -16.4730   19.4520  -19.0290 C.3    79  ILE79       0.1692
     55  C        -16.9960   18.1730  -18.3500 C.2    79  ILE79       0.2591
     56  O        -17.2580   18.1510  -17.1360 O.2    79  ILE79      -0.2718
     57  CB       -17.6020   20.2500  -19.7390 C.3    79  ILE79       0.0266
     58  CG1      -17.1160   21.6810  -20.0290 C.3    79  ILE79       0.0019
     59  CG2      -18.8940   20.3010  -18.9180 C.3    79  ILE79       0.0020
     60  CD1      -17.8320   22.3650  -21.1690 C.3    79  ILE79       0.0001
     61  N        -17.1200   17.0970  -19.1190 N.am   80  MET80      -0.1979
     62  CA       -17.6630   15.8540  -18.5760 C.3    80  MET80       0.1605
     63  C        -16.6750   15.0020  -17.7560 C.2    80  MET80       0.2287
     64  O        -17.1110   14.0930  -17.0500 O.2    80  MET80      -0.2864
     65  CB       -18.2990   15.0280  -19.7120 C.3    80  MET80       0.0413
     66  CG       -19.4170   15.7490  -20.4850 C.3    80  MET80       0.0598
     67  SD       -20.8140   16.4530  -19.5630 S.3    80  MET80      -0.1393
     68  CE       -21.1470   15.0320  -18.5290 C.3    80  MET80       0.0692
     69  N        -20.5960   18.7110  -13.3120 N.3    87  VAL87      -0.1245
     70  CA       -21.2350   17.5470  -13.9350 C.3    87  VAL87       0.1561
     71  C        -20.2780   16.3770  -14.1540 C.2    87  VAL87       0.2260
     72  O        -20.7230   15.2690  -14.4370 O.2    87  VAL87      -0.2867
     73  CB       -21.9200   17.8780  -15.2770 C.3    87  VAL87       0.0252
     74  CG1      -23.0590   18.8630  -15.0530 C.3    87  VAL87       0.0019
     75  CG2      -20.9110   18.3770  -16.3090 C.3    87  VAL87       0.0019
     76  N        -28.1820   21.5600  -25.5860 N.3   132  THR132     -0.1203
     77  CA       -27.4600   20.4390  -25.0000 C.3   132  THR132      0.1994
     78  C        -28.4670   19.5520  -24.2750 C.2   132  THR132      0.2618
     79  O        -29.3990   20.0510  -23.6140 O.2   132  THR132     -0.2717
     80  CB       -26.3610   20.9150  -24.0330 C.3   132  THR132      0.1784
     81  OG1      -25.4890   21.8310  -24.7040 O.3   132  THR132     -0.2211
     82  CG2      -25.5120   19.7380  -23.5010 C.3   132  THR132      0.0376
     83  N        -28.2920   18.2410  -24.4260 N.am  133  MET133     -0.1965
     84  CA       -29.0940   17.2540  -23.7290 C.3   133  MET133      0.1736
     85  C        -28.1690   16.2410  -23.0780 C.2   133  MET133      0.2616
     86  O        -27.2190   15.7820  -23.6950 O.2   133  MET133     -0.2715
     87  CB       -30.0470   16.5360  -24.6920 C.3   133  MET133      0.0427
     88  CG       -31.0920   15.6560  -24.0130 C.3   133  MET133      0.0599
     89  SD       -30.5670   14.0650  -23.3270 S.3   133  MET133     -0.1393
     90  CE       -29.8950   13.1900  -24.7340 C.3   133  MET133      0.0692
     91  N        -28.4520   15.9080  -21.8260 N.am  134  VAL134     -0.1977
     92  CA       -27.7290   14.8550  -21.1140 C.3   134  VAL134      0.1596
     93  C        -28.7680   13.9210  -20.5240 C.2   134  VAL134      0.2287
     94  O        -29.7200   14.3930  -19.9070 O.2   134  VAL134     -0.2864
     95  CB       -26.8210   15.4380  -20.0100 C.3   134  VAL134      0.0276
     96  CG1      -26.2500   14.3390  -19.1240 C.3   134  VAL134      0.0022
     97  CG2      -25.6990   16.2530  -20.6450 C.3   134  VAL134      0.0022
@<TRIPOS>BOND
     1    48    47    2
     2    47    46    1
     3    45    46    1
     4    76    77    1
     5    46    49    1
     6    40    39    2
     7    77    78    1
     8    77    80    1
     9    90    89    1
    10    81    80    1
    11    87    88    1
    12    87    84    1
    13    83    78   am
    14    83    84    1
    15    50    49    1
    16    50    52    1
    17    78    79    2
    18    39    38    1
    19    80    82    1
    20    88    89    1
    21    49    51    1
    22    84    85    1
    23    86    85    2
    24    43    42   ar
    25    29    27   ar
    26    85    91   am
    27    38    37    1
    28    38    41    1
    29    42    41    1
    30    42    44   ar
    31    24    23    2
    32    27    28   ar
    33    27    26    1
    34    91    92    1
    35    23    22    1
    36    25    26    1
    37    25    22    1
    38    60    58    1
    39    92    93    1
    40    92    95    1
    41    22    21    1
    42    33    32    2
    43    97    95    1
    44    93    94    2
    45    66    65    1
    46    66    67    1
    47    32    31    1
    48    58    57    1
    49    95    96    1
    50    53    54    1
    51    57    54    1
    52    57    59    1
    53    65    62    1
    54    67    68    1
    55    61    62    1
    56    61    55   am
    57    54    55    1
    58    30    31    1
    59    19    18    2
    60    31    34    1
    61    62    63    1
    62    55    56    2
    63    17    20    1
    64    17    18    1
    65    17    16    1
    66    11    10    2
    67    34    35    1
    68    34    36    1
    69    63    64    2
    70    16    10   am
    71    10     9    1
    72     6     5    1
    73    12     9    1
    74    12    13    1
    75    75    73    1
    76    15    13   am
    77     9     8    1
    78     4     3    2
    79    13    14    2
    80    73    74    1
    81    73    70    1
    82     5     7    1
    83     5     2    1
    84     3     2    1
    85    72    71    2
    86     2     1    1
    87    71    70    1
    88    70    69    1
