@<TRIPOS>MOLECULE
tmp/5z9jC01.pdb
 139 135 0 0 0
SMALL
GASTEIGER

@<TRIPOS>ATOM
      1  N         -0.5240  -46.6930  -29.5700 N.3     6  HIS6       -0.1241
      2  CA         0.1380  -46.6530  -30.8600 C.3     6  HIS6        0.1621
      3  C          1.5180  -47.2510  -30.7110 C.2     6  HIS6        0.2264
      4  O          2.2090  -46.9010  -29.7570 O.2     6  HIS6       -0.2867
      5  CB         0.3190  -45.2510  -31.3490 C.3     6  HIS6        0.0745
      6  CG         0.5300  -45.1900  -32.8190 C.ar    6  HIS6        0.0817
      7  ND1        1.7210  -45.5410  -33.4170 N.ar    6  HIS6       -0.2268
      8  CD2       -0.3330  -44.8830  -33.8190 C.ar    6  HIS6        0.1154
      9  CE1        1.5870  -45.4220  -34.7310 C.ar    6  HIS6        0.1986
     10  NE2        0.3510  -45.0270  -34.9960 N.ar    6  HIS6       -0.2212
     11  N          4.0860  -46.7120  -32.2570 N.3     8  GLY8       -0.1210
     12  CA         5.0970  -45.6750  -32.3640 C.3     8  GLY8        0.1956
     13  C          5.3270  -44.8330  -31.1190 C.2     8  GLY8        0.2612
     14  O          6.2990  -44.1010  -31.0720 O.2     8  GLY8       -0.2717
     15  N          4.4100  -44.8950  -30.1460 N.am    9  HIS9       -0.1961
     16  CA         4.4520  -44.0190  -28.9680 C.3     9  HIS9        0.1787
     17  C          5.2360  -44.6480  -27.8370 C.2     9  HIS9        0.2620
     18  O          4.6880  -44.9680  -26.7560 O.2     9  HIS9       -0.2715
     19  CB         3.0580  -43.6790  -28.4580 C.3     9  HIS9        0.0785
     20  CG         2.2440  -42.8830  -29.4230 C.ar    9  HIS9        0.0821
     21  ND1        0.9090  -42.5930  -29.2160 N.ar    9  HIS9       -0.2267
     22  CD2        2.5800  -42.2920  -30.5930 C.ar    9  HIS9        0.1154
     23  CE1        0.4580  -41.8710  -30.2250 C.ar    9  HIS9        0.1986
     24  NE2        1.4510  -41.6770  -31.0770 N.ar    9  HIS9       -0.2212
     25  N          6.5260  -44.7870  -28.0900 N.am   10  PHE10      -0.1960
     26  CA         7.4180  -45.4600  -27.1670 C.3    10  PHE10       0.1771
     27  C          7.4680  -44.7980  -25.7830 C.2    10  PHE10       0.2619
     28  O          7.7080  -45.4830  -24.7900 O.2    10  PHE10      -0.2715
     29  CB         8.8080  -45.5310  -27.7740 C.3    10  PHE10       0.0574
     30  CG         9.3730  -44.1980  -28.1040 C.ar   10  PHE10      -0.0200
     31  CD1       10.0570  -43.4660  -27.1360 C.ar   10  PHE10      -0.0042
     32  CD2        9.2600  -43.6740  -29.3940 C.ar   10  PHE10      -0.0042
     33  CE1       10.5840  -42.2240  -27.4350 C.ar   10  PHE10      -0.0003
     34  CE2        9.7990  -42.4230  -29.7000 C.ar   10  PHE10      -0.0003
     35  CZ        10.4540  -41.7060  -28.7250 C.ar   10  PHE10      -0.0000
     36  N          7.2830  -43.4820  -25.7050 N.am   11  TRP11      -0.1974
     37  CA         7.3120  -42.7770  -24.4080 C.3    11  TRP11       0.1640
     38  C          6.1800  -43.2120  -23.4720 C.2    11  TRP11       0.2290
     39  O          6.3220  -43.1650  -22.2430 O.2    11  TRP11      -0.2864
     40  CB         7.2770  -41.2590  -24.6180 C.3    11  TRP11       0.0576
     41  CG         6.0750  -40.7610  -25.3980 C.ar   11  TRP11       0.0006
     42  CD1        4.8850  -40.3070  -24.9020 C.ar   11  TRP11       0.0946
     43  CD2        5.9650  -40.7270  -26.8060 C.ar   11  TRP11       0.0152
     44  NE1        4.0470  -39.9470  -25.9300 N.ar   11  TRP11      -0.2442
     45  CE2        4.6930  -40.2030  -27.1150 C.ar   11  TRP11       0.0810
     46  CE3        6.8410  -41.0600  -27.8530 C.ar   11  TRP11       0.0012
     47  CZ2        4.2730  -40.0240  -28.4220 C.ar   11  TRP11       0.0191
     48  CZ3        6.4180  -40.8780  -29.1570 C.ar   11  TRP11       0.0001
     49  CH2        5.1440  -40.3780  -29.4280 C.ar   11  TRP11       0.0015
     50  N         16.1210  -37.6210  -34.8460 N.3    22  ASP22      -0.1239
     51  CA        16.4560  -38.6630  -35.8130 C.3    22  ASP22       0.1674
     52  C         15.7420  -38.4120  -37.1470 C.2    22  ASP22       0.2266
     53  O         14.8680  -37.5380  -37.2380 O.2    22  ASP22      -0.2867
     54  CB        16.1370  -40.0770  -35.2720 C.3    22  ASP22       0.1410
     55  CG        14.6400  -40.3800  -35.1510 C.2    22  ASP22       0.3668
     56  OD1       13.8390  -39.9560  -36.0150 O.co2  22  ASP22      -0.2456
     57  OD2       14.2570  -41.0600  -34.1700 O.co2  22  ASP22      -0.2456
     58  N         13.6170  -40.3330  -40.3840 N.3    24  ASP24      -0.1239
     59  CA        12.9040  -41.5310  -40.8140 C.3    24  ASP24       0.1674
     60  C         13.0230  -41.7060  -42.3210 C.2    24  ASP24       0.2266
     61  O         12.3660  -40.9960  -43.0760 O.2    24  ASP24      -0.2867
     62  CB        11.4360  -41.4630  -40.3810 C.3    24  ASP24       0.1410
     63  CG        10.7100  -42.7820  -40.5600 C.2    24  ASP24       0.3668
     64  OD1       10.9920  -43.5210  -41.5300 O.co2  24  ASP24      -0.2456
     65  OD2        9.8850  -43.1010  -39.6910 O.co2  24  ASP24      -0.2456
     66  N          9.6810  -42.5300  -44.2770 N.3    27  LEU27      -0.1245
     67  CA         8.6670  -41.4790  -44.3800 C.3    27  LEU27       0.1561
     68  C          9.2360  -40.1590  -44.8590 C.2    27  LEU27       0.2260
     69  O          8.4690  -39.2140  -45.1560 O.2    27  LEU27      -0.2867
     70  CB         7.9390  -41.2670  -43.0490 C.3    27  LEU27       0.0270
     71  CG         7.0310  -42.3930  -42.5540 C.3    27  LEU27       0.0019
     72  CD1        6.2830  -42.0090  -41.2590 C.3    27  LEU27       0.0001
     73  CD2        6.0550  -42.8000  -43.6630 C.3    27  LEU27       0.0001
     74  N         11.0360  -37.8140  -43.1550 N.3    29  LEU29      -0.1245
     75  CA        10.7460  -36.7220  -42.2430 C.3    29  LEU29       0.1561
     76  C         11.6880  -36.8010  -41.0510 C.2    29  LEU29       0.2260
     77  O         12.3190  -37.8230  -40.8490 O.2    29  LEU29      -0.2867
     78  CB         9.2880  -36.7660  -41.7640 C.3    29  LEU29       0.0270
     79  CG         8.6960  -38.0440  -41.1370 C.3    29  LEU29       0.0019
     80  CD1        9.1160  -38.2060  -39.6980 C.3    29  LEU29       0.0001
     81  CD2        7.1620  -37.9990  -41.2330 C.3    29  LEU29       0.0001
     82  N         12.2300  -36.3610  -36.7000 N.3    31  ASN31      -0.1240
     83  CA        11.5410  -36.4390  -35.4270 C.3    31  ASN31       0.1653
     84  C         12.3230  -35.7050  -34.3250 C.2    31  ASN31       0.2266
     85  O         13.5410  -35.8400  -34.2570 O.2    31  ASN31      -0.2867
     86  CB        11.3230  -37.9070  -35.0220 C.3    31  ASN31       0.1155
     87  CG        10.4820  -38.6770  -36.0050 C.2    31  ASN31       0.2627
     88  OD1        9.3470  -38.2720  -36.3370 O.2    31  ASN31      -0.2716
     89  ND2       11.0320  -39.7880  -36.5080 N.am   31  ASN31      -0.0877
     90  N         12.2660  -35.3480  -30.0970 N.3    33  TYR33      -0.1241
     91  CA        11.6490  -35.9580  -28.9050 C.3    33  TYR33       0.1605
     92  C         11.9490  -35.2600  -27.5750 C.2    33  TYR33       0.2264
     93  O         11.3900  -35.6140  -26.5300 O.2    33  TYR33      -0.2867
     94  CB        12.1000  -37.4110  -28.7540 C.3    33  TYR33       0.0534
     95  CG        11.8640  -38.2860  -29.9470 C.ar   33  TYR33      -0.0201
     96  CD1       10.5690  -38.5740  -30.3790 C.ar   33  TYR33      -0.0009
     97  CD2       12.9170  -38.8710  -30.6090 C.ar   33  TYR33      -0.0009
     98  CE1       10.3520  -39.3810  -31.4480 C.ar   33  TYR33       0.0417
     99  CE2       12.7120  -39.6840  -31.6760 C.ar   33  TYR33       0.0417
    100  CZ        11.4210  -39.9330  -32.1000 C.ar   33  TYR33       0.1957
    101  OH        11.1920  -40.7530  -33.1630 O.3    33  TYR33      -0.2866
    102  N          0.9310  -41.9290  -41.2870 N.3   161  GLU161     -0.1245
    103  CA         2.2110  -42.5460  -40.9040 C.3   161  GLU161      0.1567
    104  C          2.6250  -43.6320  -41.8910 C.2   161  GLU161      0.2260
    105  O          3.5680  -44.3850  -41.6570 O.2   161  GLU161     -0.2867
    106  CB         2.1200  -43.1350  -39.4930 C.3   161  GLU161      0.0388
    107  CG         1.3360  -44.3810  -39.2210 C.3   161  GLU161      0.1160
    108  CD        -0.1570  -44.2450  -39.2300 C.2   161  GLU161      0.3649
    109  OE1       -0.6470  -43.0910  -39.3660 O.co2 161  GLU161     -0.2457
    110  OE2       -0.8640  -45.2470  -39.1520 O.co2 161  GLU161     -0.2457
    111  N          8.5710  -33.4370  -37.2810 N.3   303  LEU303     -0.1245
    112  CA         7.5660  -33.8110  -36.2860 C.3   303  LEU303      0.1561
    113  C          8.0790  -33.5170  -34.8850 C.2   303  LEU303      0.2260
    114  O          9.0780  -34.0920  -34.4350 O.2   303  LEU303     -0.2867
    115  CB         7.2120  -35.2880  -36.4290 C.3   303  LEU303      0.0270
    116  CG         6.6000  -35.5700  -37.7960 C.3   303  LEU303      0.0019
    117  CD1        6.1380  -37.0100  -37.9380 C.3   303  LEU303      0.0001
    118  CD2        5.4380  -34.6070  -38.0520 C.3   303  LEU303      0.0001
    119  N          7.4920  -34.0860  -31.2640 N.3   305  TRP305     -0.1241
    120  CA         6.7040  -35.0220  -30.4230 C.3   305  TRP305      0.1605
    121  C          6.5450  -34.4670  -29.0200 C.2   305  TRP305      0.2264
    122  O          7.2940  -34.8140  -28.1120 O.2   305  TRP305     -0.2867
    123  CB         7.3490  -36.4160  -30.3890 C.3   305  TRP305      0.0550
    124  CG         7.3140  -36.9820  -31.7290 C.ar  305  TRP305      0.0003
    125  CD1        8.3520  -37.0760  -32.6160 C.ar  305  TRP305      0.0946
    126  CD2        6.1560  -37.4790  -32.4050 C.ar  305  TRP305      0.0152
    127  NE1        7.9000  -37.6090  -33.8100 N.ar  305  TRP305     -0.2442
    128  CE2        6.5580  -37.8700  -33.6970 C.ar  305  TRP305      0.0810
    129  CE3        4.8190  -37.6470  -32.0360 C.ar  305  TRP305      0.0012
    130  CZ2        5.6660  -38.4110  -34.6260 C.ar  305  TRP305      0.0191
    131  CZ3        3.9420  -38.1740  -32.9480 C.ar  305  TRP305      0.0001
    132  CH2        4.3680  -38.5650  -34.2260 C.ar  305  TRP305      0.0015
    133  N         -1.4220  -41.2870  -35.4150 N.3   379  VAL379     -0.1245
    134  CA        -0.0750  -41.2540  -34.8520 C.3   379  VAL379      0.1561
    135  C          0.2250  -39.9990  -33.9800 C.2   379  VAL379      0.2260
    136  O          1.0080  -40.0700  -33.0090 O.2   379  VAL379     -0.2867
    137  CB         0.9690  -41.4110  -35.9850 C.3   379  VAL379      0.0252
    138  CG1        0.9640  -40.2180  -36.9050 C.3   379  VAL379      0.0019
    139  CG2        2.3490  -41.6290  -35.4040 C.3   379  VAL379      0.0019
@<TRIPOS>BOND
     1    69    68    2
     2    68    67    1
     3    67    66    1
     4    67    70    1
     5    73    71    1
     6    74    75    1
     7    61    60    2
     8    70    71    1
     9    71    72    1
    10    60    59    1
    11    75    78    1
    12    75    76    1
    13   104   105    2
    14   104   103    1
    15    78    79    1
    16    64    63   ar
    17   102   103    1
    18    81    79    1
    19    79    80    1
    20    76    77    2
    21   103   106    1
    22    59    58    1
    23    59    62    1
    24    63    62    1
    25    63    65   ar
    26   106   107    1
    27   109   108   ar
    28   108   107    1
    29   108   110   ar
    30   118   116    1
    31   117   116    1
    32   116   115    1
    33   111   112    1
    34    53    52    2
    35    52    51    1
    36   138   137    1
    37    82    83    1
    38    89    87   am
    39   115   112    1
    40    88    87    2
    41   112   113    1
    42    56    55   ar
    43    87    86    1
    44   137   139    1
    45   137   134    1
    46    51    54    1
    47    51    50    1
    48    83    86    1
    49    83    84    1
    50   133   134    1
    51    54    55    1
    52    55    57   ar
    53    10     9   ar
    54    10     8   ar
    55   113   114    2
    56   134   135    1
    57     9     7   ar
    58   130   132   ar
    59   130   128   ar
    60    84    85    2
    61   132   131   ar
    62   135   136    2
    63     8     6   ar
    64   127   128   ar
    65   127   125   ar
    66   128   126   ar
    67     7     6   ar
    68   101   100    1
    69   131   129   ar
    70     6     5    1
    71   125   124   ar
    72   126   129   ar
    73   126   124   ar
    74    12    11    1
    75    12    13    1
    76   100    99   ar
    77   100    98   ar
    78   124   123    1
    79    99    97   ar
    80    98    96   ar
    81     5     2    1
    82   119   120    1
    83    13    14    2
    84    13    15   am
    85    24    22   ar
    86    24    23   ar
    87     2     3    1
    88     2     1    1
    89     3     4    2
    90    97    95   ar
    91    22    20   ar
    92   120   123    1
    93   120   121    1
    94    96    95   ar
    95    23    21   ar
    96    15    16    1
    97    90    91    1
    98    95    94    1
    99    34    32   ar
   100    34    35   ar
   101    49    48   ar
   102    49    47   ar
   103    20    21   ar
   104    20    19    1
   105    32    30   ar
   106    48    46   ar
   107   121   122    2
   108    16    19    1
   109    16    17    1
   110    91    94    1
   111    91    92    1
   112    35    33   ar
   113    47    45   ar
   114    30    29    1
   115    30    31   ar
   116    25    17   am
   117    25    26    1
   118    46    43   ar
   119    17    18    2
   120    29    26    1
   121    92    93    2
   122    33    31   ar
   123    26    27    1
   124    45    43   ar
   125    45    44   ar
   126    43    41   ar
   127    44    42   ar
   128    27    36   am
   129    27    28    2
   130    36    37    1
   131    41    42   ar
   132    41    40    1
   133    40    37    1
   134    37    38    1
   135    38    39    2
