@<TRIPOS>MOLECULE
tmp/5z9lA00.pdb
 98 89 0 0 0
SMALL
GASTEIGER

@<TRIPOS>ATOM
      1  N          4.1530  -19.1740   12.7130 N.3    28  VAL28      -0.1245
      2  CA         3.9280  -19.2590   14.1400 C.3    28  VAL28       0.1561
      3  C          3.0480  -20.4720   14.4520 C.2    28  VAL28       0.2260
      4  O          3.3140  -21.1990   15.4100 O.2    28  VAL28      -0.2867
      5  CB         3.2990  -17.9720   14.7010 C.3    28  VAL28       0.0252
      6  CG1        3.1070  -18.1040   16.2010 C.3    28  VAL28       0.0019
      7  CG2        4.1900  -16.7690   14.4190 C.3    28  VAL28       0.0019
      8  N          4.9190  -23.9100   14.6500 N.3    31  ASN31      -0.1225
      9  CA         5.5380  -24.1410   15.9440 C.3    31  ASN31       0.1785
     10  C          4.5180  -24.4700   17.0300 C.2    31  ASN31       0.2597
     11  O          4.7690  -25.3340   17.8550 O.2    31  ASN31      -0.2718
     12  CB         6.3950  -22.9570   16.3580 C.3    31  ASN31       0.1169
     13  CG         7.6980  -22.8930   15.5920 C.2    31  ASN31       0.2627
     14  OD1        7.8510  -23.5060   14.5480 O.2    31  ASN31      -0.2716
     15  ND2        8.6450  -22.1440   16.1140 N.am   31  ASN31      -0.0877
     16  N          3.3820  -23.7750   17.0330 N.am   32  ALA32      -0.1979
     17  CA         2.3320  -24.0180   18.0260 C.3    32  ALA32       0.1597
     18  C          1.7570  -25.4310   17.9200 C.2    32  ALA32       0.2287
     19  O          1.5200  -26.0720   18.9390 O.2    32  ALA32      -0.2864
     20  CB         1.2400  -22.9740   17.9080 C.3    32  ALA32       0.0319
     21  N          4.2080  -27.8630   19.3720 N.3    35  GLU35      -0.1245
     22  CA         4.1230  -27.8040   20.8270 C.3    35  GLU35       0.1567
     23  C          2.8850  -28.5160   21.3570 C.2    35  GLU35       0.2260
     24  O          2.9700  -29.2950   22.3130 O.2    35  GLU35      -0.2867
     25  CB         4.1490  -26.3480   21.3230 C.3    35  GLU35       0.0388
     26  CG         5.5310  -25.7100   21.2680 C.3    35  GLU35       0.1160
     27  CD         6.5310  -26.3910   22.1910 C.2    35  GLU35       0.3649
     28  OE1        7.5000  -26.9810   21.6760 O.co2  35  GLU35      -0.2457
     29  OE2        6.3370  -26.3600   23.4250 O.co2  35  GLU35      -0.2457
     30  N         -1.0920  -16.4640   18.7770 N.3    56  VAL56      -0.1231
     31  CA        -1.1720  -17.8980   18.6780 C.3    56  VAL56       0.1692
     32  C         -0.7530  -18.4480   20.0370 C.2    56  VAL56       0.2592
     33  O          0.2870  -18.0840   20.5550 O.2    56  VAL56      -0.2718
     34  CB        -0.2640  -18.4720   17.5800 C.3    56  VAL56       0.0266
     35  CG1       -0.4630  -19.9660   17.4460 C.3    56  VAL56       0.0020
     36  CG2       -0.4990  -17.7870   16.2400 C.3    56  VAL56       0.0020
     37  N         -1.5900  -19.3040   20.5930 N.am   57  GLN57      -0.1966
     38  CA        -1.3900  -19.9120   21.8980 C.3    57  GLN57       0.1733
     39  C         -1.4960  -21.4180   21.7590 C.2    57  GLN57       0.2616
     40  O         -2.3130  -21.9100   20.9910 O.2    57  GLN57      -0.2715
     41  CB        -2.5180  -19.5640   22.8800 C.3    57  GLN57       0.0408
     42  CG        -2.8700  -18.1220   23.1320 C.3    57  GLN57       0.0908
     43  CD        -4.2430  -18.0100   23.7830 C.2    57  GLN57       0.2608
     44  OE1       -5.1180  -17.3050   23.2970 O.2    57  GLN57      -0.2717
     45  NE2       -4.4460  -18.7490   24.8750 N.am   57  GLN57      -0.0878
     46  N         -0.7390  -22.1390   22.5680 N.am   58  ASP58      -0.1971
     47  CA        -0.9340  -23.5730   22.7390 C.3    58  ASP58       0.1709
     48  C         -0.9210  -23.9090   24.2140 C.2    58  ASP58       0.2293
     49  O         -0.4030  -23.1590   25.0310 O.2    58  ASP58      -0.2864
     50  CB         0.1450  -24.3670   22.0070 C.3    58  ASP58       0.1436
     51  CG         1.4870  -24.2710   22.6840 C.2    58  ASP58       0.3671
     52  OD1        1.7520  -25.0370   23.6420 O.co2  58  ASP58      -0.2456
     53  OD2        2.2710  -23.4340   22.2530 O.co2  58  ASP58      -0.2456
     54  N          7.7520  -23.6850   25.6380 N.3    63  ILE63      -0.1245
     55  CA         9.0850  -23.7730   25.0280 C.3    63  ILE63       0.1561
     56  C         10.1920  -23.6060   26.0910 C.2    63  ILE63       0.2260
     57  O          9.9870  -22.9230   27.1040 O.2    63  ILE63      -0.2867
     58  CB         9.2890  -22.8200   23.8240 C.3    63  ILE63       0.0252
     59  CG1        9.1750  -21.3620   24.2250 C.3    63  ILE63       0.0019
     60  CG2        8.2960  -23.1570   22.7180 C.3    63  ILE63       0.0019
     61  CD1        9.5580  -20.3890   23.1190 C.3    63  ILE63       0.0001
     62  N         15.6820  -19.1860   19.7340 N.3    79  ILE79      -0.1231
     63  CA        14.6450  -19.4740   18.7460 C.3    79  ILE79       0.1692
     64  C         14.1620  -18.1870   18.0590 C.2    79  ILE79       0.2591
     65  O         13.9240  -18.1790   16.8400 O.2    79  ILE79      -0.2718
     66  CB        13.4950  -20.2640   19.4220 C.3    79  ILE79       0.0266
     67  CG1       13.9840  -21.6950   19.7490 C.3    79  ILE79       0.0019
     68  CG2       12.2340  -20.3110   18.5680 C.3    79  ILE79       0.0020
     69  CD1       13.2920  -22.3570   20.9210 C.3    79  ILE79       0.0001
     70  N         14.0350  -17.1050   18.8260 N.am   80  MET80      -0.1979
     71  CA        13.4910  -15.8430   18.3060 C.3    80  MET80       0.1605
     72  C         14.4530  -14.9850   17.4990 C.2    80  MET80       0.2287
     73  O         14.0190  -14.1150   16.7430 O.2    80  MET80      -0.2864
     74  CB        12.9330  -15.0070   19.4660 C.3    80  MET80       0.0413
     75  CG        11.6390  -15.5500   20.0090 C.3    80  MET80       0.0598
     76  SD        10.3250  -15.3540   18.7830 S.3    80  MET80      -0.1393
     77  CE         9.1600  -16.5170   19.4640 C.3    80  MET80       0.0692
     78  N         10.2890  -18.9720   13.1950 N.3    87  VAL87      -0.1245
     79  CA         9.6760  -17.8410   13.8880 C.3    87  VAL87       0.1561
     80  C         10.6050  -16.6190   14.0130 C.2    87  VAL87       0.2260
     81  O         10.1360  -15.4920   14.1980 O.2    87  VAL87      -0.2867
     82  CB         9.1340  -18.2800   15.2710 C.3    87  VAL87       0.0252
     83  CG1       10.2580  -18.6000   16.2450 C.3    87  VAL87       0.0019
     84  CG2        8.1590  -17.2560   15.8350 C.3    87  VAL87       0.0019
     85  N          2.5740  -21.9390   25.5820 N.3   132  THR132     -0.1218
     86  CA         3.2960  -20.8230   24.9670 C.3   132  THR132      0.1862
     87  C          2.2770  -19.9380   24.2660 C.2   132  THR132      0.2287
     88  O          1.2510  -20.4110   23.7850 O.2   132  THR132     -0.2866
     89  CB         4.3820  -21.3130   23.9800 C.3   132  THR132      0.1770
     90  OG1        5.2420  -22.2500   24.6350 O.3   132  THR132     -0.2211
     91  CG2        5.2400  -20.1760   23.4190 C.3   132  THR132      0.0375
     92  N          2.5210  -16.4360   21.5530 N.3   134  VAL134     -0.1245
     93  CA         3.1550  -15.3330   20.8420 C.3   134  VAL134      0.1561
     94  C          2.0640  -14.4470   20.2540 C.2   134  VAL134      0.2260
     95  O          1.1250  -14.9410   19.6250 O.2   134  VAL134     -0.2867
     96  CB         4.0630  -15.8610   19.7130 C.3   134  VAL134      0.0252
     97  CG1        4.4660  -14.7770   18.7070 C.3   134  VAL134      0.0019
     98  CG2        5.2670  -16.5710   20.3200 C.3   134  VAL134      0.0019
@<TRIPOS>BOND
     1     1     2    1
     2    78    79    1
     3    79    80    1
     4    79    82    1
     5    80    81    2
     6     2     3    1
     7     2     5    1
     8     7     5    1
     9     3     4    2
    10    14    13    2
    11     8     9    1
    12     5     6    1
    13    82    84    1
    14    82    83    1
    15    13    15   am
    16    13    12    1
    17     9    12    1
    18     9    10    1
    19    36    34    1
    20    73    72    2
    21    65    64    2
    22    10    16   am
    23    10    11    2
    24    16    17    1
    25    35    34    1
    26    72    71    1
    27    34    31    1
    28    20    17    1
    29    18    17    1
    30    18    19    2
    31    64    63    1
    32    64    70   am
    33    71    70    1
    34    71    74    1
    35    68    66    1
    36    31    30    1
    37    31    32    1
    38    97    96    1
    39    63    66    1
    40    63    62    1
    41    76    77    1
    42    76    75    1
    43    21    22    1
    44    66    67    1
    45    74    75    1
    46    95    94    2
    47    96    98    1
    48    96    93    1
    49    67    69    1
    50    32    33    2
    51    32    37   am
    52    94    93    1
    53    37    38    1
    54    22    25    1
    55    22    23    1
    56    93    92    1
    57    40    39    2
    58    26    25    1
    59    26    27    1
    60    23    24    2
    61    28    27   ar
    62    39    38    1
    63    39    46   am
    64    38    41    1
    65    50    51    1
    66    50    47    1
    67    27    29   ar
    68    53    51   ar
    69    46    47    1
    70    51    52   ar
    71    60    58    1
    72    47    48    1
    73    41    42    1
    74    61    59    1
    75    42    43    1
    76    44    43    2
    77    91    89    1
    78    43    45   am
    79    88    87    2
    80    58    59    1
    81    58    55    1
    82    89    90    1
    83    89    86    1
    84    48    49    2
    85    87    86    1
    86    86    85    1
    87    55    54    1
    88    55    56    1
    89    56    57    2
