@<TRIPOS>MOLECULE
tmp/5z9nA00.pdb
 98 89 0 0 0
SMALL
GASTEIGER

@<TRIPOS>ATOM
      1  N        -32.9590   -7.4860  -28.3120 N.3    29  VAL29      -0.1245
      2  CA       -32.9090   -7.2640  -26.8610 C.3    29  VAL29       0.1561
      3  C        -32.7210   -5.7840  -26.5140 C.2    29  VAL29       0.2260
      4  O        -33.3310   -5.2900  -25.5670 O.2    29  VAL29      -0.2867
      5  CB       -31.7930   -8.0920  -26.1730 C.3    29  VAL29       0.0252
      6  CG1      -31.8100   -7.8800  -24.6670 C.3    29  VAL29       0.0019
      7  CG2      -31.9710   -9.5690  -26.4550 C.3    29  VAL29       0.0019
      8  N        -35.9460   -3.8110  -26.7450 N.3    32  ASN32      -0.1225
      9  CA       -36.7460   -3.9970  -25.5390 C.3    32  ASN32       0.1785
     10  C        -36.2590   -3.1550  -24.3720 C.2    32  ASN32       0.2597
     11  O        -37.0700   -2.6300  -23.6130 O.2    32  ASN32      -0.2718
     12  CB       -36.7960   -5.4740  -25.1430 C.3    32  ASN32       0.1169
     13  CG       -37.6580   -6.2880  -26.0840 C.2    32  ASN32       0.2627
     14  OD1      -38.8450   -6.0070  -26.2440 O.2    32  ASN32      -0.2716
     15  ND2      -37.0690   -7.2750  -26.7320 N.am   32  ASN32      -0.0877
     16  N        -34.9400   -3.0380  -24.2400 N.am   33  ALA33      -0.1979
     17  CA       -34.3210   -2.1740  -23.2400 C.3    33  ALA33       0.1597
     18  C        -34.6270   -0.6870  -23.4900 C.2    33  ALA33       0.2287
     19  O        -34.7880    0.0940  -22.5450 O.2    33  ALA33      -0.2864
     20  CB       -32.8220   -2.4060  -23.2190 C.3    33  ALA33       0.0319
     21  N        -38.4520   -0.1090  -22.7450 N.3    36  GLU36      -0.1245
     22  CA       -38.8010   -0.2610  -21.3380 C.3    36  GLU36       0.1567
     23  C        -39.2110    1.0730  -20.7060 C.2    36  GLU36       0.2260
     24  O        -38.6220    2.1160  -21.0100 O.2    36  GLU36      -0.2867
     25  CB       -37.6280   -0.8890  -20.5570 C.3    36  GLU36       0.0388
     26  CG       -37.7810   -0.9370  -19.0240 C.3    36  GLU36       0.1160
     27  CD       -38.9010   -1.8600  -18.4990 C.2    36  GLU36       0.3649
     28  OE1      -39.8310   -2.2430  -19.2450 O.co2  36  GLU36      -0.2457
     29  OE2      -38.8410   -2.2390  -17.3070 O.co2  36  GLU36      -0.2457
     30  N        -27.2250   -7.4140  -22.3600 N.3    57  VAL57      -0.1231
     31  CA       -27.8290   -6.0880  -22.4120 C.3    57  VAL57       0.1692
     32  C        -28.4170   -5.8570  -21.0300 C.2    57  VAL57       0.2592
     33  O        -29.2120   -6.6680  -20.5470 O.2    57  VAL57      -0.2718
     34  CB       -28.9450   -5.9930  -23.4780 C.3    57  VAL57       0.0266
     35  CG1      -29.5590   -4.5920  -23.5270 C.3    57  VAL57       0.0020
     36  CG2      -28.4060   -6.3380  -24.8580 C.3    57  VAL57       0.0020
     37  N        -28.0110   -4.7710  -20.3850 N.am   58  GLN58      -0.1966
     38  CA       -28.6550   -4.3720  -19.1400 C.3    58  GLN58       0.1733
     39  C        -29.1360   -2.9440  -19.1640 C.2    58  GLN58       0.2616
     40  O        -28.4870   -2.0810  -19.7390 O.2    58  GLN58      -0.2715
     41  CB       -27.7760   -4.6320  -17.9210 C.3    58  GLN58       0.0408
     42  CG       -26.5140   -3.8380  -17.8090 C.3    58  GLN58       0.0908
     43  CD       -25.7600   -4.1490  -16.5130 C.2    58  GLN58       0.2608
     44  OE1      -26.3430   -4.1250  -15.4040 O.2    58  GLN58      -0.2717
     45  NE2      -24.4500   -4.4380  -16.6410 N.am   58  GLN58      -0.0878
     46  N        -30.2930   -2.7150  -18.5410 N.am   59  ASP59      -0.1971
     47  CA       -30.8400   -1.3720  -18.3800 C.3    59  ASP59       0.1709
     48  C        -31.1040   -1.0950  -16.9130 C.2    59  ASP59       0.2293
     49  O        -31.0100   -1.9910  -16.0760 O.2    59  ASP59      -0.2864
     50  CB       -32.0940   -1.1480  -19.2500 C.3    59  ASP59       0.1436
     51  CG       -33.3350   -1.9280  -18.7660 C.2    59  ASP59       0.3671
     52  OD1      -33.5520   -2.1240  -17.5370 O.co2  59  ASP59      -0.2456
     53  OD2      -34.1350   -2.3250  -19.6450 O.co2  59  ASP59      -0.2456
     54  N        -38.4840   -6.1380  -15.4410 N.3    64  ILE64      -0.1245
     55  CA       -39.5900   -6.9610  -15.9230 C.3    64  ILE64       0.1561
     56  C        -40.3980   -7.4130  -14.6920 C.2    64  ILE64       0.2260
     57  O        -39.7980   -7.8080  -13.6960 O.2    64  ILE64      -0.2867
     58  CB       -39.0700   -8.1680  -16.7420 C.3    64  ILE64       0.0252
     59  CG1      -38.4470   -7.6850  -18.0580 C.3    64  ILE64       0.0019
     60  CG2      -40.1910   -9.1570  -17.0600 C.3    64  ILE64       0.0019
     61  CD1      -37.6290   -8.7420  -18.7750 C.3    64  ILE64       0.0001
     62  N        -43.0750  -13.6970  -20.4470 N.3    80  ILE80      -0.1231
     63  CA       -42.4770  -12.8210  -21.4330 C.3    80  ILE80       0.1692
     64  C        -41.3270  -13.5330  -22.1570 C.2    80  ILE80       0.2591
     65  O        -41.1970  -13.4280  -23.3800 O.2    80  ILE80      -0.2718
     66  CB       -42.0320  -11.4930  -20.7790 C.3    80  ILE80       0.0266
     67  CG1      -43.2640  -10.6820  -20.3520 C.3    80  ILE80       0.0019
     68  CG2      -41.2090  -10.6420  -21.7360 C.3    80  ILE80       0.0020
     69  CD1      -42.9910   -9.7250  -19.2120 C.3    80  ILE80       0.0001
     70  N        -40.5250  -14.2760  -21.4040 N.am   81  MET81      -0.1979
     71  CA       -39.3780  -14.9840  -21.9540 C.3    81  MET81       0.1605
     72  C        -39.7290  -16.2260  -22.7590 C.2    81  MET81       0.2287
     73  O        -38.8890  -16.7070  -23.5090 O.2    81  MET81      -0.2864
     74  CB       -38.4200  -15.3840  -20.8270 C.3    81  MET81       0.0413
     75  CG       -37.8140  -14.2190  -20.0580 C.3    81  MET81       0.0598
     76  SD       -36.8740  -13.0400  -21.0330 S.3    81  MET81      -0.1393
     77  CE       -35.6270  -14.1240  -21.7260 C.3    81  MET81       0.0692
     78  N        -37.9230  -11.0040  -27.0180 N.3    89  VAL89      -0.1245
     79  CA       -36.7760  -11.6610  -26.3960 C.3    89  VAL89       0.1561
     80  C        -36.9730  -13.1670  -26.3850 C.2    89  VAL89       0.2260
     81  O        -36.0010  -13.9110  -26.4120 O.2    89  VAL89      -0.2867
     82  CB       -36.5380  -11.1660  -24.9580 C.3    89  VAL89       0.0252
     83  CG1      -35.2490  -11.7300  -24.3690 C.3    89  VAL89       0.0019
     84  CG2      -36.3960   -9.6750  -24.9600 C.3    89  VAL89       0.0019
     85  N        -33.1810   -4.5560  -15.5910 N.3   134  THR134     -0.1218
     86  CA       -33.1500   -5.8940  -16.1730 C.3   134  THR134      0.1862
     87  C        -31.7890   -6.1520  -16.8120 C.2   134  THR134      0.2287
     88  O        -31.1650   -5.2340  -17.3720 O.2   134  THR134     -0.2866
     89  CB       -34.2420   -6.0350  -17.2430 C.3   134  THR134      0.1770
     90  OG1      -35.5000   -5.7010  -16.6590 O.3   134  THR134     -0.2211
     91  CG2      -34.3040   -7.4580  -17.8150 C.3   134  THR134      0.0375
     92  N        -30.3190   -9.1970  -19.3840 N.3   136  VAL136     -0.1245
     93  CA       -30.3840  -10.4030  -20.1840 C.3   136  VAL136      0.1561
     94  C        -28.9830  -10.6560  -20.7560 C.2   136  VAL136      0.2260
     95  O        -28.4160   -9.7900  -21.4120 O.2   136  VAL136     -0.2867
     96  CB       -31.3980  -10.2570  -21.3270 C.3   136  VAL136      0.0252
     97  CG1      -31.3300  -11.4290  -22.2970 C.3   136  VAL136      0.0019
     98  CG2      -32.8150  -10.1330  -20.7750 C.3   136  VAL136      0.0019
@<TRIPOS>BOND
     1     1     2    1
     2    78    79    1
     3     2     3    1
     4     2     5    1
     5     8     9    1
     6    15    13   am
     7     3     4    2
     8     7     5    1
     9    81    80    2
    10    79    80    1
    11    79    82    1
    12    14    13    2
    13     5     6    1
    14    13    12    1
    15     9    12    1
    16     9    10    1
    17    84    82    1
    18    82    83    1
    19    36    34    1
    20    10    16   am
    21    10    11    2
    22    16    17    1
    23    35    34    1
    24    73    72    2
    25    18    17    1
    26    18    19    2
    27    34    31    1
    28    65    64    2
    29    17    20    1
    30    72    71    1
    31    21    22    1
    32    31    30    1
    33    31    32    1
    34    97    96    1
    35    64    63    1
    36    64    70   am
    37    71    70    1
    38    71    74    1
    39    68    66    1
    40    77    76    1
    41    63    66    1
    42    63    62    1
    43    95    94    2
    44    22    23    1
    45    22    25    1
    46    96    98    1
    47    96    93    1
    48    76    75    1
    49    32    33    2
    50    32    37   am
    51    24    23    2
    52    74    75    1
    53    66    67    1
    54    94    93    1
    55    25    26    1
    56    37    38    1
    57    67    69    1
    58    93    92    1
    59    40    39    2
    60    53    51   ar
    61    50    51    1
    62    50    47    1
    63    28    27   ar
    64    39    38    1
    65    39    46   am
    66    38    41    1
    67    26    27    1
    68    61    59    1
    69    51    52   ar
    70    46    47    1
    71    27    29   ar
    72    47    48    1
    73    59    58    1
    74    41    42    1
    75    91    89    1
    76    42    43    1
    77    88    87    2
    78    89    90    1
    79    89    86    1
    80    60    58    1
    81    48    49    2
    82    87    86    1
    83    58    55    1
    84    45    43   am
    85    43    44    2
    86    86    85    1
    87    55    54    1
    88    55    56    1
    89    56    57    2
