@<TRIPOS>MOLECULE
tmp/5z9pA00.pdb
 84 75 0 0 0
SMALL
GASTEIGER

@<TRIPOS>ATOM
      1  N        137.4660   14.0930   72.4500 N.3    32  ILE32      -0.1245
      2  CA       138.1200   12.8080   72.7060 C.3    32  ILE32       0.1561
      3  C        138.2520   12.5430   74.2070 C.2    32  ILE32       0.2260
      4  O        137.9080   11.4700   74.6750 O.2    32  ILE32      -0.2867
      5  CB       139.5100   12.7480   72.0150 C.3    32  ILE32       0.0252
      6  CG1      139.3900   12.9090   70.4880 C.3    32  ILE32       0.0019
      7  CG2      140.2290   11.4460   72.3340 C.3    32  ILE32       0.0019
      8  CD1      138.4730   11.9290   69.7800 C.3    32  ILE32       0.0001
      9  N        135.1060   11.3610   75.9510 N.3    35  ASN35      -0.1225
     10  CA       134.7950    9.9450   75.7630 C.3    35  ASN35       0.1785
     11  C        135.5600    9.0670   76.7220 C.2    35  ASN35       0.2597
     12  O        135.0200    8.0660   77.1940 O.2    35  ASN35      -0.2718
     13  CB       135.0430    9.5210   74.3200 C.3    35  ASN35       0.1169
     14  CG       134.0930   10.1960   73.3670 C.2    35  ASN35       0.2627
     15  OD1      133.1320   10.8330   73.7930 O.2    35  ASN35      -0.2716
     16  ND2      134.3690   10.0910   72.0840 N.am   35  ASN35      -0.0877
     17  N        136.8040    9.4340   77.0220 N.am   36  SER36      -0.1952
     18  CA       137.5690    8.7100   78.0370 C.3    36  SER36       0.1924
     19  C        136.9740    8.9020   79.4340 C.2    36  SER36       0.2314
     20  O        136.8950    7.9540   80.2180 O.2    36  SER36      -0.2863
     21  CB       139.0380    9.1320   78.0210 C.3    36  SER36       0.2116
     22  OG       139.6630    8.7650   76.7960 O.3    36  SER36      -0.2180
     23  N        133.9620    6.7130   79.9670 N.3    39  GLU39      -0.1245
     24  CA       134.3760    5.3520   80.2620 C.3    39  GLU39       0.1567
     25  C        134.8160    5.1800   81.7320 C.2    39  GLU39       0.2260
     26  O        134.5540    4.1390   82.3420 O.2    39  GLU39      -0.2867
     27  CB       135.4740    4.9720   79.2760 C.3    39  GLU39       0.0388
     28  CG       135.9910    3.5580   79.3620 C.3    39  GLU39       0.1160
     29  CD       135.0220    2.5110   78.8500 C.2    39  GLU39       0.3649
     30  OE1      133.8360    2.8080   78.5370 O.co2  39  GLU39      -0.2457
     31  OE2      135.4640    1.3530   78.7560 O.co2  39  GLU39      -0.2457
     32  N        143.5880    6.1120   77.2780 N.3    62  ASP62      -0.1239
     33  CA       142.8710    5.7360   78.4910 C.3    62  ASP62       0.1674
     34  C        143.0250    4.2550   78.7390 C.2    62  ASP62       0.2266
     35  O        143.3990    3.4990   77.8500 O.2    62  ASP62      -0.2867
     36  CB       141.3990    6.1830   78.4760 C.3    62  ASP62       0.1410
     37  CG       140.5390    5.4220   77.4890 C.2    62  ASP62       0.3668
     38  OD1      140.4860    4.1860   77.5680 O.co2  62  ASP62      -0.2456
     39  OD2      139.8660    6.0520   76.6460 O.co2  62  ASP62      -0.2456
     40  N        137.7810    0.3920   72.7210 N.3    67  ILE67      -0.1245
     41  CA       136.6270    0.5360   71.8370 C.3    67  ILE67       0.1561
     42  C        136.3650   -0.8440   71.2160 C.2    67  ILE67       0.2260
     43  O        137.3020   -1.4880   70.7290 O.2    67  ILE67      -0.2867
     44  CB       136.8280    1.5970   70.7330 C.3    67  ILE67       0.0252
     45  CG1      137.1450    2.9690   71.3410 C.3    67  ILE67       0.0019
     46  CG2      135.5740    1.6750   69.8590 C.3    67  ILE67       0.0019
     47  CD1      137.5650    4.0100   70.3240 C.3    67  ILE67       0.0001
     48  N        132.3300    3.7060   64.8480 N.3    83  ILE83      -0.1231
     49  CA       132.3790    4.7570   65.8560 C.3    83  ILE83       0.1692
     50  C        133.3000    5.8930   65.4100 C.2    83  ILE83       0.2591
     51  O        132.9270    7.0660   65.4620 O.2    83  ILE83      -0.2718
     52  CB       132.8020    4.1550   67.2160 C.3    83  ILE83       0.0266
     53  CG1      131.6650    3.2780   67.7660 C.3    83  ILE83       0.0019
     54  CG2      133.1950    5.2330   68.2160 C.3    83  ILE83       0.0020
     55  CD1      132.1110    2.2520   68.7790 C.3    83  ILE83       0.0001
     56  N        134.4870    5.5570   64.9180 N.am   84  LEU84      -0.1980
     57  CA       135.4340    6.6000   64.5380 C.3    84  LEU84       0.1596
     58  C        135.1350    7.2550   63.1880 C.2    84  LEU84       0.2287
     59  O        135.4240    8.4330   63.0180 O.2    84  LEU84      -0.2864
     60  CB       136.8740    6.0850   64.6100 C.3    84  LEU84       0.0297
     61  CG       137.3590    5.7450   66.0310 C.3    84  LEU84       0.0022
     62  CD1      138.7680    5.1770   65.9410 C.3    84  LEU84       0.0001
     63  CD2      137.3270    6.9390   66.9780 C.3    84  LEU84       0.0001
     64  N        132.9640   10.1320   63.9530 N.3    87  SER87      -0.1217
     65  CA       133.5280   11.1110   64.8700 C.3    87  SER87       0.1889
     66  C        133.8630   12.4200   64.1630 C.2    87  SER87       0.2288
     67  O        134.5710   12.4340   63.1520 O.2    87  SER87      -0.2866
     68  CB       134.8020   10.5580   65.5090 C.3    87  SER87       0.2089
     69  OG       135.5540   11.5830   66.1240 O.3    87  SER87      -0.2183
     70  N        142.3350    2.3760   75.1150 N.3   131  THR131     -0.1218
     71  CA       142.2980    2.9630   73.7780 C.3   131  THR131      0.1862
     72  C        143.3210    4.0840   73.6720 C.2   131  THR131      0.2287
     73  O        143.4410    4.9130   74.5880 O.2   131  THR131     -0.2866
     74  CB       140.8920    3.5310   73.4770 C.3   131  THR131      0.1770
     75  OG1      139.9030    2.5010   73.6320 O.3   131  THR131     -0.2211
     76  CG2      140.7890    4.0980   72.0660 C.3   131  THR131      0.0375
     77  N        144.1630    7.1400   70.9440 N.3   133  ILE133     -0.1245
     78  CA       143.7750    7.9090   69.7540 C.3   133  ILE133      0.1561
     79  C        144.8390    8.9700   69.5190 C.2   133  ILE133      0.2260
     80  O        145.1390    9.7150   70.4330 O.2   133  ILE133     -0.2867
     81  CB       142.4300    8.6330   69.9580 C.3   133  ILE133      0.0252
     82  CG1      141.2840    7.6360   70.1510 C.3   133  ILE133      0.0019
     83  CG2      142.1410    9.6050   68.8070 C.3   133  ILE133      0.0019
     84  CD1      140.8380    6.9190   68.9170 C.3   133  ILE133      0.0001
@<TRIPOS>BOND
     1    59    58    2
     2    67    66    2
     3    58    57    1
     4    64    65    1
     5    66    65    1
     6    57    60    1
     7    57    56    1
     8    60    61    1
     9    48    49    1
    10    65    68    1
    11    56    50   am
    12    50    51    2
    13    50    49    1
    14    68    69    1
    15    49    52    1
    16    62    61    1
    17    61    63    1
    18    52    53    1
    19    52    54    1
    20    53    55    1
    21    83    81    1
    22    84    82    1
    23    79    78    1
    24    79    80    2
    25    78    81    1
    26    78    77    1
    27     8     6    1
    28    46    44    1
    29    81    82    1
    30    47    45    1
    31     6     5    1
    32    43    42    2
    33    44    45    1
    34    44    41    1
    35    42    41    1
    36    41    40    1
    37     5     7    1
    38     5     2    1
    39    76    74    1
    40    16    14   am
    41     1     2    1
    42     2     3    1
    43    14    15    2
    44    14    13    1
    45    74    75    1
    46    74    71    1
    47    72    71    1
    48    72    73    2
    49    71    70    1
    50     3     4    2
    51    13    10    1
    52    10     9    1
    53    10    11    1
    54    39    37   ar
    55    11    17   am
    56    11    12    2
    57    22    21    1
    58    17    18    1
    59    32    33    1
    60    37    38   ar
    61    37    36    1
    62    35    34    2
    63    21    18    1
    64    18    19    1
    65    36    33    1
    66    33    34    1
    67    30    29   ar
    68    31    29   ar
    69    29    28    1
    70    27    28    1
    71    27    24    1
    72    19    20    2
    73    23    24    1
    74    24    25    1
    75    25    26    2
