@<TRIPOS>MOLECULE
tmp/5z9qB01.pdb
 89 79 0 0 0
SMALL
GASTEIGER

@<TRIPOS>ATOM
      1  N          1.1290    9.9860   13.1310 N.3    28  VAL28      -0.1245
      2  CA         1.1380   10.1800   11.6760 C.3    28  VAL28       0.1561
      3  C          2.2780   11.1260   11.3020 C.2    28  VAL28       0.2260
      4  O          3.0080   10.8650   10.3390 O.2    28  VAL28      -0.2867
      5  CB        -0.1980   10.6980   11.1270 C.3    28  VAL28       0.0252
      6  CG1       -0.1290   10.8980    9.6180 C.3    28  VAL28       0.0019
      7  CG2       -1.3170    9.7050   11.4420 C.3    28  VAL28       0.0019
      8  N          5.7960    9.4790   11.2420 N.3    31  ASN31      -0.1225
      9  CA         6.0120    8.7610    9.9730 C.3    31  ASN31       0.1785
     10  C          6.2400    9.7060    8.7900 C.2    31  ASN31       0.2597
     11  O          7.0900    9.4410    7.9290 O.2    31  ASN31      -0.2718
     12  CB         4.8500    7.8030    9.6980 C.3    31  ASN31       0.1169
     13  CG         4.8350    6.6170   10.6570 C.2    31  ASN31       0.2627
     14  OD1        5.6660    5.7130   10.5540 O.2    31  ASN31      -0.2716
     15  ND2        3.9060    6.6200   11.6060 N.am   31  ASN31      -0.0877
     16  N          5.5000   10.8100    8.7640 N.am   32  ALA32      -0.1979
     17  CA         5.6430   11.8470    7.7320 C.3    32  ALA32       0.1597
     18  C          7.0050   12.5360    7.7550 C.2    32  ALA32       0.2287
     19  O          7.6200   12.7700    6.6900 O.2    32  ALA32      -0.2864
     20  CB         4.5440   12.8830    7.8800 C.3    32  ALA32       0.0319
     21  N          9.4240   10.1840    6.4460 N.3    35  GLU35      -0.1245
     22  CA         9.2780   10.2280    4.9770 C.3    35  GLU35       0.1567
     23  C          9.8780   11.4690    4.3130 C.2    35  GLU35       0.2260
     24  O         10.3830   11.3890    3.1920 O.2    35  GLU35      -0.2867
     25  CB         7.7980   10.1410    4.5850 C.3    35  GLU35       0.0388
     26  CG         7.7230    9.8040    3.1020 C.3    35  GLU35       0.1160
     27  CD         7.9440    8.4090    2.6650 C.2    35  GLU35       0.3649
     28  OE1        8.2090    7.5040    3.4940 O.co2  35  GLU35      -0.2457
     29  OE2        7.9650    8.1790    1.4030 O.co2  35  GLU35      -0.2457
     30  N         -2.2670   14.9190    7.1500 N.3    54  VAL54      -0.1245
     31  CA        -0.8290   15.1140    7.1630 C.3    54  VAL54       0.1561
     32  C         -0.3620   14.7660    5.7530 C.2    54  VAL54       0.2260
     33  O         -0.5480   13.6350    5.2990 O.2    54  VAL54      -0.2867
     34  CB        -0.1440   14.2050    8.2030 C.3    54  VAL54       0.0252
     35  CG1        1.3600   14.4180    8.1590 C.3    54  VAL54       0.0019
     36  CG2       -0.6940   14.4760    9.5960 C.3    54  VAL54       0.0019
     37  N          2.9870   14.9660    3.0340 N.3    56  ASP56      -0.1239
     38  CA         4.4040   15.1620    2.7860 C.3    56  ASP56       0.1674
     39  C          4.7320   15.1050    1.3200 C.2    56  ASP56       0.2266
     40  O          3.9910   14.5470    0.5650 O.2    56  ASP56      -0.2867
     41  CB         5.2820   14.1890    3.5520 C.3    56  ASP56       0.1410
     42  CG         5.2120   12.7750    3.0350 C.2    56  ASP56       0.3668
     43  OD1        5.4950   12.5490    1.8610 O.co2  56  ASP56      -0.2456
     44  OD2        4.8850   11.8920    3.8120 O.co2  56  ASP56      -0.2456
     45  N          4.6570    6.0870    0.1160 N.3    61  ILE61      -0.1245
     46  CA         4.6320    4.7220    0.6620 C.3    61  ILE61       0.1561
     47  C          4.6390    3.7270   -0.5030 C.2    61  ILE61       0.2260
     48  O          3.9210    3.9360   -1.4650 O.2    61  ILE61      -0.2867
     49  CB         3.3680    4.4340    1.5270 C.3    61  ILE61       0.0252
     50  CG1        3.3440    5.3250    2.7700 C.3    61  ILE61       0.0019
     51  CG2        3.3460    2.9700    1.9540 C.3    61  ILE61       0.0019
     52  CD1        2.1930    5.0480    3.7330 C.3    61  ILE61       0.0001
     53  N          1.0880   -1.9100    5.5900 N.3    77  ILE77      -0.1231
     54  CA         1.5070   -0.9000    6.5640 C.3    77  ILE77       0.1692
     55  C          0.3160   -0.3830    7.3850 C.2    77  ILE77       0.2591
     56  O          0.4290   -0.1330    8.5890 O.2    77  ILE77      -0.2718
     57  CB         2.2500    0.2620    5.8620 C.3    77  ILE77       0.0266
     58  CG1        3.6380   -0.2240    5.3980 C.3    77  ILE77       0.0019
     59  CG2        2.3980    1.4640    6.7710 C.3    77  ILE77       0.0020
     60  CD1        4.3340    0.6800    4.4040 C.3    77  ILE77       0.0001
     61  N         -0.8180   -0.2100    6.7230 N.am   78  MET78      -0.1979
     62  CA        -2.0190    0.3140    7.3620 C.3    78  MET78       0.1605
     63  C         -2.7820   -0.6960    8.2250 C.2    78  MET78       0.2287
     64  O         -3.5860   -0.2880    9.0590 O.2    78  MET78      -0.2864
     65  CB        -2.9640    0.8490    6.2740 C.3    78  MET78       0.0413
     66  CG        -2.4110    2.0330    5.4850 C.3    78  MET78       0.0598
     67  SD        -2.0090    3.5360    6.4110 S.3    78  MET78      -0.1393
     68  CE        -3.4170    3.6300    7.4500 C.3    78  MET78       0.0692
     69  N          1.1770    3.5510   12.3010 N.3    85  VAL85      -0.1245
     70  CA         0.0120    4.1100   11.6740 C.3    85  VAL85       0.1561
     71  C         -1.1690    3.1390   11.6390 C.2    85  VAL85       0.2260
     72  O         -2.2780    3.5320   11.5470 O.2    85  VAL85      -0.2867
     73  CB         0.3540    4.5890   10.2570 C.3    85  VAL85       0.0252
     74  CG1        0.6280    3.4230    9.3530 C.3    85  VAL85       0.0019
     75  CG2       -0.7340    5.4330    9.6720 C.3    85  VAL85       0.0019
     76  N          2.9610   11.3450    0.2950 N.3   130  THR130     -0.1218
     77  CA         1.9140   10.5790    0.9700 C.3   130  THR130      0.1862
     78  C          1.0460   11.5430    1.7690 C.2   130  THR130      0.2287
     79  O          1.5690   12.4100    2.4870 O.2   130  THR130     -0.2866
     80  CB         2.5300    9.5310    1.9080 C.3   130  THR130      0.1770
     81  OG1        3.3770    8.6690    1.1490 O.3   130  THR130     -0.2211
     82  CG2        1.4490    8.6820    2.6030 C.3   130  THR130      0.0375
     83  N         -2.2310   11.3280    4.4600 N.3   132  VAL132     -0.1245
     84  CA        -3.1610   10.5660    5.3060 C.3   132  VAL132      0.1561
     85  C         -4.0940   11.5860    5.9260 C.2   132  VAL132      0.2260
     86  O         -3.6400   12.5330    6.5530 O.2   132  VAL132     -0.2867
     87  CB        -2.4330    9.7890    6.4200 C.3   132  VAL132      0.0252
     88  CG1       -3.4160    9.1560    7.4210 C.3   132  VAL132      0.0019
     89  CG2       -1.5520    8.7060    5.8000 C.3   132  VAL132      0.0019
@<TRIPOS>BOND
     1    48    47    2
     2    47    46    1
     3    45    46    1
     4    76    77    1
     5    40    39    2
     6    46    49    1
     7    77    78    1
     8    77    80    1
     9    81    80    1
    10    39    38    1
    11    29    27   ar
    12    49    51    1
    13    49    50    1
    14    78    79    2
    15    43    42   ar
    16    80    82    1
    17    27    26    1
    18    27    28   ar
    19    50    52    1
    20    38    37    1
    21    38    41    1
    22    42    41    1
    23    42    44   ar
    24    26    25    1
    25    24    23    2
    26    23    22    1
    27    60    58    1
    28    83    84    1
    29    25    22    1
    30    22    21    1
    31    33    32    2
    32    84    85    1
    33    84    87    1
    34    58    57    1
    35    66    65    1
    36    66    67    1
    37    53    54    1
    38    32    31    1
    39    89    87    1
    40    57    54    1
    41    57    59    1
    42    85    86    2
    43    65    62    1
    44    67    68    1
    45    87    88    1
    46    54    55    1
    47    19    18    2
    48    61    62    1
    49    61    55   am
    50    30    31    1
    51    31    34    1
    52    62    63    1
    53    55    56    2
    54    17    18    1
    55    17    20    1
    56    17    16    1
    57    11    10    2
    58    35    34    1
    59    34    36    1
    60    63    64    2
    61    16    10   am
    62    10     9    1
    63    74    73    1
    64     6     5    1
    65    75    73    1
    66    12     9    1
    67    12    13    1
    68     9     8    1
    69    73    70    1
    70     4     3    2
    71    14    13    2
    72    13    15   am
    73     5     7    1
    74     5     2    1
    75     3     2    1
    76    72    71    2
    77    71    70    1
    78    70    69    1
    79     2     1    1
