@<TRIPOS>MOLECULE
tmp/5z9sA00.pdb
 140 137 0 0 0
SMALL
GASTEIGER

@<TRIPOS>ATOM
      1  N         71.6430  -43.9840   50.5480 N.3    44  LEU44      -0.1231
      2  CA        70.6660  -42.9460   50.2650 C.3    44  LEU44       0.1693
      3  C         69.3520  -43.5960   49.8620 C.2    44  LEU44       0.2592
      4  O         69.2980  -44.7840   49.5350 O.2    44  LEU44      -0.2718
      5  CB        71.1390  -41.9870   49.1630 C.3    44  LEU44       0.0284
      6  CG        70.9370  -42.4200   47.7100 C.3    44  LEU44       0.0019
      7  CD1       70.9670  -41.2050   46.7990 C.3    44  LEU44       0.0001
      8  CD2       71.9900  -43.4290   47.2850 C.3    44  LEU44       0.0001
      9  N         68.2870  -42.7920   49.8920 N.am   45  HIS45      -0.1976
     10  CA        66.9340  -43.2520   49.5780 C.3    45  HIS45       0.1656
     11  C         66.5300  -44.4230   50.4740 C.2    45  HIS45       0.2291
     12  O         65.9930  -45.4330   50.0190 O.2    45  HIS45      -0.2864
     13  CB        66.8060  -43.6170   48.0960 C.3    45  HIS45       0.0771
     14  CG        66.7690  -42.4310   47.1840 C.ar   45  HIS45       0.0820
     15  ND1       66.7040  -41.1350   47.6480 N.ar   45  HIS45      -0.2267
     16  CD2       66.7810  -42.3450   45.8330 C.ar   45  HIS45       0.1154
     17  CE1       66.6780  -40.3030   46.6240 C.ar   45  HIS45       0.1986
     18  NE2       66.7250  -41.0120   45.5110 N.ar   45  HIS45      -0.2212
     19  N         67.3250  -36.8680   49.6130 N.3    73  ASP73      -0.1239
     20  CA        66.8670  -35.6590   48.9330 C.3    73  ASP73       0.1674
     21  C         65.7290  -35.0370   49.7280 C.2    73  ASP73       0.2266
     22  O         64.5760  -35.4600   49.6230 O.2    73  ASP73      -0.2867
     23  CB        66.4220  -35.9780   47.5130 C.3    73  ASP73       0.1410
     24  CG        67.5710  -36.3380   46.6220 C.2    73  ASP73       0.3668
     25  OD1       68.2780  -35.4240   46.1480 O.co2  73  ASP73      -0.2456
     26  OD2       67.7720  -37.5480   46.4150 O.co2  73  ASP73      -0.2456
     27  N         70.6730  -33.5320   50.1610 N.3   122  PHE122     -0.1241
     28  CA        71.2620  -33.1270   48.8860 C.3   122  PHE122      0.1605
     29  C         70.5980  -31.8240   48.4380 C.2   122  PHE122      0.2264
     30  O         69.8120  -31.7690   47.4910 O.2   122  PHE122     -0.2867
     31  CB        71.1010  -34.2300   47.8500 C.3   122  PHE122      0.0534
     32  CG        71.5920  -35.5680   48.3110 C.ar  122  PHE122     -0.0203
     33  CD1       72.7840  -35.6810   49.0080 C.ar  122  PHE122     -0.0042
     34  CD2       70.8590  -36.7130   48.0560 C.ar  122  PHE122     -0.0042
     35  CE1       73.2370  -36.9150   49.4350 C.ar  122  PHE122     -0.0003
     36  CE2       71.3070  -37.9490   48.4840 C.ar  122  PHE122     -0.0003
     37  CZ        72.4970  -38.0500   49.1730 C.ar  122  PHE122     -0.0000
     38  N         64.8530  -28.9230   35.1720 N.3   136  ARG136     -0.1245
     39  CA        65.0230  -28.7330   36.6070 C.3   136  ARG136      0.1563
     40  C         65.0330  -27.2670   37.0180 C.2   136  ARG136      0.2260
     41  O         65.6020  -26.9310   38.0610 O.2   136  ARG136     -0.2867
     42  CB        66.2910  -29.4090   37.1180 C.3   136  ARG136      0.0307
     43  CG        66.4420  -30.8680   36.7730 C.3   136  ARG136      0.0489
     44  CD        67.1720  -31.4850   37.9370 C.3   136  ARG136      0.2205
     45  NE        68.1450  -32.5080   37.6200 N.pl3 136  ARG136     -0.0865
     46  CZ        68.7300  -33.2440   38.5530 C.cat 136  ARG136      0.5346
     47  NH1       69.6220  -34.1630   38.2190 N.pl3 136  ARG136      0.1354
     48  NH2       68.4030  -33.0630   39.8250 N.pl3 136  ARG136      0.1354
     49  N         74.8090  -28.4440   45.1380 N.3   179  LYS179     -0.1231
     50  CA        74.6990  -29.1480   43.8670 C.3   179  LYS179      0.1693
     51  C         73.9990  -28.2300   42.8600 C.2   179  LYS179      0.2592
     52  O         73.2900  -27.3140   43.2680 O.2   179  LYS179     -0.2718
     53  CB        73.9360  -30.4660   44.0480 C.3   179  LYS179      0.0285
     54  CG        72.4570  -30.3040   44.3410 C.3   179  LYS179      0.0035
     55  CD        71.7760  -31.6540   44.5140 C.3   179  LYS179      0.0206
     56  CE        70.2670  -31.5290   44.3690 C.3   179  LYS179      0.1093
     57  NZ        69.5490  -32.7520   44.8100 N.3   179  LYS179     -0.1314
     58  N         74.2140  -28.4280   41.5580 N.am  180  HIS180     -0.1976
     59  CA        75.1460  -29.4150   41.0230 C.3   180  HIS180      0.1656
     60  C         76.3780  -28.7070   40.4790 C.2   180  HIS180      0.2291
     61  O         76.3120  -28.0100   39.4680 O.2   180  HIS180     -0.2864
     62  CB        74.4840  -30.2560   39.9300 C.3   180  HIS180      0.0771
     63  CG        73.1840  -30.8720   40.3450 C.ar  180  HIS180      0.0820
     64  ND1       72.0140  -30.1500   40.4380 N.ar  180  HIS180     -0.2267
     65  CD2       72.8720  -32.1400   40.7030 C.ar  180  HIS180      0.1154
     66  CE1       71.0360  -30.9480   40.8260 C.ar  180  HIS180      0.1986
     67  NE2       71.5300  -32.1610   40.9940 N.ar  180  HIS180     -0.2212
     68  N         78.2610  -31.7430   45.5760 N.3   223  MET223     -0.1245
     69  CA        77.9330  -32.8130   44.6450 C.3   223  MET223      0.1570
     70  C         78.4030  -32.4190   43.2530 C.2   223  MET223      0.2261
     71  O         78.1150  -31.3130   42.7880 O.2   223  MET223     -0.2867
     72  CB        76.4320  -33.1110   44.6410 C.3   223  MET223      0.0387
     73  CG        76.0440  -34.2890   43.7520 C.3   223  MET223      0.0595
     74  SD        74.2680  -34.6110   43.6990 S.3   223  MET223     -0.1393
     75  CE        73.9680  -35.1010   45.3950 C.3   223  MET223      0.0692
     76  N         76.5180  -33.9150   36.5860 N.3   226  TYR226     -0.1241
     77  CA        76.4400  -34.9640   35.5740 C.3   226  TYR226      0.1605
     78  C         77.3150  -34.6500   34.3690 C.2   226  TYR226      0.2264
     79  O         78.0650  -35.5050   33.8850 O.2   226  TYR226     -0.2867
     80  CB        74.9930  -35.1160   35.1070 C.3   226  TYR226      0.0534
     81  CG        74.0990  -36.0100   35.9290 C.ar  226  TYR226     -0.0201
     82  CD1       74.5680  -37.2000   36.4630 C.ar  226  TYR226     -0.0009
     83  CD2       72.7680  -35.6730   36.1400 C.ar  226  TYR226     -0.0009
     84  CE1       73.7430  -38.0210   37.1960 C.ar  226  TYR226      0.0417
     85  CE2       71.9350  -36.4870   36.8710 C.ar  226  TYR226      0.0417
     86  CZ        72.4260  -37.6620   37.3980 C.ar  226  TYR226      0.1957
     87  OH        71.5950  -38.4790   38.1290 O.3   226  TYR226     -0.2866
     88  N         77.2960  -37.2410   41.4850 N.3   258  ASP258     -0.1225
     89  CA        75.8730  -37.4120   41.2550 C.3   258  ASP258      0.1805
     90  C         75.6020  -38.8790   40.9210 C.2   258  ASP258      0.2597
     91  O         76.5150  -39.7110   40.8920 O.2   258  ASP258     -0.2718
     92  CB        75.3950  -36.4590   40.1620 C.3   258  ASP258      0.1424
     93  CG        73.9160  -36.1430   40.2730 C.2   258  ASP258      0.3668
     94  OD1       73.1780  -36.9700   40.8390 O.co2 258  ASP258     -0.2456
     95  OD2       73.4950  -35.0630   39.8140 O.co2 258  ASP258     -0.2456
     96  N         74.3330  -39.2080   40.6730 N.am  259  TRP259     -0.1976
     97  CA        73.9230  -40.5970   40.4860 C.3   259  TRP259      0.1640
     98  C         74.6830  -41.2600   39.3410 C.2   259  TRP259      0.2290
     99  O         74.3910  -41.0130   38.1670 O.2   259  TRP259     -0.2864
    100  CB        72.4100  -40.6810   40.2460 C.3   259  TRP259      0.0576
    101  CG        71.8520  -42.0870   40.2230 C.ar  259  TRP259      0.0006
    102  CD1       71.9660  -42.9950   39.2110 C.ar  259  TRP259      0.0946
    103  CD2       71.0690  -42.7280   41.2430 C.ar  259  TRP259      0.0152
    104  NE1       71.3230  -44.1600   39.5410 N.ar  259  TRP259     -0.2442
    105  CE2       70.7610  -44.0220   40.7820 C.ar  259  TRP259      0.0810
    106  CE3       70.6010  -42.3340   42.5000 C.ar  259  TRP259      0.0012
    107  CZ2       70.0110  -44.9250   41.5340 C.ar  259  TRP259      0.0191
    108  CZ3       69.8600  -43.2330   43.2470 C.ar  259  TRP259      0.0001
    109  CH2       69.5710  -44.5110   42.7610 C.ar  259  TRP259      0.0015
    110  N         78.6110  -42.1700   44.3130 N.3   291  MET291     -0.1245
    111  CA        77.1860  -42.4190   44.4620 C.3   291  MET291      0.1570
    112  C         76.7010  -43.3950   43.3950 C.2   291  MET291      0.2261
    113  O         76.8350  -43.1270   42.1960 O.2   291  MET291     -0.2867
    114  CB        76.4230  -41.1010   44.3900 C.3   291  MET291      0.0387
    115  CG        74.9370  -41.2540   44.4720 C.3   291  MET291      0.0595
    116  SD        74.1550  -39.6460   44.4870 S.3   291  MET291     -0.1393
    117  CE        72.6250  -40.1010   43.7450 C.3   291  MET291      0.0692
    118  N         60.3100  -33.6850   43.1070 N.3   399  TRP399     -0.1241
    119  CA        61.1000  -33.9250   44.3150 C.3   399  TRP399      0.1605
    120  C         60.2390  -33.8320   45.5720 C.2   399  TRP399      0.2264
    121  O         60.5730  -33.1420   46.5370 O.2   399  TRP399     -0.2867
    122  CB        62.3020  -32.9830   44.3910 C.3   399  TRP399      0.0550
    123  CG        63.3190  -33.3170   43.3660 C.ar  399  TRP399      0.0003
    124  CD1       63.5620  -32.6530   42.2040 C.ar  399  TRP399      0.0946
    125  CD2       64.2090  -34.4370   43.3840 C.ar  399  TRP399      0.0152
    126  NE1       64.5620  -33.2780   41.5030 N.ar  399  TRP399     -0.2442
    127  CE2       64.9760  -34.3770   42.2060 C.ar  399  TRP399      0.0810
    128  CE3       64.4340  -35.4810   44.2850 C.ar  399  TRP399      0.0012
    129  CZ2       65.9570  -35.3190   41.9060 C.ar  399  TRP399      0.0191
    130  CZ3       65.4080  -36.4140   43.9860 C.ar  399  TRP399      0.0001
    131  CH2       66.1560  -36.3280   42.8060 C.ar  399  TRP399      0.0015
    132  N         64.3230  -34.5120   35.6680 N.3   501  GLU501     -0.1245
    133  CA        65.3530  -35.2270   34.9340 C.3   501  GLU501      0.1567
    134  C         64.7690  -35.8970   33.6970 C.2   501  GLU501      0.2260
    135  O         63.6720  -36.4640   33.7340 O.2   501  GLU501     -0.2867
    136  CB        66.0150  -36.2610   35.8420 C.3   501  GLU501      0.0388
    137  CG        66.9980  -35.6510   36.8280 C.3   501  GLU501      0.1160
    138  CD        67.6410  -36.6800   37.7380 C.2   501  GLU501      0.3649
    139  OE1       67.1890  -36.8210   38.8960 O.co2 501  GLU501     -0.2457
    140  OE2       68.5960  -37.3510   37.2930 O.co2 501  GLU501     -0.2457
@<TRIPOS>BOND
     1   134   135    2
     2   134   133    1
     3    79    78    2
     4    78    77    1
     5   133   132    1
     6   133   136    1
     7    80    77    1
     8    80    81    1
     9    38    39    1
    10    77    76    1
    11   136   137    1
    12    81    83   ar
    13    81    82   ar
    14    83    85   ar
    15    82    84   ar
    16    39    40    1
    17    39    42    1
    18    43    42    1
    19    43    44    1
    20   137   138    1
    21    85    86   ar
    22    40    41    2
    23    84    86   ar
    24   140   138   ar
    25    86    87    1
    26    45    44    1
    27    45    46    2
    28   138   139   ar
    29    99    98    2
    30    47    46    1
    31    46    48    1
    32   102   104   ar
    33   102   101   ar
    34    98    97    1
    35    61    60    2
    36   104   105   ar
    37    95    93   ar
    38    62    63    1
    39    62    59    1
    40    92    93    1
    41    92    89    1
    42   101   100    1
    43   101   103   ar
    44   100    97    1
    45    93    94   ar
    46    63    64   ar
    47    63    65   ar
    48    64    66   ar
    49    60    59    1
    50    97    96    1
    51    96    90   am
    52    65    67   ar
    53   105   103   ar
    54   105   107   ar
    55    66    67   ar
    56    91    90    2
    57    90    89    1
    58    59    58    1
    59   103   106   ar
    60    89    88    1
    61   126   124   ar
    62   126   127   ar
    63   107   109   ar
    64    58    51   am
    65   129   127   ar
    66   129   131   ar
    67   113   112    2
    68   124   123   ar
    69   127   125   ar
    70   106   108   ar
    71   109   108   ar
    72    71    70    2
    73   131   130   ar
    74    51    52    2
    75    51    50    1
    76   118   119    1
    77    70    69    1
    78   123   125   ar
    79   123   122    1
    80   125   128   ar
    81   112   111    1
    82    74    73    1
    83    74    75    1
    84   117   116    1
    85    73    72    1
    86    50    53    1
    87    50    49    1
    88   130   128   ar
    89    53    54    1
    90   110   111    1
    91   119   122    1
    92   119   120    1
    93    54    55    1
    94    56    55    1
    95    56    57    1
    96   114   111    1
    97   114   115    1
    98   115   116    1
    99    72    69    1
   100    69    68    1
   101    18    16   ar
   102    18    17   ar
   103   120   121    2
   104    16    14   ar
   105    25    24   ar
   106    26    24   ar
   107    24    23    1
   108    17    15   ar
   109     7     6    1
   110    14    15   ar
   111    14    13    1
   112     8     6    1
   113    30    29    2
   114    23    20    1
   115     6     5    1
   116    31    32    1
   117    31    28    1
   118    34    32   ar
   119    34    36   ar
   120    13    10    1
   121    32    33   ar
   122    29    28    1
   123    36    37   ar
   124    28    27    1
   125    20    19    1
   126    20    21    1
   127    33    35   ar
   128     5     2    1
   129    37    35   ar
   130     4     3    2
   131    10     9    1
   132    10    11    1
   133    22    21    2
   134     3     9   am
   135     3     2    1
   136    12    11    2
   137     2     1    1
