@<TRIPOS>MOLECULE
tmp/5z9yB00.pdb
 129 121 0 0 0
SMALL
GASTEIGER

@<TRIPOS>ATOM
      1  N         86.6270   -3.2350   23.5620 N.3    16  GLY16      -0.1210
      2  CA        85.9850   -2.8650   24.8240 C.3    16  GLY16       0.1956
      3  C         86.9130   -3.2800   25.9620 C.2    16  GLY16       0.2613
      4  O         87.8260   -4.1030   25.7840 O.2    16  GLY16      -0.2717
      5  N         86.7200   -2.6840   27.1350 N.am   17  THR17      -0.1938
      6  CA        87.5330   -2.9460   28.3090 C.3    17  THR17       0.2028
      7  C         86.7860   -3.7750   29.4020 C.2    17  THR17       0.2642
      8  O         87.4190   -4.2910   30.3260 O.2    17  THR17      -0.2714
      9  CB        88.0880   -1.5920   28.9300 C.3    17  THR17       0.1808
     10  OG1       87.0480   -0.5780   29.0010 O.3    17  THR17      -0.2208
     11  CG2       89.1850   -1.0070   28.0470 C.3    17  THR17       0.0379
     12  N         85.4730   -3.9490   29.2680 N.am   18  GLY18      -0.1954
     13  CA        84.6980   -4.7080   30.2560 C.3    18  GLY18       0.1869
     14  C         85.1380   -6.1530   30.3570 C.2    18  GLY18       0.2309
     15  O         85.4780   -6.8010   29.3440 O.2    18  GLY18      -0.2863
     16  N         86.4920    1.3830   23.9770 N.3    39  THR39      -0.1218
     17  CA        85.3900    1.9010   24.7860 C.3    39  THR39       0.1862
     18  C         85.6960    1.8600   26.2620 C.2    39  THR39       0.2287
     19  O         86.4050    0.9430   26.7460 O.2    39  THR39      -0.2866
     20  CB        84.0730    1.1040   24.5760 C.3    39  THR39       0.1770
     21  OG1       84.2640   -0.2690   24.9480 O.3    39  THR39      -0.2211
     22  CG2       83.6480    1.1240   23.2350 C.3    39  THR39       0.0375
     23  N         81.2100    5.0350   26.7630 N.3    58  ASN58      -0.1240
     24  CA        79.9190    4.4020   26.4880 C.3    58  ASN58       0.1653
     25  C         78.9470    4.5680   27.6370 C.2    58  ASN58       0.2266
     26  O         79.3730    4.6780   28.8010 O.2    58  ASN58      -0.2867
     27  CB        80.0850    2.9200   26.1860 C.3    58  ASN58       0.1155
     28  CG        80.5150    2.1630   27.3780 C.2    58  ASN58       0.2627
     29  OD1       79.7670    2.0530   28.3700 O.2    58  ASN58      -0.2716
     30  ND2       81.7090    1.6180   27.3260 N.am   58  ASN58      -0.0877
     31  N         79.5570    5.9620   22.4820 N.3    85  LYS85      -0.1245
     32  CA        78.8950    4.6970   22.1850 C.3    85  LYS85       0.1561
     33  C         77.6010    4.6750   22.9870 C.2    85  LYS85       0.2260
     34  O         77.5980    4.6380   24.1660 O.2    85  LYS85      -0.2867
     35  CB        79.7530    3.4660   22.5200 C.3    85  LYS85       0.0271
     36  CG        78.9900    2.1430   22.3940 C.3    85  LYS85       0.0035
     37  CD        79.8480    0.9210   22.5990 C.3    85  LYS85       0.0206
     38  CE        78.9760   -0.3270   22.6320 C.3    85  LYS85       0.1093
     39  NZ        79.6150   -1.4970   23.2590 N.3    85  LYS85      -0.1314
     40  N         74.3570    3.2640   24.4010 N.3    87  GLU87      -0.1245
     41  CA        73.7360    1.9890   24.8010 C.3    87  GLU87       0.1567
     42  C         72.5130    2.2960   25.6760 C.2    87  GLU87       0.2260
     43  O         72.6700    2.9880   26.6970 O.2    87  GLU87      -0.2867
     44  CB        74.7870    1.1650   25.5680 C.3    87  GLU87       0.0388
     45  CG        74.3020   -0.2140   26.0470 C.3    87  GLU87       0.1160
     46  CD        75.3700   -0.9870   26.8580 C.2    87  GLU87       0.3649
     47  OE1       76.5100   -1.1470   26.3500 O.co2  87  GLU87      -0.2457
     48  OE2       75.0570   -1.4210   28.0150 O.co2  87  GLU87      -0.2457
     49  N         74.6310    1.1520   19.7910 N.3   119  TYR119     -0.1241
     50  CA        74.5080   -0.3070   19.9300 C.3   119  TYR119      0.1605
     51  C         73.0740   -0.6540   19.6100 C.2   119  TYR119      0.2264
     52  O         72.1290   -0.2160   20.2910 O.2   119  TYR119     -0.2867
     53  CB        74.8760   -0.6900   21.4110 C.3   119  TYR119      0.0534
     54  CG        74.4340   -2.0640   21.8760 C.ar  119  TYR119     -0.0201
     55  CD1       74.8750   -3.2210   21.2700 C.ar  119  TYR119     -0.0009
     56  CD2       73.5740   -2.1550   22.9550 C.ar  119  TYR119     -0.0009
     57  CE1       74.4500   -4.4810   21.7640 C.ar  119  TYR119      0.0417
     58  CE2       73.1590   -3.3970   23.4360 C.ar  119  TYR119      0.0417
     59  CZ        73.5760   -4.4980   22.8240 C.ar  119  TYR119      0.1957
     60  OH        73.1530   -5.7370   23.3310 O.3   119  TYR119     -0.2866
     61  N         75.4170   -9.8520   24.2250 N.3   145  ILE145     -0.1231
     62  CA        76.7040   -9.4860   24.8720 C.3   145  ILE145      0.1692
     63  C         77.1580  -10.6140   25.7630 C.2   145  ILE145      0.2592
     64  O         76.4130  -11.1910   26.6170 O.2   145  ILE145     -0.2718
     65  CB        76.5270   -8.1910   25.6640 C.3   145  ILE145      0.0266
     66  CG1       76.3920   -7.0070   24.6860 C.3   145  ILE145      0.0019
     67  CG2       77.6950   -7.9900   26.6780 C.3   145  ILE145      0.0020
     68  CD1       75.9400   -5.6630   25.3840 C.3   145  ILE145      0.0001
     69  N         78.4100  -10.9870   25.5470 N.am  146  GLY146     -0.1957
     70  CA        79.0540  -11.9240   26.4470 C.3   146  GLY146      0.1869
     71  C         78.7710  -13.3690   26.2000 C.2   146  GLY146      0.2309
     72  O         79.3580  -14.2420   26.8750 O.2   146  GLY146     -0.2863
     73  N         78.9570   -5.4770   16.8190 N.3   171  ASP171     -0.1225
     74  CA        79.4870   -5.1500   18.1460 C.3   171  ASP171      0.1805
     75  C         79.1070   -5.8640   19.4060 C.2   171  ASP171      0.2598
     76  O         79.1770   -5.2290   20.5200 O.2   171  ASP171     -0.2718
     77  CB        79.2760   -3.6400   18.4570 C.3   171  ASP171      0.1424
     78  CG        77.9070   -3.3050   18.8020 C.2   171  ASP171      0.3668
     79  OD1       77.0180   -4.0180   18.2710 O.co2 171  ASP171     -0.2456
     80  OD2       77.6730   -2.2810   19.5860 O.co2 171  ASP171     -0.2456
     81  N         78.7640   -7.1110   19.2990 N.am  172  ALA172     -0.1966
     82  CA        78.4580   -7.9440   20.4870 C.3   172  ALA172      0.1728
     83  C         78.4260   -9.3740   20.0560 C.2   172  ALA172      0.2617
     84  O         77.9620   -9.6850   18.9520 O.2   172  ALA172     -0.2715
     85  CB        77.0600   -7.5640   21.1280 C.3   172  ALA172      0.0334
     86  N         78.8130  -10.2800   20.9340 N.am  173  GLY173     -0.1940
     87  CA        78.5450  -11.7090   20.7290 C.3   173  GLY173      0.2014
     88  C         79.7120  -12.4840   20.1190 C.2   173  GLY173      0.2638
     89  O         79.6320  -13.7080   20.0550 O.2   173  GLY173     -0.2714
     90  N         80.7670  -11.7940   19.6630 N.am  174  ILE174     -0.1977
     91  CA        81.8870  -12.5330   19.0870 C.3   174  ILE174      0.1596
     92  C         82.4700  -13.4980   20.0970 C.2   174  ILE174      0.2287
     93  O         82.6570  -13.1570   21.3030 O.2   174  ILE174     -0.2864
     94  CB        82.9730  -11.5370   18.6320 C.3   174  ILE174      0.0276
     95  CG1       82.4750  -10.5800   17.5250 C.3   174  ILE174      0.0022
     96  CG2       84.2430  -12.2500   18.1930 C.3   174  ILE174      0.0022
     97  CD1       82.2800  -11.3320   16.1830 C.3   174  ILE174      0.0001
     98  N         83.5740   -4.6810   16.8850 N.3   192  LEU192     -0.1231
     99  CA        83.8210   -4.2170   18.2790 C.3   192  LEU192      0.1693
    100  C         83.6090   -5.4240   19.2030 C.2   192  LEU192      0.2592
    101  O         82.5700   -6.0950   19.1020 O.2   192  LEU192     -0.2718
    102  CB        82.8720   -3.0630   18.6400 C.3   192  LEU192      0.0284
    103  CG        83.1560   -2.3110   19.9560 C.3   192  LEU192      0.0019
    104  CD1       82.3570   -0.9430   19.9550 C.3   192  LEU192      0.0001
    105  CD2       82.6520   -3.1200   21.1410 C.3   192  LEU192      0.0001
    106  N         84.5930   -5.6800   20.0640 N.am  193  LEU193     -0.1966
    107  CA        84.4150   -6.8070   20.9670 C.3   193  LEU193      0.1728
    108  C         85.1260   -6.5170   22.2760 C.2   193  LEU193      0.2616
    109  O         86.0890   -5.7130   22.3620 O.2   193  LEU193     -0.2715
    110  CB        84.8980   -8.1150   20.2720 C.3   193  LEU193      0.0311
    111  CG        86.3680   -8.0990   19.8670 C.3   193  LEU193      0.0022
    112  CD1       87.2990   -8.5290   21.0600 C.3   193  LEU193      0.0001
    113  CD2       86.5900   -9.0530   18.7040 C.3   193  LEU193      0.0001
    114  N         84.6420   -7.2310   23.2950 N.am  194  ALA194     -0.1963
    115  CA        85.2900   -7.1630   24.5900 C.3   194  ALA194      0.1728
    116  C         85.4590   -8.5560   25.1770 C.2   194  ALA194      0.2617
    117  O         86.6350   -8.9970   25.2340 O.2   194  ALA194     -0.2715
    118  CB        84.4960   -6.2850   25.5840 C.3   194  ALA194      0.0334
    119  N         84.3270   -9.2240   25.5280 N.am  195  SER195     -0.1936
    120  CA        84.3980  -10.5310   26.2470 C.3   195  SER195      0.2055
    121  C         85.3240  -11.5430   25.6650 C.2   195  SER195      0.2642
    122  O         85.9930  -12.2700   26.3880 O.2   195  SER195     -0.2714
    123  CB        82.9850  -11.1730   26.2900 C.3   195  SER195      0.2130
    124  OG        82.1200  -10.2950   27.0040 O.3   195  SER195     -0.2179
    125  N         85.3040  -11.7090   24.3490 N.am  196  ALA196     -0.1977
    126  CA        86.0770  -12.7950   23.7490 C.3   196  ALA196      0.1597
    127  C         87.5600  -12.6580   24.0120 C.2   196  ALA196      0.2287
    128  O         88.2790  -13.6640   24.0090 O.2   196  ALA196     -0.2864
    129  CB        85.8190  -12.8140   22.2100 C.3   196  ALA196      0.0319
@<TRIPOS>BOND
     1    97    95    1
     2    73    74    1
     3    98    99    1
     4    95    94    1
     5    74    77    1
     6    74    75    1
     7    96    94    1
     8    79    78   ar
     9    99   102    1
    10    99   100    1
    11    77    78    1
    12    94    91    1
    13   102   103    1
    14   113   111    1
    15    78    80   ar
    16    84    83    2
    17    91    90    1
    18    91    92    1
    19   101   100    2
    20   100   106   am
    21    81    75   am
    22    81    82    1
    23    75    76    2
    24    51    50    1
    25    51    52    2
    26    90    88   am
    27    49    50    1
    28   111   110    1
    29   111   112    1
    30    50    53    1
    31   104   103    1
    32   103   105    1
    33    89    88    2
    34    83    82    1
    35    83    86   am
    36   106   107    1
    37    92    93    2
    38    88    87    1
    39   110   107    1
    40    82    85    1
    41    87    86    1
    42   107   108    1
    43    55    57   ar
    44    55    54   ar
    45    53    54    1
    46    57    59   ar
    47    54    56   ar
    48    32    31    1
    49    32    35    1
    50    32    33    1
    51   129   126    1
    52   108   109    2
    53   108   114   am
    54    36    35    1
    55    36    37    1
    56    37    38    1
    57    38    39    1
    58    59    60    1
    59    59    58   ar
    60    56    58   ar
    61    33    34    2
    62    22    20    1
    63   114   115    1
    64     1     2    1
    65   126   127    1
    66   126   125    1
    67    16    17    1
    68   128   127    2
    69    61    62    1
    70   125   121   am
    71    40    41    1
    72    20    17    1
    73    20    21    1
    74   115   116    1
    75   115   118    1
    76    66    68    1
    77    66    65    1
    78    17    18    1
    79    41    44    1
    80    41    42    1
    81     2     3    1
    82    62    65    1
    83    62    63    1
    84   116   117    2
    85   116   119   am
    86   119   120    1
    87    69    63   am
    88    69    70    1
    89    44    45    1
    90    65    67    1
    91   121   120    1
    92   121   122    2
    93    42    43    2
    94    63    64    2
    95     4     3    2
    96     3     5   am
    97    45    46    1
    98    27    24    1
    99    27    28    1
   100    71    70    1
   101    71    72    2
   102   120   123    1
   103    18    19    2
   104   123   124    1
   105    47    46   ar
   106    24    23    1
   107    24    25    1
   108    46    48   ar
   109     5     6    1
   110    30    28   am
   111    28    29    2
   112    25    26    2
   113    11     9    1
   114     6     9    1
   115     6     7    1
   116     9    10    1
   117    12     7   am
   118    12    13    1
   119    15    14    2
   120     7     8    2
   121    13    14    1
