@<TRIPOS>MOLECULE
tmp/5za1A00.pdb
 240 231 0 0 0
SMALL
GASTEIGER

@<TRIPOS>ATOM
      1  N         -5.5120   33.2810  -31.6060 N.3    21  CYS21      -0.1221
      2  CA        -6.4080   32.4970  -32.4200 C.3    21  CYS21       0.1808
      3  C         -6.9550   31.2270  -31.7410 C.2    21  CYS21       0.2601
      4  O         -7.8470   30.5920  -32.2920 O.2    21  CYS21      -0.2717
      5  CB        -5.7150   32.1520  -33.7280 C.3    21  CYS21       0.0970
      6  SG        -4.2390   31.1170  -33.5730 S.3    21  CYS21      -0.0800
      7  N         -6.4340   30.8880  -30.5520 N.am   22  GLN22      -0.1965
      8  CA        -6.8830   29.7710  -29.6870 C.3    22  GLN22       0.1733
      9  C         -6.3380   28.4060  -30.1400 C.2    22  GLN22       0.2616
     10  O         -5.5340   27.8300  -29.4640 O.2    22  GLN22      -0.2715
     11  CB        -8.4020   29.7830  -29.4640 C.3    22  GLN22       0.0408
     12  CG        -8.9040   28.7940  -28.4230 C.3    22  GLN22       0.0908
     13  CD       -10.4100   28.8530  -28.2120 C.2    22  GLN22       0.2608
     14  OE1      -11.0960   29.7350  -28.7480 O.2    22  GLN22      -0.2717
     15  NE2      -10.9430   27.8990  -27.4360 N.am   22  GLN22      -0.0878
     16  N         -6.7720   27.8690  -31.2620 N.am   23  LEU23      -0.1977
     17  CA        -6.2110   26.6090  -31.7630 C.3    23  LEU23       0.1596
     18  C         -5.5380   26.8870  -33.0970 C.2    23  LEU23       0.2287
     19  O         -6.0490   27.6820  -33.8700 O.2    23  LEU23      -0.2864
     20  CB        -7.3110   25.5630  -31.9370 C.3    23  LEU23       0.0297
     21  CG        -8.0690   25.1010  -30.6800 C.3    23  LEU23       0.0022
     22  CD1       -9.1540   24.1030  -31.0840 C.3    23  LEU23       0.0001
     23  CD2       -7.1780   24.5070  -29.5740 C.3    23  LEU23       0.0001
     24  N         -6.1510   21.9260  -36.3270 N.3    28  LEU28      -0.1245
     25  CA        -7.5500   21.7150  -36.6680 C.3    28  LEU28       0.1561
     26  C         -7.6940   20.8330  -37.8990 C.2    28  LEU28       0.2260
     27  O         -8.5360   19.8840  -37.8980 O.2    28  LEU28      -0.2867
     28  CB        -8.3040   23.0260  -36.8860 C.3    28  LEU28       0.0270
     29  CG        -8.7690   23.7910  -35.6460 C.3    28  LEU28       0.0019
     30  CD1       -9.4750   25.0520  -36.0970 C.3    28  LEU28       0.0001
     31  CD2       -9.6840   22.9950  -34.7380 C.3    28  LEU28       0.0001
     32  N        -26.0930   22.2820  -22.7770 N.3    53  TRP53      -0.1241
     33  CA       -26.0590   23.7590  -22.7810 C.3    53  TRP53       0.1605
     34  C        -24.9360   24.3000  -21.8980 C.2    53  TRP53       0.2264
     35  O        -24.2960   25.2740  -22.2640 O.2    53  TRP53      -0.2867
     36  CB       -27.3850   24.3590  -22.3320 C.3    53  TRP53       0.0550
     37  CG       -28.4410   24.4850  -23.4320 C.ar   53  TRP53       0.0003
     38  CD1      -29.6750   23.9070  -23.4340 C.ar   53  TRP53       0.0946
     39  CD2      -28.3530   25.2430  -24.6640 C.ar   53  TRP53       0.0152
     40  NE1      -30.3600   24.2460  -24.5760 N.ar   53  TRP53      -0.2442
     41  CE2      -29.5820   25.0670  -25.3500 C.ar   53  TRP53       0.0810
     42  CE3      -27.3570   26.0380  -25.2590 C.ar   53  TRP53       0.0012
     43  CZ2      -29.8540   25.6750  -26.6060 C.ar   53  TRP53       0.0191
     44  CZ3      -27.6320   26.6550  -26.5170 C.ar   53  TRP53       0.0001
     45  CH2      -28.8690   26.4640  -27.1620 C.ar   53  TRP53       0.0015
     46  N        -21.4570   23.5780  -23.7390 N.3    56  CYS56      -0.1235
     47  CA       -21.3440   24.4230  -24.8830 C.3    56  CYS56       0.1677
     48  C        -21.1060   25.8860  -24.4960 C.2    56  CYS56       0.2270
     49  O        -20.3620   26.5990  -25.1920 O.2    56  CYS56      -0.2867
     50  CB       -22.6080   24.3010  -25.7320 C.3    56  CYS56       0.0956
     51  SG       -22.8280   22.6750  -26.5300 S.3    56  CYS56      -0.0801
     52  N        -17.5100   26.2980  -23.4640 N.3    59  HIS59      -0.1226
     53  CA       -16.5800   26.3730  -24.5560 C.3    59  HIS59       0.1752
     54  C        -16.7120   27.6730  -25.2690 C.2    59  HIS59       0.2595
     55  O        -15.7360   28.1500  -25.7700 O.2    59  HIS59      -0.2718
     56  CB       -16.7830   25.2360  -25.5460 C.3    59  HIS59       0.0759
     57  CG       -16.5760   23.8940  -24.9490 C.ar   59  HIS59       0.0818
     58  ND1      -17.5510   22.9250  -24.9650 N.ar   59  HIS59      -0.2268
     59  CD2      -15.5160   23.3590  -24.2970 C.ar   59  HIS59       0.1154
     60  CE1      -17.0920   21.8400  -24.3650 C.ar   59  HIS59       0.1986
     61  NE2      -15.8570   22.0740  -23.9550 N.ar   59  HIS59      -0.2212
     62  N        -17.9250   28.2060  -25.3680 N.am   60  LEU60      -0.1980
     63  CA       -18.1360   29.5000  -25.9850 C.3    60  LEU60       0.1596
     64  C        -17.4830   30.6170  -25.1780 C.2    60  LEU60       0.2287
     65  O        -16.8690   31.5380  -25.7560 O.2    60  LEU60      -0.2864
     66  CB       -19.6210   29.7780  -26.2620 C.3    60  LEU60       0.0297
     67  CG       -20.2170   28.9150  -27.4240 C.3    60  LEU60       0.0022
     68  CD1      -21.7460   28.9280  -27.5520 C.3    60  LEU60       0.0001
     69  CD2      -19.6120   29.1710  -28.7880 C.3    60  LEU60       0.0001
     70  N        -13.9210   30.6140  -25.7510 N.3    63  ALA63      -0.1245
     71  CA       -13.6010   31.2190  -27.0430 C.3    63  ALA63       0.1562
     72  C        -13.7080   32.7480  -26.9840 C.2    63  ALA63       0.2260
     73  O        -12.8910   33.4350  -27.5430 O.2    63  ALA63      -0.2867
     74  CB       -14.4920   30.6670  -28.1530 C.3    63  ALA63       0.0290
     75  N        -19.0230   37.3020  -29.5680 N.3    94  MET94      -0.1245
     76  CA       -19.6930   36.0860  -29.9940 C.3    94  MET94       0.1570
     77  C        -19.7670   36.0140  -31.5260 C.2    94  MET94       0.2261
     78  O        -19.7310   34.9430  -32.1100 O.2    94  MET94      -0.2867
     79  CB       -21.0920   36.0540  -29.3720 C.3    94  MET94       0.0387
     80  CG       -21.7360   34.6950  -29.3350 C.3    94  MET94       0.0595
     81  SD       -20.8400   33.5570  -28.2620 S.3    94  MET94      -0.1393
     82  CE       -21.6050   32.0760  -28.8320 C.3    94  MET94       0.0692
     83  N        -16.4250   34.8780  -32.6480 N.3    97  VAL97      -0.1231
     84  CA       -16.3130   33.4380  -32.4090 C.3    97  VAL97       0.1692
     85  C        -16.9450   32.6630  -33.5560 C.2    97  VAL97       0.2591
     86  O        -16.3590   31.7410  -34.0600 O.2    97  VAL97      -0.2718
     87  CB       -16.9370   33.0160  -31.0650 C.3    97  VAL97       0.0266
     88  CG1      -17.0740   31.5120  -30.9790 C.3    97  VAL97       0.0020
     89  CG2      -16.0870   33.5170  -29.8900 C.3    97  VAL97       0.0020
     90  N        -18.1400   33.0540  -33.9600 N.am   98  LEU98      -0.1980
     91  CA       -18.8520   32.3950  -35.0300 C.3    98  LEU98       0.1596
     92  C        -18.0200   32.3720  -36.3210 C.2    98  LEU98       0.2287
     93  O        -17.8610   31.3520  -36.9510 O.2    98  LEU98      -0.2864
     94  CB       -20.2180   33.0720  -35.2320 C.3    98  LEU98       0.0297
     95  CG       -21.0350   32.5470  -36.4340 C.3    98  LEU98       0.0022
     96  CD1      -21.3620   31.0820  -36.3070 C.3    98  LEU98       0.0001
     97  CD2      -22.3190   33.3240  -36.6100 C.3    98  LEU98       0.0001
     98  N        -14.6470   32.8560  -36.4360 N.3   100  ARG100     -0.1231
     99  CA       -13.4480   32.0710  -36.1370 C.3   100  ARG100      0.1694
    100  C        -13.7470   30.5870  -36.2650 C.2   100  ARG100      0.2591
    101  O        -13.0040   29.8310  -36.8720 O.2   100  ARG100     -0.2718
    102  CB       -12.9440   32.3380  -34.7320 C.3   100  ARG100      0.0321
    103  CG       -12.2810   33.6580  -34.5090 C.3   100  ARG100      0.0489
    104  CD       -11.9390   33.8240  -33.0530 C.3   100  ARG100      0.2205
    105  NE       -10.8750   34.8050  -32.9450 N.pl3 100  ARG100     -0.0865
    106  CZ        -9.9270   34.8470  -32.0120 C.cat 100  ARG100      0.5346
    107  NH1       -9.0040   35.8070  -32.0670 N.pl3 100  ARG100      0.1354
    108  NH2       -9.8860   33.9410  -31.0350 N.pl3 100  ARG100      0.1354
    109  N        -14.8680   30.1820  -35.7090 N.am  101  MET101     -0.1979
    110  CA       -15.1910   28.7780  -35.6450 C.3   101  MET101      0.1605
    111  C        -15.3660   28.0960  -36.9840 C.2   101  MET101      0.2287
    112  O        -15.2260   26.8830  -37.0890 O.2   101  MET101     -0.2864
    113  CB       -16.3770   28.5030  -34.6980 C.3   101  MET101      0.0413
    114  CG       -16.1740   27.1600  -34.0310 C.3   101  MET101      0.0598
    115  SD       -16.9440   27.0030  -32.4540 S.3   101  MET101     -0.1393
    116  CE       -15.9980   28.0470  -31.3580 C.3   101  MET101      0.0692
    117  N        -13.2250   27.9200  -39.0530 N.3   103  ARG103     -0.1231
    118  CA       -11.9550   27.2610  -39.1770 C.3   103  ARG103      0.1694
    119  C        -12.0110   25.8320  -38.6720 C.2   103  ARG103      0.2591
    120  O        -11.2770   24.9680  -39.1400 O.2   103  ARG103     -0.2718
    121  CB       -10.9080   27.9800  -38.3320 C.3   103  ARG103      0.0321
    122  CG       -10.5400   29.3840  -38.8040 C.3   103  ARG103      0.0489
    123  CD        -9.3200   29.9130  -38.0940 C.3   103  ARG103      0.2205
    124  NE        -9.1280   29.3600  -36.7580 N.pl3 103  ARG103     -0.0865
    125  CZ        -7.9600   29.0860  -36.2030 C.cat 103  ARG103      0.5346
    126  NH1       -7.9370   28.5540  -35.0040 N.pl3 103  ARG103      0.1354
    127  NH2       -6.8170   29.3200  -36.8150 N.pl3 103  ARG103      0.1354
    128  N        -12.8710   25.5990  -37.6870 N.am  104  ALA104     -0.1980
    129  CA       -13.0880   24.2920  -37.1210 C.3   104  ALA104      0.1597
    130  C        -14.2160   23.4980  -37.7880 C.2   104  ALA104      0.2287
    131  O        -14.6710   22.4920  -37.2430 O.2   104  ALA104     -0.2864
    132  CB       -13.3490   24.4640  -35.6280 C.3   104  ALA104      0.0319
    133  N        -17.8960   19.5290  -37.2080 N.3   112  VAL112     -0.1231
    134  CA       -17.2180   20.5860  -36.4480 C.3   112  VAL112      0.1692
    135  C        -16.3970   19.9990  -35.3320 C.2   112  VAL112      0.2592
    136  O        -16.7590   18.9790  -34.7660 O.2   112  VAL112     -0.2718
    137  CB       -18.2140   21.6190  -35.8800 C.3   112  VAL112      0.0266
    138  CG1      -19.0300   21.0490  -34.7240 C.3   112  VAL112      0.0020
    139  CG2      -17.4790   22.8970  -35.4700 C.3   112  VAL112      0.0020
    140  N        -15.2780   20.6480  -35.0240 N.am  113  PHE113     -0.1962
    141  CA       -14.4260   20.2470  -33.9030 C.3   113  PHE113      0.1771
    142  C        -15.0980   20.6510  -32.6020 C.2   113  PHE113      0.2620
    143  O        -15.5240   21.7590  -32.4560 O.2   113  PHE113     -0.2715
    144  CB       -13.0550   20.9050  -34.0080 C.3   113  PHE113      0.0574
    145  CG       -12.0170   20.3480  -33.0410 C.ar  113  PHE113     -0.0200
    146  CD1      -11.5110   19.0810  -33.2070 C.ar  113  PHE113     -0.0042
    147  CD2      -11.5380   21.1200  -31.9980 C.ar  113  PHE113     -0.0042
    148  CE1      -10.5570   18.5930  -32.3530 C.ar  113  PHE113     -0.0003
    149  CE2      -10.5860   20.6400  -31.1280 C.ar  113  PHE113     -0.0003
    150  CZ       -10.0980   19.3650  -31.2960 C.ar  113  PHE113     -0.0000
    151  N        -15.1810   19.7280  -31.6690 N.am  114  PHE114     -0.1960
    152  CA       -15.9270   19.8870  -30.3930 C.3   114  PHE114      0.1771
    153  C        -15.4040   18.8420  -29.4020 C.2   114  PHE114      0.2619
    154  O        -15.5650   17.6450  -29.6390 O.2   114  PHE114     -0.2715
    155  CB       -17.4240   19.6280  -30.6550 C.3   114  PHE114      0.0574
    156  CG       -18.2900   19.7450  -29.4300 C.ar  114  PHE114     -0.0200
    157  CD1      -18.6830   20.9740  -28.9660 C.ar  114  PHE114     -0.0042
    158  CD2      -18.7130   18.6270  -28.7570 C.ar  114  PHE114     -0.0042
    159  CE1      -19.4630   21.0640  -27.8430 C.ar  114  PHE114     -0.0003
    160  CE2      -19.4780   18.7200  -27.6330 C.ar  114  PHE114     -0.0003
    161  CZ       -19.8630   19.9330  -27.1750 C.ar  114  PHE114     -0.0000
    162  N        -14.7620   19.2890  -28.3310 N.am  115  GLU115     -0.1977
    163  CA       -14.2250   18.4030  -27.2780 C.3   115  GLU115      0.1602
    164  C        -13.3410   17.3170  -27.8610 C.2   115  GLU115      0.2287
    165  O        -13.5680   16.1400  -27.6110 O.2   115  GLU115     -0.2864
    166  CB       -15.3430   17.7580  -26.4600 C.3   115  GLU115      0.0415
    167  CG       -16.2760   18.7710  -25.8670 C.3   115  GLU115      0.1163
    168  CD       -17.1810   18.2030  -24.8050 C.2   115  GLU115      0.3649
    169  OE1      -17.3170   16.9920  -24.7040 O.co2 115  GLU115     -0.2457
    170  OE2      -17.7840   18.9860  -24.0590 O.co2 115  GLU115     -0.2457
    171  N        -25.5010   17.6480  -31.1910 N.3   124  PHE124     -0.1241
    172  CA       -26.2100   18.6380  -30.4030 C.3   124  PHE124      0.1605
    173  C        -27.7160   18.4100  -30.3010 C.2   124  PHE124      0.2264
    174  O        -28.4220   19.2980  -29.9060 O.2   124  PHE124     -0.2867
    175  CB       -25.8920   19.9630  -31.0360 C.3   124  PHE124      0.0534
    176  CG       -24.4090   20.1800  -31.1440 C.ar  124  PHE124     -0.0203
    177  CD1      -23.6670   20.4020  -29.9970 C.ar  124  PHE124     -0.0042
    178  CD2      -23.7570   20.0960  -32.3720 C.ar  124  PHE124     -0.0042
    179  CE1      -22.3040   20.5630  -30.0720 C.ar  124  PHE124     -0.0003
    180  CE2      -22.3960   20.2640  -32.4630 C.ar  124  PHE124     -0.0003
    181  CZ       -21.6700   20.4800  -31.3070 C.ar  124  PHE124     -0.0000
    182  N        -29.8760   19.5630  -27.1450 N.3   127  LEU127     -0.1245
    183  CA       -30.2090   20.9920  -26.9970 C.3   127  LEU127      0.1561
    184  C        -31.6320   21.3780  -27.4620 C.2   127  LEU127      0.2260
    185  O        -32.1900   22.3690  -27.0170 O.2   127  LEU127     -0.2867
    186  CB       -29.2190   21.8340  -27.7770 C.3   127  LEU127      0.0270
    187  CG       -27.7830   21.6870  -27.3700 C.3   127  LEU127      0.0019
    188  CD1      -26.9350   22.6570  -28.1640 C.3   127  LEU127      0.0001
    189  CD2      -27.6560   21.9430  -25.8890 C.3   127  LEU127      0.0001
    190  N        -29.0720   25.2490  -34.9510 N.3   133  ILE133     -0.1245
    191  CA       -27.8380   24.5060  -35.2120 C.3   133  ILE133      0.1561
    192  C        -27.6270   24.3240  -36.7040 C.2   133  ILE133      0.2260
    193  O        -26.5470   24.6050  -37.2430 O.2   133  ILE133     -0.2867
    194  CB       -27.8650   23.1250  -34.5400 C.3   133  ILE133      0.0252
    195  CG1      -27.9360   23.2530  -33.0170 C.3   133  ILE133      0.0019
    196  CG2      -26.6900   22.2800  -34.9860 C.3   133  ILE133      0.0019
    197  CD1      -26.8270   24.0410  -32.3650 C.3   133  ILE133      0.0001
    198  N        -26.4490   27.6160  -38.0940 N.3   136  ILE136     -0.1231
    199  CA       -25.0590   27.7680  -37.7900 C.3   136  ILE136      0.1692
    200  C        -24.2240   26.8840  -38.7120 C.2   136  ILE136      0.2592
    201  O        -23.2090   27.3230  -39.2350 O.2   136  ILE136     -0.2718
    202  CB       -24.8090   27.5200  -36.2800 C.3   136  ILE136      0.0266
    203  CG1      -25.2850   28.7630  -35.5180 C.3   136  ILE136      0.0019
    204  CG2      -23.3360   27.2850  -35.9420 C.3   136  ILE136      0.0020
    205  CD1      -25.6870   28.4770  -34.0880 C.3   136  ILE136      0.0001
    206  N        -24.6350   25.6490  -38.9190 N.am  137  PHE137     -0.1976
    207  CA       -23.8890   24.7790  -39.8400 C.3   137  PHE137      0.1639
    208  C        -23.9350   25.2280  -41.3040 C.2   137  PHE137      0.2290
    209  O        -22.9230   25.1040  -41.9990 O.2   137  PHE137     -0.2864
    210  CB       -24.3310   23.3000  -39.7300 C.3   137  PHE137      0.0560
    211  CG       -23.6150   22.5240  -38.6380 C.ar  137  PHE137     -0.0200
    212  CD1      -23.7780   22.8640  -37.2890 C.ar  137  PHE137     -0.0042
    213  CD2      -22.7690   21.4540  -38.9560 C.ar  137  PHE137     -0.0042
    214  CE1      -23.1330   22.1310  -36.2930 C.ar  137  PHE137     -0.0003
    215  CE2      -22.1260   20.7230  -37.9530 C.ar  137  PHE137     -0.0003
    216  CZ       -22.3020   21.0640  -36.6320 C.ar  137  PHE137     -0.0000
    217  N        -27.9580   35.2730  -36.1100 N.3   211  LEU211     -0.1231
    218  CA       -27.5450   33.9360  -35.6470 C.3   211  LEU211      0.1693
    219  C        -27.1270   33.9550  -34.1680 C.2   211  LEU211      0.2592
    220  O        -27.4850   33.0610  -33.4170 O.2   211  LEU211     -0.2718
    221  CB       -26.3750   33.4010  -36.4780 C.3   211  LEU211      0.0284
    222  CG       -26.6820   32.7610  -37.8110 C.3   211  LEU211      0.0019
    223  CD1      -25.3930   32.2530  -38.4590 C.3   211  LEU211      0.0001
    224  CD2      -27.6460   31.6050  -37.6560 C.3   211  LEU211      0.0001
    225  N        -26.3360   34.9590  -33.7930 N.am  212  CYS212     -0.1970
    226  CA       -25.8640   35.0880  -32.4290 C.3   212  CYS212      0.1712
    227  C        -27.0120   35.4840  -31.5020 C.2   212  CYS212      0.2296
    228  O        -27.0520   35.0480  -30.3810 O.2   212  CYS212     -0.2864
    229  CB       -24.6390   36.0140  -32.3440 C.3   212  CYS212      0.0983
    230  SG       -23.1930   35.2030  -33.1080 S.3   212  CYS212     -0.0798
    231  N        -29.3300   32.4730  -31.1530 N.3   215  HIS215     -0.1241
    232  CA       -28.6170   31.5590  -30.2690 C.3   215  HIS215      0.1621
    233  C        -28.9720   31.8580  -28.8220 C.2   215  HIS215      0.2264
    234  O        -29.3900   30.9770  -28.0500 O.2   215  HIS215     -0.2867
    235  CB       -27.1020   31.6240  -30.4710 C.3   215  HIS215      0.0745
    236  CG       -26.3530   30.5900  -29.6810 C.ar  215  HIS215      0.0817
    237  ND1      -25.6290   30.8980  -28.5560 N.ar  215  HIS215     -0.2268
    238  CD2      -26.2300   29.2490  -29.8470 C.ar  215  HIS215      0.1154
    239  CE1      -25.0810   29.8020  -28.0690 C.ar  215  HIS215      0.1986
    240  NE2      -25.4300   28.7850  -28.8340 N.ar  215  HIS215     -0.2212
@<TRIPOS>BOND
     1   209   208    2
     2   208   207    1
     3   207   210    1
     4   207   206    1
     5   210   211    1
     6   201   200    2
     7   118   117    1
     8   118   119    1
     9   118   121    1
    10   120   119    2
    11   213   211   ar
    12   213   215   ar
    13   206   200   am
    14   122   121    1
    15   122   123    1
    16   200   199    1
    17   119   128   am
    18   211   212   ar
    19   223   222    1
    20   198   199    1
    21   123   124    1
    22   215   216   ar
    23    26    27    2
    24    26    25    1
    25   222   224    1
    26   222   221    1
    27   199   202    1
    28   130   131    2
    29   130   129    1
    30   128   129    1
    31   212   214   ar
    32   193   192    2
    33   133   134    1
    34   129   132    1
    35   112   111    2
    36   111   110    1
    37    93    92    2
    38    28    25    1
    39    28    29    1
    40   101   100    2
    41   127   125    1
    42   124   125    2
    43   192   191    1
    44    25    24    1
    45   216   214   ar
    46    97    95    1
    47   221   218    1
    48   134   137    1
    49   134   135    1
    50    98    99    1
    51    95    96    1
    52    95    94    1
    53    92    91    1
    54   202   204    1
    55   202   203    1
    56   100    99    1
    57   100   109   am
    58   125   126    1
    59    99   102    1
    60   217   218    1
    61    30    29    1
    62   137   139    1
    63   137   138    1
    64   109   110    1
    65   218   219    1
    66    29    31    1
    67   110   113    1
    68   203   205    1
    69   135   140   am
    70   135   136    2
    71    94    91    1
    72   191   190    1
    73   191   194    1
    74    91    90    1
    75   140   141    1
    76   196   194    1
    77   102   103    1
    78   113   114    1
    79   194   195    1
    80   103   104    1
    81   219   225   am
    82   219   220    2
    83    86    85    2
    84   114   115    1
    85   144   141    1
    86   144   145    1
    87    90    85   am
    88   141   142    1
    89    19    18    2
    90   225   226    1
    91     5     6    1
    92     5     2    1
    93    85    84    1
    94   146   145   ar
    95   146   148   ar
    96   230   229    1
    97    18    17    1
    98   104   105    1
    99   145   147   ar
   100   195   197    1
   101   105   106    2
   102    83    84    1
   103   142   143    2
   104   142   151   am
   105   180   178   ar
   106   180   181   ar
   107   115   116    1
   108   226   229    1
   109   226   227    1
   110     2     3    1
   111     2     1    1
   112    84    87    1
   113   178   176   ar
   114   148   150   ar
   115     4     3    2
   116    78    77    2
   117   107   106    1
   118   106   108    1
   119   147   149   ar
   120    20    17    1
   121    20    21    1
   122    17    16    1
   123     3     7   am
   124   151   152    1
   125    77    76    1
   126   227   228    2
   127   181   179   ar
   128   150   149   ar
   129    16     9   am
   130   171   172    1
   131   231   232    1
   132   176   175    1
   133   176   177   ar
   134    22    21    1
   135    87    88    1
   136    87    89    1
   137   175   172    1
   138    21    23    1
   139   155   152    1
   140   155   156    1
   141     7     8    1
   142   235   232    1
   143   235   236    1
   144   172   173    1
   145   152   153    1
   146   173   174    2
   147   232   233    1
   148     9     8    1
   149     9    10    2
   150   179   177   ar
   151    76    75    1
   152    76    79    1
   153   238   236   ar
   154   238   240   ar
   155     8    11    1
   156   236   237   ar
   157   154   153    2
   158    11    12    1
   159   156   157   ar
   160   156   158   ar
   161   153   162   am
   162    79    80    1
   163    80    81    1
   164   157   159   ar
   165   240   239   ar
   166    82    81    1
   167   233   234    2
   168    69    67    1
   169   158   160   ar
   170    14    13    2
   171   237   239   ar
   172    12    13    1
   173   162   163    1
   174    13    15   am
   175   188   187    1
   176    74    71    1
   177   164   165    2
   178   164   163    1
   179   159   161   ar
   180   186   187    1
   181   186   183    1
   182   160   161   ar
   183    68    67    1
   184    73    72    2
   185   184   185    2
   186   184   183    1
   187    67    66    1
   188   187   189    1
   189   163   166    1
   190    45    43   ar
   191    45    44   ar
   192   182   183    1
   193    71    72    1
   194    71    70    1
   195    43    41   ar
   196    51    50    1
   197    44    42   ar
   198   166   167    1
   199    66    63    1
   200    63    62    1
   201    63    64    1
   202   167   168    1
   203    55    54    2
   204    65    64    2
   205    50    47    1
   206    56    57    1
   207    56    53    1
   208    62    54   am
   209    41    39   ar
   210    41    40   ar
   211    54    53    1
   212    42    39   ar
   213    49    48    2
   214    58    57   ar
   215    58    60   ar
   216    57    59   ar
   217    47    48    1
   218    47    46    1
   219   168   169   ar
   220   168   170   ar
   221    39    37   ar
   222    40    38   ar
   223    53    52    1
   224    60    61   ar
   225    59    61   ar
   226    38    37   ar
   227    37    36    1
   228    33    32    1
   229    33    36    1
   230    33    34    1
   231    35    34    2
