@<TRIPOS>MOLECULE
tmp/5za2A01.pdb
 113 112 0 0 0
SMALL
GASTEIGER

@<TRIPOS>ATOM
      1  N         15.9910    1.0980  -31.2810 N.3   113  GLN113     -0.1231
      2  CA        14.9250    1.7500  -32.0200 C.3   113  GLN113      0.1698
      3  C         15.4380    2.9890  -32.7410 C.2   113  GLN113      0.2592
      4  O         16.4330    3.6030  -32.3360 O.2   113  GLN113     -0.2718
      5  CB        13.7760    2.1820  -31.0960 C.3   113  GLN113      0.0381
      6  CG        13.2770    1.1100  -30.1520 C.3   113  GLN113      0.0905
      7  CD        12.4420    0.0540  -30.8480 C.2   113  GLN113      0.2608
      8  OE1       12.2210    0.1060  -32.0650 O.2   113  GLN113     -0.2717
      9  NE2       11.9690   -0.9260  -30.0680 N.am  113  GLN113     -0.0878
     10  N         14.7270    3.3600  -33.8010 N.am  114  PHE114     -0.1963
     11  CA        14.9400    4.6760  -34.3940 C.3   114  PHE114      0.1756
     12  C         14.6720    5.7440  -33.3440 C.2   114  PHE114      0.2461
     13  O         13.8020    5.5750  -32.4840 O.2   114  PHE114     -0.2730
     14  CB        14.0020    4.9330  -35.5720 C.3   114  PHE114      0.0574
     15  CG        14.3580    4.1960  -36.8140 C.ar  114  PHE114     -0.0200
     16  CD1       15.4460    4.5760  -37.5830 C.ar  114  PHE114     -0.0042
     17  CD2       13.5710    3.1380  -37.2500 C.ar  114  PHE114     -0.0042
     18  CE1       15.7670    3.8910  -38.7390 C.ar  114  PHE114     -0.0003
     19  CE2       13.8850    2.4550  -38.3990 C.ar  114  PHE114     -0.0003
     20  CZ        14.9820    2.8320  -39.1480 C.ar  114  PHE114     -0.0000
     21  N         15.3850    6.8600  -33.4050 N.am  115  PRO115     -0.2716
     22  CA        14.9810    8.0220  -32.6130 C.3   115  PRO115      0.1536
     23  C         13.5370    8.3800  -32.9240 C.2   115  PRO115      0.2598
     24  O         13.0530    8.1620  -34.0350 O.2   115  PRO115     -0.2715
     25  CB        15.9490    9.1190  -33.0720 C.3   115  PRO115      0.0310
     26  CG        17.1300    8.3800  -33.6220 C.3   115  PRO115      0.0237
     27  CD        16.5540    7.1380  -34.2540 C.3   115  PRO115      0.0939
     28  N         12.8470    8.9420  -31.9200 N.am  116  ASP116     -0.1972
     29  CA        11.4170    9.2160  -32.0640 C.3   116  ASP116      0.1709
     30  C         11.1170   10.0990  -33.2710 C.2   116  ASP116      0.2293
     31  O         10.0500    9.9720  -33.8850 O.2   116  ASP116     -0.2864
     32  CB        10.8750    9.8700  -30.7890 C.3   116  ASP116      0.1436
     33  CG        10.7740    8.8990  -29.6250 C.2   116  ASP116      0.3671
     34  OD1       10.7100    7.6750  -29.8630 O.co2 116  ASP116     -0.2456
     35  OD2       10.7410    9.3670  -28.4660 O.co2 116  ASP116     -0.2456
     36  N         12.2430   10.0460  -36.2610 N.3   118  VAL118     -0.1245
     37  CA        12.2320    9.3800  -37.5650 C.3   118  VAL118      0.1561
     38  C         10.8360    8.7960  -37.7730 C.2   118  VAL118      0.2260
     39  O         10.5090    7.7410  -37.2240 O.2   118  VAL118     -0.2867
     40  CB        13.3120    8.2990  -37.6680 C.3   118  VAL118      0.0252
     41  CG1       13.2850    7.6560  -39.0400 C.3   118  VAL118      0.0019
     42  CG2       14.6790    8.8790  -37.3700 C.3   118  VAL118      0.0019
     43  N         -4.6200   -3.3930  -26.6140 N.3   203  ILE203     -0.1231
     44  CA        -3.7180   -2.6350  -27.4720 C.3   203  ILE203      0.1692
     45  C         -3.3580   -3.4880  -28.6760 C.2   203  ILE203      0.2592
     46  O         -3.2690   -4.7160  -28.5910 O.2   203  ILE203     -0.2718
     47  CB        -2.4560   -2.1700  -26.6970 C.3   203  ILE203      0.0266
     48  CG1       -1.4950   -1.3910  -27.6000 C.3   203  ILE203      0.0019
     49  CG2       -1.7390   -3.3420  -26.0570 C.3   203  ILE203      0.0020
     50  CD1       -0.2910   -0.8390  -26.8620 C.3   203  ILE203      0.0001
     51  N         -3.1780   -2.8250  -29.8140 N.am  204  ARG204     -0.1966
     52  CA        -2.6980   -3.4630  -31.0270 C.3   204  ARG204      0.1729
     53  C         -1.5350   -2.6630  -31.5950 C.2   204  ARG204      0.2616
     54  O         -1.2660   -1.5320  -31.1800 O.2   204  ARG204     -0.2715
     55  CB        -3.8100   -3.5930  -32.0590 C.3   204  ARG204      0.0348
     56  CG        -4.6430   -4.8150  -31.8400 C.3   204  ARG204      0.0492
     57  CD        -5.5440   -5.0390  -33.0120 C.3   204  ARG204      0.2205
     58  NE        -6.3280   -6.2440  -32.8360 N.pl3 204  ARG204     -0.0865
     59  CZ        -7.5160   -6.4330  -33.3900 C.cat 204  ARG204      0.5346
     60  NH1       -8.0590   -5.4900  -34.1470 N.pl3 204  ARG204      0.1354
     61  NH2       -8.1590   -7.5620  -33.1830 N.pl3 204  ARG204      0.1354
     62  N         -0.8650   -3.2640  -32.5750 N.am  205  ALA205     -0.1963
     63  CA         0.4490   -2.8040  -33.0130 C.3   205  ALA205      0.1728
     64  C          0.4270   -1.3680  -33.5140 C.2   205  ALA205      0.2617
     65  O         -0.4740   -0.9570  -34.2550 O.2   205  ALA205     -0.2715
     66  CB         0.9770   -3.7200  -34.1160 C.3   205  ALA205      0.0334
     67  N          1.4590   -0.6170  -33.1170 N.am  206  THR206     -0.1937
     68  CA         1.6930    0.7080  -33.6620 C.3   206  THR206      0.2013
     69  C          2.5560    0.5970  -34.9150 C.2   206  THR206      0.2484
     70  O          3.7050    0.1630  -34.8150 O.2   206  THR206     -0.2729
     71  CB         2.3780    1.6070  -32.6430 C.3   206  THR206      0.1807
     72  OG1        1.8280    1.3040  -31.3680 O.3   206  THR206     -0.2208
     73  CG2        2.1500    3.0700  -32.9600 C.3   206  THR206      0.0379
     74  N          2.0540    0.9600  -36.1000 N.am  207  PRO207     -0.2715
     75  CA         2.9240    1.0040  -37.2820 C.3   207  PRO207      0.1536
     76  C          4.1000    1.9430  -37.0640 C.2   207  PRO207      0.2599
     77  O          4.0230    2.9140  -36.3110 O.2   207  PRO207     -0.2715
     78  CB         2.0010    1.4980  -38.3980 C.3   207  PRO207      0.0310
     79  CG         0.6060    1.3190  -37.8710 C.3   207  PRO207      0.0237
     80  CD         0.6920    1.4230  -36.3830 C.3   207  PRO207      0.0939
     81  N          5.2140    1.6230  -37.7190 N.am  208  GLY208     -0.1955
     82  CA         6.4210    2.4110  -37.5680 C.3   208  GLY208      0.1869
     83  C          7.3590    2.1580  -38.7260 C.2   208  GLY208      0.2309
     84  O          7.1030    1.3220  -39.5970 O.2   208  GLY208     -0.2863
     85  N          9.4450   -6.1920  -36.7480 N.3   215  TYR215     -0.1241
     86  CA         8.5840   -6.7030  -35.6750 C.3   215  TYR215      0.1605
     87  C          7.1030   -6.7460  -36.0370 C.2   215  TYR215      0.2264
     88  O          6.2840   -6.7790  -35.1140 O.2   215  TYR215     -0.2867
     89  CB         8.7660   -5.8620  -34.3930 C.3   215  TYR215      0.0534
     90  CG         8.6560   -4.3670  -34.6070 C.ar  215  TYR215     -0.0201
     91  CD1        7.4230   -3.7380  -34.6110 C.ar  215  TYR215     -0.0009
     92  CD2        9.7930   -3.5950  -34.8200 C.ar  215  TYR215     -0.0009
     93  CE1        7.3280   -2.3550  -34.8240 C.ar  215  TYR215      0.0417
     94  CE2        9.7080   -2.2270  -35.0310 C.ar  215  TYR215      0.0417
     95  CZ         8.4780   -1.6190  -35.0290 C.ar  215  TYR215      0.1957
     96  OH         8.3960   -0.2570  -35.2350 O.3   215  TYR215     -0.2866
     97  N          8.1630   -9.3960  -28.9280 N.3   310  SER310     -0.1202
     98  CA         7.1410   -8.7570  -28.1120 C.3   310  SER310      0.2020
     99  C          6.6000   -7.5380  -28.8450 C.2   310  SER310      0.2619
    100  O          7.2810   -6.9450  -29.6810 O.2   310  SER310     -0.2717
    101  CB         7.6840   -8.3360  -26.7370 C.3   310  SER310      0.2103
    102  OG         8.3400   -9.4160  -26.0800 O.3   310  SER310     -0.2182
    103  N          5.3530   -7.1840  -28.5310 N.am  311  THR311     -0.1938
    104  CA         4.8130   -5.8660  -28.8560 C.3   311  THR311      0.2028
    105  C          4.1620   -5.3200  -27.5970 C.2   311  THR311      0.2642
    106  O          4.2630   -5.9330  -26.5330 O.2   311  THR311     -0.2714
    107  CB         3.8070   -5.9140  -30.0050 C.3   311  THR311      0.1808
    108  OG1        2.6780   -6.7070  -29.6240 O.3   311  THR311     -0.2208
    109  CG2        4.4340   -6.4910  -31.2570 C.3   311  THR311      0.0379
    110  N          3.5110   -4.1570  -27.7050 N.am  312  GLY312     -0.1954
    111  CA         2.8910   -3.5590  -26.5340 C.3   312  GLY312      0.1869
    112  C          2.0150   -4.5250  -25.7650 C.2   312  GLY312      0.2309
    113  O          2.0270   -4.5420  -24.5330 O.2   312  GLY312     -0.2863
@<TRIPOS>BOND
     1    84    83    2
     2    20    18   ar
     3    20    19   ar
     4    41    40    1
     5    18    16   ar
     6    83    82    1
     7    19    17   ar
     8    78    79    1
     9    78    75    1
    10    79    80    1
    11    38    37    1
    12    38    39    2
    13    81    82    1
    14    81    76   am
    15    40    37    1
    16    40    42    1
    17    16    15   ar
    18    37    36    1
    19    75    76    1
    20    75    74    1
    21    17    15   ar
    22    76    77    2
    23    15    14    1
    24    85    86    1
    25    80    74    1
    26    74    69   am
    27    87    86    1
    28    87    88    2
    29    86    89    1
    30    14    11    1
    31    96    95    1
    32    94    95   ar
    33    94    92   ar
    34    95    93   ar
    35    69    70    2
    36    69    68    1
    37    93    91   ar
    38    92    90   ar
    39    91    90   ar
    40    90    89    1
    41    11    10    1
    42    11    12    1
    43    65    64    2
    44    27    26    1
    45    27    21    1
    46    60    59    1
    47    66    63    1
    48    24    23    2
    49    31    30    2
    50    10     3   am
    51    68    67    1
    52    68    71    1
    53    26    25    1
    54    64    67   am
    55    64    63    1
    56    21    12   am
    57    21    22    1
    58    59    61    1
    59    59    58    2
    60    12    13    2
    61    30    29    1
    62    25    22    1
    63    63    62    1
    64    57    58    1
    65    57    56    1
    66    73    71    1
    67    23    22    1
    68    23    28   am
    69     3     4    2
    70     3     2    1
    71    71    72    1
    72    62    53   am
    73     8     7    2
    74    29    28    1
    75    29    32    1
    76    55    56    1
    77    55    52    1
    78     2     1    1
    79     2     5    1
    80    53    54    2
    81    53    52    1
    82   109   107    1
    83     5     6    1
    84    52    51    1
    85     7     6    1
    86     7     9   am
    87    32    33    1
    88   107   108    1
    89   107   104    1
    90    34    33   ar
    91    51    45   am
    92   100    99    2
    93    33    35   ar
    94    97    98    1
    95   104   103    1
    96   104   105    1
    97    99   103   am
    98    99    98    1
    99    45    46    2
   100    45    44    1
   101    98   101    1
   102   110   105   am
   103   110   111    1
   104    48    50    1
   105    48    47    1
   106   105   106    2
   107    44    47    1
   108    44    43    1
   109   101   102    1
   110    47    49    1
   111   111   112    1
   112   112   113    2
