@<TRIPOS>MOLECULE
tmp/5za2A00.pdb
 102 96 0 0 0
SMALL
GASTEIGER

@<TRIPOS>ATOM
      1  N          9.3050   -9.3010  -32.6370 N.3    57  SER57      -0.1217
      2  CA        10.6430   -9.5170  -33.1910 C.3    57  SER57       0.1889
      3  C         10.8720  -10.9380  -33.7130 C.2    57  SER57       0.2288
      4  O         11.8840  -11.1660  -34.3960 O.2    57  SER57      -0.2866
      5  CB        11.6980   -9.1710  -32.1350 C.3    57  SER57       0.2089
      6  OG        11.7460   -7.7680  -31.8440 O.3    57  SER57      -0.2183
      7  N         18.6300    0.1870  -30.6980 N.3   112  LEU112     -0.1231
      8  CA        17.4890   -0.7210  -30.6420 C.3   112  LEU112      0.1693
      9  C         16.3280   -0.1800  -31.4650 C.2   112  LEU112      0.2591
     10  O         15.7450   -0.8990  -32.2820 O.2   112  LEU112     -0.2718
     11  CB        17.0700   -0.9380  -29.1840 C.3   112  LEU112      0.0284
     12  CG        15.8190   -1.8010  -29.0080 C.3   112  LEU112      0.0019
     13  CD1       16.0470   -3.1870  -29.5930 C.3   112  LEU112      0.0001
     14  CD2       15.4410   -1.8850  -27.5360 C.3   112  LEU112      0.0001
     15  N         15.9910    1.0980  -31.2810 N.am  113  GLN113     -0.1979
     16  CA        14.9250    1.7500  -32.0200 C.3   113  GLN113      0.1601
     17  C         15.4380    2.9890  -32.7410 C.2   113  GLN113      0.2287
     18  O         16.4330    3.6030  -32.3360 O.2   113  GLN113     -0.2864
     19  CB        13.7760    2.1820  -31.0960 C.3   113  GLN113      0.0394
     20  CG        13.2770    1.1100  -30.1520 C.3   113  GLN113      0.0908
     21  CD        12.4420    0.0540  -30.8480 C.2   113  GLN113      0.2608
     22  OE1       12.2210    0.1060  -32.0650 O.2   113  GLN113     -0.2717
     23  NE2       11.9690   -0.9260  -30.0680 N.am  113  GLN113     -0.0878
     24  N         21.6880   -5.3790  -30.5020 N.3   143  TYR143     -0.1241
     25  CA        20.4390   -5.7590  -31.1460 C.3   143  TYR143      0.1605
     26  C         19.6880   -4.5030  -31.5870 C.2   143  TYR143      0.2264
     27  O         19.5480   -3.5480  -30.8150 O.2   143  TYR143     -0.2867
     28  CB        19.6210   -6.6030  -30.1730 C.3   143  TYR143      0.0534
     29  CG        18.3550   -7.1620  -30.7290 C.ar  143  TYR143     -0.0201
     30  CD1       17.2040   -6.3970  -30.7610 C.ar  143  TYR143     -0.0009
     31  CD2       18.3000   -8.4570  -31.2050 C.ar  143  TYR143     -0.0009
     32  CE1       16.0240   -6.9060  -31.2490 C.ar  143  TYR143      0.0417
     33  CE2       17.1200   -8.9810  -31.7060 C.ar  143  TYR143      0.0417
     34  CZ        15.9900   -8.2040  -31.7080 C.ar  143  TYR143      0.1957
     35  OH        14.8150   -8.7140  -32.1850 O.3   143  TYR143     -0.2866
     36  N         16.5440   -2.8020  -34.3130 N.3   145  ASN145     -0.1240
     37  CA        15.5190   -2.8230  -35.3570 C.3   145  ASN145      0.1653
     38  C         15.9790   -2.0670  -36.5960 C.2   145  ASN145      0.2266
     39  O         15.7960   -2.5840  -37.7150 O.2   145  ASN145     -0.2867
     40  CB        14.1960   -2.2730  -34.8120 C.3   145  ASN145      0.1155
     41  CG        13.5120   -3.2100  -33.8450 C.2   145  ASN145      0.2627
     42  OD1       13.6890   -4.4120  -33.9150 O.2   145  ASN145     -0.2716
     43  ND2       12.6930   -2.6540  -32.9580 N.am  145  ASN145     -0.0877
     44  N          9.4450   -6.1920  -36.7480 N.3   215  TYR215     -0.1241
     45  CA         8.5840   -6.7030  -35.6750 C.3   215  TYR215      0.1605
     46  C          7.1030   -6.7460  -36.0370 C.2   215  TYR215      0.2264
     47  O          6.2840   -6.7790  -35.1140 O.2   215  TYR215     -0.2867
     48  CB         8.7660   -5.8620  -34.3930 C.3   215  TYR215      0.0534
     49  CG         8.6560   -4.3670  -34.6070 C.ar  215  TYR215     -0.0201
     50  CD1        7.4230   -3.7380  -34.6110 C.ar  215  TYR215     -0.0009
     51  CD2        9.7930   -3.5950  -34.8200 C.ar  215  TYR215     -0.0009
     52  CE1        7.3280   -2.3550  -34.8240 C.ar  215  TYR215      0.0417
     53  CE2        9.7080   -2.2270  -35.0310 C.ar  215  TYR215      0.0417
     54  CZ         8.4780   -1.6190  -35.0290 C.ar  215  TYR215      0.1957
     55  OH         8.3960   -0.2570  -35.2350 O.3   215  TYR215     -0.2866
     56  N         20.7840   -8.3570  -24.7900 N.3   284  SER284     -0.1217
     57  CA        19.8360   -7.7120  -25.6850 C.3   284  SER284      0.1889
     58  C         19.7570   -6.1970  -25.5400 C.2   284  SER284      0.2288
     59  O         19.1620   -5.5470  -26.4090 O.2   284  SER284     -0.2866
     60  CB        18.4310   -8.2940  -25.4770 C.3   284  SER284      0.2089
     61  OG        17.9540   -7.9790  -24.1840 O.3   284  SER284     -0.2183
     62  N         14.0960  -17.5340  -31.0790 N.3   307  LYS307     -0.1231
     63  CA        13.8870  -16.0940  -31.1960 C.3   307  LYS307      0.1693
     64  C         12.7290  -15.6810  -30.3060 C.2   307  LYS307      0.2593
     65  O         11.6690  -16.3160  -30.3320 O.2   307  LYS307     -0.2718
     66  CB        13.6100  -15.6730  -32.6500 C.3   307  LYS307      0.0285
     67  CG        13.5540  -14.1520  -32.8700 C.3   307  LYS307      0.0035
     68  CD        14.9490  -13.5470  -32.7760 C.3   307  LYS307      0.0206
     69  CE        14.9100  -12.0140  -32.7850 C.3   307  LYS307      0.1093
     70  NZ        14.5000  -11.4100  -31.4680 N.3   307  LYS307     -0.1314
     71  N         12.9420  -14.6130  -29.5270 N.am  308  THR308     -0.1939
     72  CA        11.9240  -13.9410  -28.7350 C.3   308  THR308      0.2028
     73  C         11.3100  -12.7920  -29.5380 C.2   308  THR308      0.2643
     74  O         11.9410  -12.2270  -30.4300 O.2   308  THR308     -0.2714
     75  CB        12.5350  -13.3620  -27.4470 C.3   308  THR308      0.1808
     76  OG1       13.6320  -12.5110  -27.7970 O.3   308  THR308     -0.2208
     77  CG2       13.0760  -14.4340  -26.5580 C.3   308  THR308      0.0379
     78  N         10.0800  -12.4190  -29.1870 N.am  309  GLY309     -0.1939
     79  CA         9.4640  -11.2430  -29.7780 C.3   309  GLY309      0.2014
     80  C          8.3650  -10.7150  -28.8890 C.2   309  GLY309      0.2640
     81  O          7.6980  -11.4810  -28.1870 O.2   309  GLY309     -0.2714
     82  N          8.1630   -9.3960  -28.9280 N.am  310  SER310     -0.1935
     83  CA         7.1410   -8.7570  -28.1120 C.3   310  SER310      0.2055
     84  C          6.6000   -7.5380  -28.8450 C.2   310  SER310      0.2643
     85  O          7.2810   -6.9450  -29.6810 O.2   310  SER310     -0.2714
     86  CB         7.6840   -8.3360  -26.7370 C.3   310  SER310      0.2130
     87  OG         8.3400   -9.4160  -26.0800 O.3   310  SER310     -0.2179
     88  N          5.3530   -7.1840  -28.5310 N.am  311  THR311     -0.1950
     89  CA         4.8130   -5.8660  -28.8560 C.3   311  THR311      0.1897
     90  C          4.1620   -5.3200  -27.5970 C.2   311  THR311      0.2313
     91  O          4.2630   -5.9330  -26.5330 O.2   311  THR311     -0.2863
     92  CB         3.8070   -5.9140  -30.0050 C.3   311  THR311      0.1794
     93  OG1        2.6780   -6.7070  -29.6240 O.3   311  THR311     -0.2208
     94  CG2        4.4340   -6.4910  -31.2570 C.3   311  THR311      0.0378
     95  N         10.4080  -12.3410  -20.5960 N.3   338  ILE338     -0.1245
     96  CA        11.1940  -13.2600  -21.4160 C.3   338  ILE338      0.1561
     97  C         11.6880  -14.4520  -20.5990 C.2   338  ILE338      0.2260
     98  O         11.6920  -15.5980  -21.0770 O.2   338  ILE338     -0.2867
     99  CB        12.3620  -12.4990  -22.0680 C.3   338  ILE338      0.0252
    100  CG1       11.8310  -11.6010  -23.1810 C.3   338  ILE338      0.0019
    101  CG2       13.4170  -13.4770  -22.6060 C.3   338  ILE338      0.0019
    102  CD1       12.8820  -10.7520  -23.8370 C.3   338  ILE338      0.0001
@<TRIPOS>BOND
     1    39    38    2
     2    44    45    1
     3    38    37    1
     4    46    45    1
     5    46    47    2
     6    45    48    1
     7    37    40    1
     8    37    36    1
     9    55    54    1
    10    53    54   ar
    11    53    51   ar
    12    54    52   ar
    13    52    50   ar
    14    51    49   ar
    15    40    41    1
    16    50    49   ar
    17    49    48    1
    18     4     3    2
    19    42    41    2
    20    41    43   am
    21     3     2    1
    22     2     1    1
    23     2     5    1
    24    67    68    1
    25    67    66    1
    26    69    68    1
    27    69    70    1
    28    17    18    2
    29    17    16    1
    30    66    63    1
    31    10     9    2
    32    35    34    1
    33     5     6    1
    34    22    21    2
    35    16    15    1
    36    16    19    1
    37    34    33   ar
    38    34    32   ar
    39    33    31   ar
    40    26    25    1
    41    26    27    2
    42     9    15   am
    43     9     8    1
    44    94    92    1
    45    32    30   ar
    46    31    29   ar
    47    63    62    1
    48    63    64    1
    49    25    24    1
    50    25    28    1
    51    19    20    1
    52    21    20    1
    53    21    23   am
    54    30    29   ar
    55    29    28    1
    56     7     8    1
    57     8    11    1
    58    74    73    2
    59    65    64    2
    60    64    71   am
    61    92    93    1
    62    92    89    1
    63    79    78    1
    64    79    80    1
    65    85    84    2
    66    13    12    1
    67    73    78   am
    68    73    72    1
    69    71    72    1
    70    11    12    1
    71    12    14    1
    72    82    80   am
    73    82    83    1
    74    80    81    2
    75    89    88    1
    76    89    90    1
    77    84    88   am
    78    84    83    1
    79    72    75    1
    80    83    86    1
    81    76    75    1
    82    90    91    2
    83    75    77    1
    84    86    87    1
    85    59    58    2
    86    57    58    1
    87    57    60    1
    88    57    56    1
    89    60    61    1
    90   102   100    1
    91   100    99    1
    92   101    99    1
    93    99    96    1
    94    96    97    1
    95    96    95    1
    96    98    97    2
