@<TRIPOS>MOLECULE
tmp/5za7A00.pdb
 131 131 0 0 0
SMALL
GASTEIGER

@<TRIPOS>ATOM
      1  N        -27.0900   -8.0460   -9.9800 N.3    46  HIS46      -0.1241
      2  CA       -26.4940   -8.0130   -8.6320 C.3    46  HIS46       0.1621
      3  C        -25.0750   -8.5930   -8.6080 C.2    46  HIS46       0.2264
      4  O        -24.2940   -8.3260   -7.6860 O.2    46  HIS46      -0.2867
      5  CB       -27.3980   -8.6880   -7.5790 C.3    46  HIS46       0.0745
      6  CG       -27.1890  -10.1660   -7.4290 C.ar   46  HIS46       0.0817
      7  ND1      -28.1410  -11.0840   -7.8040 N.ar   46  HIS46      -0.2268
      8  CD2      -26.1620  -10.8800   -6.9100 C.ar   46  HIS46       0.1154
      9  CE1      -27.7020  -12.3010   -7.5490 C.ar   46  HIS46       0.1986
     10  NE2      -26.5030  -12.2050   -7.0010 N.ar   46  HIS46      -0.2212
     11  N        -34.1460   -8.9220   -5.0720 N.3    94  HIS94      -0.1241
     12  CA       -33.4690   -8.1740   -6.0780 C.3    94  HIS94       0.1621
     13  C        -34.5160   -7.9600   -7.1680 C.2    94  HIS94       0.2264
     14  O        -35.0530   -8.8840   -7.6470 O.2    94  HIS94      -0.2867
     15  CB       -32.3200   -8.9700   -6.6600 C.3    94  HIS94       0.0745
     16  CG       -31.1910   -9.1880   -5.7170 C.ar   94  HIS94       0.0817
     17  ND1      -30.4860   -8.1590   -5.1670 N.ar   94  HIS94      -0.2268
     18  CD2      -30.5930  -10.3160   -5.2910 C.ar   94  HIS94       0.1154
     19  CE1      -29.5300   -8.6360   -4.4010 C.ar   94  HIS94       0.1986
     20  NE2      -29.5790   -9.9430   -4.4550 N.ar   94  HIS94      -0.2212
     21  N        -31.5960  -27.2310   -4.6800 N.3   192  ASP192     -0.1225
     22  CA       -31.8600  -25.8000   -4.8740 C.3   192  ASP192      0.1805
     23  C        -30.6390  -25.1360   -5.4740 C.2   192  ASP192      0.2598
     24  O        -29.5630  -25.7100   -5.4890 O.2   192  ASP192     -0.2718
     25  CB       -32.1460  -25.1240   -3.5170 C.3   192  ASP192      0.1424
     26  CG       -32.9800  -23.8340   -3.6210 C.2   192  ASP192      0.3668
     27  OD1      -33.3010  -23.3320   -4.7230 O.co2 192  ASP192     -0.2456
     28  OD2      -33.3340  -23.3010   -2.5440 O.co2 192  ASP192     -0.2456
     29  N        -30.8160  -23.9100   -5.9390 N.am  193  SER193     -0.1938
     30  CA       -29.6810  -23.0320   -6.2390 C.3   193  SER193      0.2055
     31  C        -29.1710  -22.4390   -4.9420 C.2   193  SER193      0.2643
     32  O        -29.8420  -22.5150   -3.9050 O.2   193  SER193     -0.2714
     33  CB       -30.0920  -21.9120   -7.1980 C.3   193  SER193      0.2130
     34  OG       -31.3230  -21.3370   -6.8130 O.3   193  SER193     -0.2179
     35  N        -27.9790  -21.8700   -5.0000 N.am  194  CYS194     -0.1953
     36  CA       -27.3770  -21.2450   -3.8300 C.3   194  CYS194      0.1843
     37  C        -26.4180  -20.1290   -4.2480 C.2   194  CYS194      0.2625
     38  O        -26.2490  -19.8270   -5.4380 O.2   194  CYS194     -0.2714
     39  CB       -26.6540  -22.3120   -3.0010 C.3   194  CYS194      0.0997
     40  SG       -26.4260  -21.8680   -1.2520 S.3   194  CYS194     -0.0797
     41  N        -25.7840  -19.5010   -3.2660 N.am  195  GLN195     -0.1963
     42  CA       -24.7610  -18.5070   -3.5410 C.3   195  GLN195      0.1733
     43  C        -23.7380  -19.0570   -4.5330 C.2   195  GLN195      0.2616
     44  O        -23.2800  -20.1870   -4.3950 O.2   195  GLN195     -0.2715
     45  CB       -24.0500  -18.1160   -2.2510 C.3   195  GLN195      0.0408
     46  CG       -22.9540  -17.0790   -2.4070 C.3   195  GLN195      0.0908
     47  CD       -22.3940  -16.6840   -1.0510 C.2   195  GLN195      0.2608
     48  OE1      -22.2830  -17.5200   -0.1630 O.2   195  GLN195     -0.2717
     49  NE2      -22.0650  -15.4140   -0.8840 N.am  195  GLN195     -0.0878
     50  N        -23.4090  -18.2460   -5.5350 N.am  196  GLY196     -0.1955
     51  CA       -22.5090  -18.6460   -6.6110 C.3   196  GLY196      0.1869
     52  C        -23.2320  -19.1490   -7.8570 C.2   196  GLY196      0.2309
     53  O        -22.6310  -19.2160   -8.9350 O.2   196  GLY196     -0.2863
     54  N        -26.0070  -17.5440   -8.8890 N.3   198  SER198     -0.1217
     55  CA       -26.6860  -16.3570   -9.4240 C.3   198  SER198      0.1889
     56  C        -26.2610  -16.1000  -10.8470 C.2   198  SER198      0.2288
     57  O        -25.1170  -16.3290  -11.1970 O.2   198  SER198     -0.2866
     58  CB       -26.3500  -15.1250   -8.6010 C.3   198  SER198      0.2089
     59  OG       -26.7620  -15.2820   -7.2440 O.3   198  SER198     -0.2183
     60  N        -31.1390  -17.2270  -12.1920 N.3   216  VAL216     -0.1231
     61  CA       -30.9990  -17.3660  -10.7400 C.3   216  VAL216      0.1692
     62  C        -30.7520  -15.9770  -10.1650 C.2   216  VAL216      0.2593
     63  O        -29.8300  -15.2760  -10.6010 O.2   216  VAL216     -0.2718
     64  CB       -29.8120  -18.2900  -10.3310 C.3   216  VAL216      0.0266
     65  CG1      -29.7110  -18.4000   -8.8100 C.3   216  VAL216      0.0020
     66  CG2      -29.9650  -19.6830  -10.9140 C.3   216  VAL216      0.0020
     67  N        -31.5530  -15.5940   -9.1770 N.am  217  SER217     -0.1938
     68  CA       -31.4960  -14.2490   -8.6320 C.3   217  SER217      0.2055
     69  C        -31.3220  -14.2070   -7.1080 C.2   217  SER217      0.2643
     70  O        -30.3870  -13.5770   -6.6380 O.2   217  SER217     -0.2714
     71  CB       -32.7340  -13.4560   -9.0620 C.3   217  SER217      0.2130
     72  OG       -32.7720  -12.1700   -8.4520 O.3   217  SER217     -0.2179
     73  N        -32.2140  -14.8400   -6.3530 N.am  218  TRP218     -0.1959
     74  CA       -32.1400  -14.7770   -4.8990 C.3   218  TRP218      0.1771
     75  C        -32.9380  -15.8460   -4.1760 C.2   218  TRP218      0.2620
     76  O        -33.7120  -16.5930   -4.7670 O.2   218  TRP218     -0.2715
     77  CB       -32.5560  -13.3890   -4.3890 C.3   218  TRP218      0.0590
     78  CG       -33.9860  -12.9830   -4.6760 C.ar  218  TRP218      0.0006
     79  CD1      -34.4440  -12.3740   -5.7920 C.ar  218  TRP218      0.0946
     80  CD2      -35.1230  -13.1300   -3.8100 C.ar  218  TRP218      0.0152
     81  NE1      -35.7920  -12.1410   -5.6980 N.ar  218  TRP218     -0.2442
     82  CE2      -36.2360  -12.5950   -4.4880 C.ar  218  TRP218      0.0810
     83  CE3      -35.3080  -13.6660   -2.5380 C.ar  218  TRP218      0.0012
     84  CZ2      -37.5220  -12.5800   -3.9320 C.ar  218  TRP218      0.0191
     85  CZ3      -36.5880  -13.6480   -1.9830 C.ar  218  TRP218      0.0001
     86  CH2      -37.6740  -13.1150   -2.6830 C.ar  218  TRP218      0.0015
     87  N        -32.6980  -15.9150   -2.8900 N.am  219  GLY219     -0.1940
     88  CA       -33.4510  -16.7610   -2.0200 C.3   219  GLY219      0.2014
     89  C        -33.0680  -16.5350   -0.5720 C.2   219  GLY219      0.2639
     90  O        -32.0540  -15.9750   -0.3370 O.2   219  GLY219     -0.2714
     91  N        -33.8780  -17.0010    0.3650 N.am  220  ARG220     -0.1963
     92  CA       -33.5140  -16.8760    1.7620 C.3   220  ARG220      0.1729
     93  C        -32.9080  -18.1980    2.0580 C.2   220  ARG220      0.2617
     94  O        -33.6060  -19.1870    2.0580 O.2   220  ARG220     -0.2715
     95  CB       -34.6960  -16.7320    2.6960 C.3   220  ARG220      0.0348
     96  CG       -34.2130  -16.4450    4.0870 C.3   220  ARG220      0.0492
     97  CD       -35.2530  -16.8180    5.0950 C.3   220  ARG220      0.2205
     98  NE       -35.3410  -15.8000    6.1280 N.pl3 220  ARG220     -0.0865
     99  CZ       -35.9620  -15.9290    7.2910 C.cat 220  ARG220      0.5346
    100  NH1      -35.9510  -14.9060    8.1100 N.pl3 220  ARG220      0.1354
    101  NH2      -36.5680  -17.0590    7.6270 N.pl3 220  ARG220      0.1354
    102  N        -31.5830  -18.1820    2.2110 N.am  221  GLY221     -0.1940
    103  CA       -30.7500  -19.3460    2.4150 C.3   221  GLY221      0.2014
    104  C        -30.8070  -20.2300    1.1740 C.2   221  GLY221      0.2639
    105  O        -31.0240  -19.7330    0.0690 O.2   221  GLY221     -0.2714
    106  N        -30.5210  -21.5180    1.3100 N.am  222  CYS222     -0.1967
    107  CA       -30.6440  -22.4450    0.2200 C.3   222  CYS222      0.1712
    108  C        -31.2850  -23.7760    0.6770 C.2   222  CYS222      0.2296
    109  O        -30.9460  -24.2790    1.7050 O.2   222  CYS222     -0.2864
    110  CB       -29.2920  -22.7110   -0.4300 C.3   222  CYS222      0.0983
    111  SG       -28.2270  -21.2730   -0.7000 S.3   222  CYS222     -0.0798
    112  N        -38.8420  -21.7690    1.3550 N.3   227  LYS227     -0.1231
    113  CA       -38.0770  -20.6730    0.8200 C.3   227  LYS227      0.1678
    114  C        -37.5590  -21.0740   -0.5510 C.2   227  LYS227      0.2434
    115  O        -36.4600  -21.4850   -0.6820 O.2   227  LYS227     -0.2733
    116  CB       -36.9340  -20.2850    1.7490 C.3   227  LYS227      0.0284
    117  CG       -37.3220  -19.9640    3.1920 C.3   227  LYS227      0.0035
    118  CD       -38.1260  -18.6780    3.2950 C.3   227  LYS227      0.0206
    119  CE       -39.0370  -18.6210    4.5330 C.3   227  LYS227      0.1093
    120  NZ       -39.8290  -17.3770    4.5950 N.3   227  LYS227     -0.1314
    121  N        -38.3920  -20.9740   -1.5650 N.am  228  PRO228     -0.2718
    122  CA       -37.9720  -21.3320   -2.9140 C.3   228  PRO228      0.1535
    123  C        -36.8190  -20.5020   -3.4450 C.2   228  PRO228      0.2599
    124  O        -36.4900  -19.4430   -2.8990 O.2   228  PRO228     -0.2715
    125  CB       -39.2260  -21.0470   -3.7590 C.3   228  PRO228      0.0310
    126  CG       -40.3590  -21.1130   -2.8020 C.3   228  PRO228      0.0237
    127  CD       -39.8140  -20.5790   -1.5200 C.3   228  PRO228      0.0939
    128  N        -36.2080  -20.9940   -4.5200 N.am  229  GLY229     -0.1955
    129  CA       -35.3460  -20.1640   -5.3310 C.3   229  GLY229      0.1869
    130  C        -36.2100  -19.1870   -6.0900 C.2   229  GLY229      0.2309
    131  O        -37.3390  -19.5240   -6.4940 O.2   229  GLY229     -0.2863
@<TRIPOS>BOND
     1    60    61    1
     2    57    56    2
     3    66    64    1
     4    56    55    1
     5    61    64    1
     6    61    62    1
     7    63    62    2
     8    64    65    1
     9    62    67   am
    10     1     2    1
    11    55    54    1
    12    55    58    1
    13    67    68    1
    14    71    68    1
    15    71    72    1
    16    53    52    2
    17     2     3    1
    18     2     5    1
    19    68    69    1
    20     3     4    2
    21    58    59    1
    22    52    51    1
    23     7     9   ar
    24     7     6   ar
    25    14    13    2
    26     5     6    1
    27     9    10   ar
    28     6     8   ar
    29    33    34    1
    30    33    30    1
    31    13    12    1
    32    69    70    2
    33    69    73   am
    34    10     8   ar
    35    15    12    1
    36    15    16    1
    37    51    50    1
    38   131   130    2
    39    73    74    1
    40    30    29    1
    41    30    31    1
    42   130   129    1
    43    12    11    1
    44    29    23   am
    45    79    81   ar
    46    79    78   ar
    47    16    18   ar
    48    16    17   ar
    49    81    82   ar
    50    50    43   am
    51    24    23    2
    52    23    22    1
    53    38    37    2
    54   129   128    1
    55    18    20   ar
    56    17    19   ar
    57    35    31   am
    58    35    36    1
    59    31    32    2
    60    74    77    1
    61    74    75    1
    62    22    21    1
    63    22    25    1
    64    76    75    2
    65    27    26   ar
    66    78    77    1
    67    78    80   ar
    68    43    44    2
    69    43    42    1
    70   128   123   am
    71    82    84   ar
    72    82    80   ar
    73    20    19   ar
    74    37    36    1
    75    37    41   am
    76    75    87   am
    77    84    86   ar
    78    36    39    1
    79    80    83   ar
    80   125   122    1
    81   125   126    1
    82    26    25    1
    83    26    28   ar
    84    42    41    1
    85    42    45    1
    86   123   122    1
    87   123   124    2
    88    39    40    1
    89   122   121    1
    90    87    88    1
    91   126   127    1
    92    86    85   ar
    93    83    85   ar
    94    46    45    1
    95    46    47    1
    96    88    89    1
    97   121   127    1
    98   121   114   am
    99    40   111    1
   100    47    49   am
   101    47    48    2
   102   111   110    1
   103   115   114    2
   104    89    90    2
   105    89    91   am
   106   114   113    1
   107   110   107    1
   108   105   104    2
   109   107   108    1
   110   107   106    1
   111    91    92    1
   112   108   109    2
   113   113   112    1
   114   113   116    1
   115   104   106   am
   116   104   103    1
   117   116   117    1
   118    92    93    1
   119    92    95    1
   120    94    93    2
   121    93   102   am
   122   102   103    1
   123    95    96    1
   124   117   118    1
   125   118   119    1
   126    96    97    1
   127   119   120    1
   128    97    98    1
   129    98    99    2
   130    99   101    1
   131    99   100    1
