@<TRIPOS>MOLECULE
tmp/5za8A00.pdb
 151 149 0 0 0
SMALL
GASTEIGER

@<TRIPOS>ATOM
      1  N        -27.1040   -8.1780   -9.7320 N.3    46  HIS46      -0.1241
      2  CA       -26.4920   -8.1920   -8.3890 C.3    46  HIS46       0.1621
      3  C        -25.0730   -8.7650   -8.3840 C.2    46  HIS46       0.2264
      4  O        -24.2790   -8.4320   -7.5030 O.2    46  HIS46      -0.2867
      5  CB       -27.3860   -8.8670   -7.3330 C.3    46  HIS46       0.0745
      6  CG       -27.1880  -10.3460   -7.1770 C.ar   46  HIS46       0.0817
      7  ND1      -28.1320  -11.2570   -7.5880 N.ar   46  HIS46      -0.2268
      8  CD2      -26.1950  -11.0700   -6.5970 C.ar   46  HIS46       0.1154
      9  CE1      -27.7220  -12.4780   -7.2960 C.ar   46  HIS46       0.1986
     10  NE2      -26.5520  -12.3930   -6.6880 N.ar   46  HIS46      -0.2212
     11  N        -34.0780   -8.9220   -4.6670 N.3    94  HIS94      -0.1241
     12  CA       -33.5000   -8.0480   -5.6780 C.3    94  HIS94       0.1621
     13  C        -34.5350   -7.8810   -6.7780 C.2    94  HIS94       0.2264
     14  O        -34.9960   -8.8650   -7.3400 O.2    94  HIS94      -0.2867
     15  CB       -32.2380   -8.6810   -6.2680 C.3    94  HIS94       0.0745
     16  CG       -31.1720   -8.9590   -5.2580 C.ar   94  HIS94       0.0817
     17  ND1      -29.9500   -8.3250   -5.2730 N.ar   94  HIS94      -0.2268
     18  CD2      -31.1430   -9.8030   -4.2020 C.ar   94  HIS94       0.1154
     19  CE1      -29.2130   -8.7640   -4.2690 C.ar   94  HIS94       0.1986
     20  NE2      -29.9140   -9.6630   -3.6050 N.ar   94  HIS94      -0.2212
     21  N        -22.4600  -23.1950   -4.2060 N.3   142  LYS142     -0.1245
     22  CA       -22.1680  -24.0560   -3.0620 C.3   142  LYS142      0.1561
     23  C        -23.0310  -25.3110   -3.0550 C.2   142  LYS142      0.2260
     24  O        -24.1890  -25.2660   -3.4780 O.2   142  LYS142     -0.2867
     25  CB       -22.3800  -23.2990   -1.7490 C.3   142  LYS142      0.0271
     26  CG       -21.4020  -22.1660   -1.5270 C.3   142  LYS142      0.0035
     27  CD       -21.6360  -21.4850   -0.1860 C.3   142  LYS142      0.0206
     28  CE       -20.5830  -20.4260    0.0810 C.3   142  LYS142      0.1093
     29  NZ       -20.7790  -19.8570    1.4400 N.3   142  LYS142     -0.1314
     30  N        -24.9600  -24.7930    2.3580 N.3   145  SER145     -0.1217
     31  CA       -24.9980  -23.4020    2.7620 C.3   145  SER145      0.1889
     32  C        -23.7780  -23.0940    3.5760 C.2   145  SER145      0.2288
     33  O        -23.2460  -22.0350    3.4360 O.2   145  SER145     -0.2866
     34  CB       -26.2260  -23.0590    3.5890 C.3   145  SER145      0.2089
     35  OG       -27.3810  -23.4220    2.9190 O.3   145  SER145     -0.2183
     36  N        -31.6680  -27.4020   -4.4370 N.3   192  ASP192     -0.1225
     37  CA       -31.8880  -25.9650   -4.6200 C.3   192  ASP192      0.1805
     38  C        -30.6690  -25.2880   -5.2370 C.2   192  ASP192      0.2598
     39  O        -29.5730  -25.8560   -5.2480 O.2   192  ASP192     -0.2718
     40  CB       -32.1430  -25.3210   -3.2360 C.3   192  ASP192      0.1424
     41  CG       -32.9290  -24.0160   -3.3060 C.2   192  ASP192      0.3668
     42  OD1      -33.2310  -23.5120   -4.4060 O.co2 192  ASP192     -0.2456
     43  OD2      -33.2240  -23.4790   -2.2180 O.co2 192  ASP192     -0.2456
     44  N        -30.8640  -24.0590   -5.7100 N.am  193  SER193     -0.1938
     45  CA       -29.7590  -23.1570   -6.0110 C.3   193  SER193      0.2055
     46  C        -29.1750  -22.5750   -4.7140 C.2   193  SER193      0.2643
     47  O        -29.8050  -22.6190   -3.6490 O.2   193  SER193     -0.2714
     48  CB       -30.2100  -22.0360   -6.9460 C.3   193  SER193      0.2130
     49  OG       -31.3760  -21.3810   -6.4720 O.3   193  SER193     -0.2179
     50  N        -27.9550  -22.0600   -4.8020 N.am  194  CYS194     -0.1953
     51  CA       -27.3070  -21.4360   -3.6480 C.3   194  CYS194      0.1843
     52  C        -26.3380  -20.3480   -4.0800 C.2   194  CYS194      0.2625
     53  O        -26.2550  -20.0210   -5.2660 O.2   194  CYS194     -0.2714
     54  CB       -26.6170  -22.4970   -2.7730 C.3   194  CYS194      0.0997
     55  SG       -26.3680  -22.0010   -1.0410 S.3   194  CYS194     -0.0797
     56  N        -25.6480  -19.7570   -3.1030 N.am  195  GLN195     -0.1963
     57  CA       -24.6030  -18.7680   -3.3670 C.3   195  GLN195      0.1733
     58  C        -23.6210  -19.2800   -4.4180 C.2   195  GLN195      0.2616
     59  O        -23.1530  -20.4160   -4.3350 O.2   195  GLN195     -0.2715
     60  CB       -23.8650  -18.4140   -2.0640 C.3   195  GLN195      0.0408
     61  CG       -22.5790  -17.6160   -2.2360 C.3   195  GLN195      0.0908
     62  CD       -22.0200  -17.1010   -0.9230 C.2   195  GLN195      0.2608
     63  OE1      -22.5080  -17.4320    0.1510 O.2   195  GLN195     -0.2717
     64  NE2      -20.9740  -16.2960   -1.0120 N.am  195  GLN195     -0.0878
     65  N        -23.3320  -18.4340   -5.4030 N.am  196  GLY196     -0.1955
     66  CA       -22.5090  -18.8130   -6.5520 C.3   196  GLY196      0.1869
     67  C        -23.2820  -19.3370   -7.7620 C.2   196  GLY196      0.2309
     68  O        -22.7450  -19.3530   -8.8660 O.2   196  GLY196     -0.2863
     69  N        -26.0200  -17.7170   -8.6820 N.3   198  SER198     -0.1217
     70  CA       -26.6600  -16.4900   -9.1810 C.3   198  SER198      0.1889
     71  C        -26.2980  -16.2350  -10.6280 C.2   198  SER198      0.2288
     72  O        -25.1800  -16.5250  -11.0490 O.2   198  SER198     -0.2866
     73  CB       -26.2520  -15.2820   -8.3260 C.3   198  SER198      0.2089
     74  OG       -26.7880  -15.4010   -7.0160 O.3   198  SER198     -0.2183
     75  N        -31.1950  -17.3280  -11.9430 N.3   216  VAL216     -0.1231
     76  CA       -31.0610  -17.4810  -10.4760 C.3   216  VAL216      0.1692
     77  C        -30.8330  -16.0820   -9.8790 C.2   216  VAL216      0.2593
     78  O        -29.9220  -15.3740  -10.3090 O.2   216  VAL216     -0.2718
     79  CB       -29.8750  -18.3960  -10.0650 C.3   216  VAL216      0.0266
     80  CG1      -29.7440  -18.4720   -8.5430 C.3   216  VAL216      0.0020
     81  CG2      -29.9960  -19.8010  -10.6560 C.3   216  VAL216      0.0020
     82  N        -31.6360  -15.7030   -8.8810 N.am  217  SER217     -0.1938
     83  CA       -31.5760  -14.3490   -8.3140 C.3   217  SER217      0.2055
     84  C        -31.3250  -14.3440   -6.8110 C.2   217  SER217      0.2643
     85  O        -30.3090  -13.8220   -6.3700 O.2   217  SER217     -0.2714
     86  CB       -32.8460  -13.5680   -8.6340 C.3   217  SER217      0.2130
     87  OG       -32.7460  -12.2320   -8.1680 O.3   217  SER217     -0.2179
     88  N        -32.2420  -14.8970   -6.0230 N.am  218  TRP218     -0.1959
     89  CA       -32.0610  -14.8950   -4.5670 C.3   218  TRP218      0.1771
     90  C        -32.8340  -15.9790   -3.8350 C.2   218  TRP218      0.2620
     91  O        -33.6390  -16.6920   -4.4240 O.2   218  TRP218     -0.2715
     92  CB       -32.4220  -13.5140   -3.9980 C.3   218  TRP218      0.0590
     93  CG       -33.8480  -13.1090   -4.2370 C.ar  218  TRP218      0.0006
     94  CD1      -34.3620  -12.5400   -5.3650 C.ar  218  TRP218      0.0946
     95  CD2      -34.9440  -13.2460   -3.3250 C.ar  218  TRP218      0.0152
     96  NE1      -35.7030  -12.3100   -5.2130 N.ar  218  TRP218     -0.2442
     97  CE2      -36.0890  -12.7360   -3.9710 C.ar  218  TRP218      0.0810
     98  CE3      -35.0700  -13.7510   -2.0230 C.ar  218  TRP218      0.0012
     99  CZ2      -37.3490  -12.7150   -3.3580 C.ar  218  TRP218      0.0191
    100  CZ3      -36.3230  -13.7260   -1.4180 C.ar  218  TRP218      0.0001
    101  CH2      -37.4420  -13.2130   -2.0850 C.ar  218  TRP218      0.0015
    102  N        -32.5510  -16.1490   -2.5570 N.am  219  GLY219     -0.1940
    103  CA       -33.3420  -16.9430   -1.6590 C.3   219  GLY219      0.2014
    104  C        -32.9130  -16.7620   -0.2240 C.2   219  GLY219      0.2639
    105  O        -31.8610  -16.2970   -0.0050 O.2   219  GLY219     -0.2714
    106  N        -33.7130  -17.1780    0.7350 N.am  220  ARG220     -0.1963
    107  CA       -33.3010  -17.1350    2.1150 C.3   220  ARG220      0.1729
    108  C        -32.7440  -18.5080    2.3860 C.2   220  ARG220      0.2617
    109  O        -33.4330  -19.4770    2.2790 O.2   220  ARG220     -0.2715
    110  CB       -34.4620  -16.8350    3.0300 C.3   220  ARG220      0.0348
    111  CG       -34.1280  -17.1270    4.4610 C.3   220  ARG220      0.0492
    112  CD       -34.9710  -16.3670    5.4140 C.3   220  ARG220      0.2205
    113  NE       -34.9150  -14.9480    5.1870 N.pl3 220  ARG220     -0.0865
    114  CZ       -35.9540  -14.2130    4.7940 C.cat 220  ARG220      0.5346
    115  NH1      -37.1480  -14.7720    4.5570 N.pl3 220  ARG220      0.1354
    116  NH2      -35.7840  -12.9060    4.6390 N.pl3 220  ARG220      0.1354
    117  N        -31.4640  -18.5660    2.7040 N.am  221  GLY221     -0.1940
    118  CA       -30.7760  -19.8110    2.9060 C.3   221  GLY221      0.2014
    119  C        -30.7220  -20.5960    1.6000 C.2   221  GLY221      0.2639
    120  O        -30.9170  -20.0490    0.5510 O.2   221  GLY221     -0.2714
    121  N        -30.4600  -21.8730    1.6790 N.am  222  CYS222     -0.1953
    122  CA       -30.5260  -22.7230    0.5290 C.3   222  CYS222      0.1843
    123  C        -31.1880  -24.0540    0.9120 C.2   222  CYS222      0.2625
    124  O        -30.8680  -24.6060    1.8930 O.2   222  CYS222     -0.2714
    125  CB       -29.1250  -22.8990   -0.0430 C.3   222  CYS222      0.0997
    126  SG       -28.3040  -21.3580   -0.4660 S.3   222  CYS222     -0.0797
    127  N        -32.1090  -24.5460    0.1200 N.am  223  ALA223     -0.1977
    128  CA       -32.7820  -25.8030    0.4380 C.3   223  ALA223      0.1597
    129  C        -33.2980  -25.7750    1.8900 C.2   223  ALA223      0.2287
    130  O        -33.0930  -26.7270    2.6520 O.2   223  ALA223     -0.2864
    131  CB       -31.8280  -26.9740    0.2050 C.3   223  ALA223      0.0319
    132  N        -38.7700  -21.8660    1.8580 N.3   227  LYS227     -0.1231
    133  CA       -37.9570  -20.7780    1.3110 C.3   227  LYS227      0.1678
    134  C        -37.4820  -21.2060   -0.0700 C.2   227  LYS227      0.2434
    135  O        -36.3680  -21.7020   -0.2200 O.2   227  LYS227     -0.2733
    136  CB       -36.7840  -20.4490    2.2480 C.3   227  LYS227      0.0284
    137  CG       -37.1780  -20.1250    3.6880 C.3   227  LYS227      0.0035
    138  CD       -38.0570  -18.8820    3.8060 C.3   227  LYS227      0.0206
    139  CE       -38.8330  -18.8730    5.1210 C.3   227  LYS227      0.1093
    140  NZ       -39.9460  -17.8980    5.0990 N.3   227  LYS227     -0.1314
    141  N        -38.3430  -21.0520   -1.0860 N.am  228  PRO228     -0.2718
    142  CA       -37.9300  -21.4570   -2.4330 C.3   228  PRO228      0.1535
    143  C        -36.7860  -20.6220   -3.0170 C.2   228  PRO228      0.2599
    144  O        -36.4020  -19.5860   -2.4620 O.2   228  PRO228     -0.2715
    145  CB       -39.2140  -21.3120   -3.2790 C.3   228  PRO228      0.0310
    146  CG       -40.2150  -20.6300   -2.4210 C.3   228  PRO228      0.0237
    147  CD       -39.7900  -20.7760   -0.9960 C.3   228  PRO228      0.0939
    148  N        -36.2240  -21.0980   -4.1160 N.am  229  GLY229     -0.1955
    149  CA       -35.3180  -20.2810   -4.9040 C.3   229  GLY229      0.1869
    150  C        -36.1410  -19.2780   -5.6660 C.2   229  GLY229      0.2309
    151  O        -37.2640  -19.5890   -6.0790 O.2   229  GLY229     -0.2863
@<TRIPOS>BOND
     1    75    76    1
     2    72    71    2
     3    81    79    1
     4    71    70    1
     5    76    79    1
     6    76    77    1
     7    78    77    2
     8    79    80    1
     9    77    82   am
    10     1     2    1
    11    70    69    1
    12    70    73    1
    13    82    83    1
    14    68    67    2
    15    86    83    1
    16    86    87    1
    17     2     3    1
    18     2     5    1
    19     3     4    2
    20    73    74    1
    21    83    84    1
    22    67    66    1
    23     7     9   ar
    24     7     6   ar
    25    14    13    2
    26     5     6    1
    27     9    10   ar
    28     6     8   ar
    29    48    49    1
    30    48    45    1
    31    84    85    2
    32    84    88   am
    33    13    12    1
    34    10     8   ar
    35    66    65    1
    36    15    12    1
    37    15    16    1
    38   151   150    2
    39    88    89    1
    40    45    44    1
    41    45    46    1
    42    44    38   am
    43    12    11    1
    44   150   149    1
    45    65    58   am
    46    94    96   ar
    47    94    93   ar
    48    17    16   ar
    49    17    19   ar
    50    53    52    2
    51    16    18   ar
    52    39    38    2
    53    38    37    1
    54    96    97   ar
    55   149   148    1
    56    50    46   am
    57    50    51    1
    58    46    47    2
    59    37    36    1
    60    37    40    1
    61    89    92    1
    62    89    90    1
    63    91    90    2
    64    58    59    2
    65    58    57    1
    66    42    41   ar
    67    19    20   ar
    68    93    92    1
    69    93    95   ar
    70    21    22    1
    71    18    20   ar
    72   148   143   am
    73    52    51    1
    74    52    56   am
    75    97    99   ar
    76    97    95   ar
    77    90   102   am
    78    51    54    1
    79    24    23    2
    80    57    56    1
    81    57    60    1
    82    99   101   ar
    83    95    98   ar
    84    41    40    1
    85    41    43   ar
    86   145   142    1
    87   145   146    1
    88    22    23    1
    89    22    25    1
    90   143   144    2
    91   143   142    1
    92    54    55    1
    93   102   103    1
    94   142   141    1
    95   146   147    1
    96    61    60    1
    97    61    62    1
    98   101   100   ar
    99    98   100   ar
   100    25    26    1
   101   103   104    1
   102    26    27    1
   103   141   147    1
   104   141   134   am
   105    55   126    1
   106    64    62   am
   107    62    63    2
   108   126   125    1
   109   104   105    2
   110   104   106   am
   111   135   134    2
   112    27    28    1
   113   134   133    1
   114   125   122    1
   115    28    29    1
   116   127   128    1
   117   127   123   am
   118   131   128    1
   119   128   129    1
   120   122   123    1
   121   122   121    1
   122   120   119    2
   123   106   107    1
   124   123   124    2
   125   133   132    1
   126   133   136    1
   127   119   121   am
   128   119   118    1
   129   129   130    2
   130   107   108    1
   131   107   110    1
   132   136   137    1
   133   109   108    2
   134    30    31    1
   135   108   117   am
   136   117   118    1
   137    31    32    1
   138    31    34    1
   139    35    34    1
   140   110   111    1
   141    33    32    2
   142   137   138    1
   143   138   139    1
   144   111   112    1
   145   115   114    1
   146   116   114    1
   147   114   113    2
   148   140   139    1
   149   113   112    1
