@<TRIPOS>MOLECULE
tmp/5za9A00.pdb
 142 139 0 0 0
SMALL
GASTEIGER

@<TRIPOS>ATOM
      1  N         20.4150   19.4030   -4.3090 N.3    46  HIS46      -0.1241
      2  CA        20.1050   18.9040   -5.6680 C.3    46  HIS46       0.1621
      3  C         19.9220   17.3870   -5.7350 C.2    46  HIS46       0.2264
      4  O         19.3160   16.8740   -6.6840 O.2    46  HIS46      -0.2867
      5  CB        21.1410   19.3750   -6.7120 C.3    46  HIS46       0.0745
      6  CG        22.3360   18.4770   -6.8700 C.ar   46  HIS46       0.0817
      7  ND1       23.5910   18.8290   -6.4280 N.ar   46  HIS46      -0.2268
      8  CD2       22.4770   17.2740   -7.4780 C.ar   46  HIS46       0.1154
      9  CE1       24.4460   17.8660   -6.7230 C.ar   46  HIS46       0.1986
     10  NE2       23.7950   16.9110   -7.3620 N.ar   46  HIS46      -0.2212
     11  N         24.5840   25.0140   -9.2190 N.3    94  HIS94      -0.1241
     12  CA        23.5760   24.8850   -8.1860 C.3    94  HIS94       0.1621
     13  C         23.9680   25.8600   -7.0820 C.2    94  HIS94       0.2264
     14  O         25.0690   25.7670   -6.5390 O.2    94  HIS94      -0.2867
     15  CB        23.5470   23.4530   -7.6540 C.3    94  HIS94       0.0745
     16  CG        23.1980   22.4380   -8.6960 C.ar   94  HIS94       0.0817
     17  ND1       21.9920   21.7730   -8.7160 N.ar   94  HIS94      -0.2268
     18  CD2       23.8890   21.9910   -9.7700 C.ar   94  HIS94       0.1154
     19  CE1       21.9590   20.9520   -9.7500 C.ar   94  HIS94       0.1986
     20  NE2       23.0990   21.0650  -10.4050 N.ar   94  HIS94      -0.2212
     21  N         31.0750    7.9100  -10.1180 N.3   142  LYS142     -0.1245
     22  CA        31.6620    7.2340  -11.2310 C.3   142  LYS142      0.1561
     23  C         33.1760    7.3620  -11.2580 C.2   142  LYS142      0.2260
     24  O         33.7110    8.3180  -10.8230 O.2   142  LYS142     -0.2867
     25  CB        31.0880    7.7740  -12.5350 C.3   142  LYS142      0.0271
     26  CG        29.6530    7.4080  -12.7620 C.3   142  LYS142      0.0035
     27  CD        29.1970    7.8070  -14.1460 C.3   142  LYS142      0.0206
     28  CE        27.7400    7.5270  -14.4240 C.3   142  LYS142      0.1093
     29  NZ        27.3400    8.2660  -15.6400 N.3   142  LYS142     -0.1314
     30  N         33.8410    9.3120  -16.5690 N.3   145  SER145     -0.1217
     31  CA        32.6330   10.0220  -17.0050 C.3   145  SER145      0.1889
     32  C         31.7080    9.1550  -17.8680 C.2   145  SER145      0.2288
     33  O         30.4860    9.2630  -17.7630 O.2   145  SER145     -0.2866
     34  CB        33.0130   11.2860  -17.7830 C.3   145  SER145      0.2089
     35  OG        33.8600   12.1060  -17.0020 O.3   145  SER145     -0.2183
     36  N         39.2850   13.7550   -9.7360 N.3   192  ASP192     -0.1225
     37  CA        38.1530   14.6690   -9.5390 C.3   192  ASP192      0.1805
     38  C         36.9530   13.9330   -8.9620 C.2   192  ASP192      0.2598
     39  O         36.9180   12.7020   -8.9610 O.2   192  ASP192     -0.2718
     40  CB        37.7440   15.2780  -10.8940 C.3   192  ASP192      0.1424
     41  CG        37.0400   16.6180  -10.7680 C.2   192  ASP192      0.3668
     42  OD1       36.7950   17.1020   -9.6440 O.co2 192  ASP192     -0.2456
     43  OD2       36.7180   17.1900  -11.8270 O.co2 192  ASP192     -0.2456
     44  N         35.9750   14.6940   -8.4720 N.am  193  SER193     -0.1938
     45  CA        34.6410   14.1650   -8.1970 C.3   193  SER193      0.2055
     46  C         33.8510   14.0210   -9.5050 C.2   193  SER193      0.2643
     47  O         34.2190   14.5920  -10.5340 O.2   193  SER193     -0.2714
     48  CB        33.8860   15.0670   -7.2100 C.3   193  SER193      0.2130
     49  OG        33.9980   16.4340   -7.5620 O.3   193  SER193     -0.2179
     50  N         32.7710   13.2630   -9.4740 N.am  194  CYS194     -0.1953
     51  CA        31.9490   12.9900  -10.6400 C.3   194  CYS194      0.1843
     52  C         30.5180   12.6460  -10.2180 C.2   194  CYS194      0.2625
     53  O         30.2050   12.7030   -9.0770 O.2   194  CYS194     -0.2714
     54  CB        32.5210   11.8470  -11.4510 C.3   194  CYS194      0.0997
     55  SG        32.0370   11.8220  -13.1890 S.3   194  CYS194     -0.0797
     56  N         29.6800   12.2930  -11.1650 N.am  195  GLN195     -0.1963
     57  CA        28.3030   11.9650  -10.8680 C.3   195  GLN195      0.1733
     58  C         28.2650   10.8290   -9.8330 C.2   195  GLN195      0.2616
     59  O         28.9980    9.9210   -9.9320 O.2   195  GLN195     -0.2715
     60  CB        27.6660   11.4890  -12.1670 C.3   195  GLN195      0.0408
     61  CG        26.2590   10.9980  -12.0680 C.3   195  GLN195      0.0908
     62  CD        25.6660   10.6310  -13.4210 C.2   195  GLN195      0.2608
     63  OE1       26.3460   10.2800  -14.3220 O.2   195  GLN195     -0.2717
     64  NE2       24.4040   10.7670  -13.5310 N.am  195  GLN195     -0.0878
     65  N         27.4020   10.9730   -8.8470 N.am  196  GLY196     -0.1955
     66  CA        27.3010   10.0940   -7.7140 C.3   196  GLY196      0.1869
     67  C         28.1330   10.4730   -6.5030 C.2   196  GLY196      0.2309
     68  O         27.8880    9.9910   -5.4670 O.2   196  GLY196     -0.2863
     69  N         28.1080   13.6710   -5.4950 N.3   198  SER198     -0.1217
     70  CA        27.4020   14.8420   -4.9650 C.3   198  SER198      0.1889
     71  C         26.9960   14.6200   -3.5190 C.2   198  SER198      0.2288
     72  O         26.6480   13.5080   -3.1340 O.2   198  SER198     -0.2866
     73  CB        26.1530   15.1470   -5.7720 C.3   198  SER198      0.2089
     74  OG        26.4980   15.5500   -7.0800 O.3   198  SER198     -0.2183
     75  N         30.3670   18.2970   -2.1270 N.3   216  VAL216     -0.1231
     76  CA        30.4310   18.1200   -3.5940 C.3   216  VAL216      0.1692
     77  C         29.1220   18.6050   -4.2170 C.2   216  VAL216      0.2593
     78  O         28.0590   18.1320   -3.8460 O.2   216  VAL216     -0.2718
     79  CB        30.6600   16.6430   -4.0100 C.3   216  VAL216      0.0266
     80  CG1       30.7090   16.5220   -5.5320 C.3   216  VAL216      0.0020
     81  CG2       31.9390   16.0720   -3.4010 C.3   216  VAL216      0.0020
     82  N         29.2050   19.5320   -5.1750 N.am  217  SER217     -0.1938
     83  CA        28.0050   20.1830   -5.7120 C.3   217  SER217      0.2055
     84  C         27.8610   20.0320   -7.2310 C.2   217  SER217      0.2643
     85  O         26.8590   19.4940   -7.7010 O.2   217  SER217     -0.2714
     86  CB        27.9850   21.6580   -5.3380 C.3   217  SER217      0.2130
     87  OG        26.7890   22.2700   -5.8020 O.3   217  SER217     -0.2179
     88  N         28.8320   20.5260   -7.9890 N.am  218  TRP218     -0.1959
     89  CA        28.7190   20.5100   -9.4480 C.3   218  TRP218      0.1771
     90  C         30.0490   20.6520  -10.1660 C.2   218  TRP218      0.2620
     91  O         31.0800   20.9300   -9.5620 O.2   218  TRP218     -0.2715
     92  CB        27.7260   21.5830   -9.9360 C.3   218  TRP218      0.0590
     93  CG        28.1150   23.0010   -9.6360 C.ar  218  TRP218      0.0006
     94  CD1       27.8790   23.6890   -8.4880 C.ar  218  TRP218      0.0946
     95  CD2       28.8010   23.9030  -10.5090 C.ar  218  TRP218      0.0152
     96  NE1       28.3680   24.9680   -8.5850 N.ar  218  TRP218     -0.2442
     97  CE2       28.9470   25.1250   -9.8160 C.ar  218  TRP218      0.0810
     98  CE3       29.3010   23.8010  -11.8140 C.ar  218  TRP218      0.0012
     99  CZ2       29.5860   26.2380  -10.3790 C.ar  218  TRP218      0.0191
    100  CZ3       29.9370   24.9080  -12.3760 C.ar  218  TRP218      0.0001
    101  CH2       30.0740   26.1090  -11.6570 C.ar  218  TRP218      0.0015
    102  N         30.0120   20.4150  -11.4620 N.am  219  GLY219     -0.1954
    103  CA        31.1180   20.7030  -12.3240 C.3   219  GLY219      0.1869
    104  C         30.7240   20.4670  -13.7680 C.2   219  GLY219      0.2309
    105  O         29.7660   19.8520  -14.0300 O.2   219  GLY219     -0.2863
    106  N         31.5010   18.3070  -16.7080 N.3   221  GLY221     -0.1210
    107  CA        32.1590   17.0310  -16.8810 C.3   221  GLY221      0.1956
    108  C         32.8350   16.5790  -15.6000 C.2   221  GLY221      0.2612
    109  O         32.4450   16.9920  -14.5480 O.2   221  GLY221     -0.2717
    110  N         33.8660   15.7560  -15.7270 N.am  222  CYS222     -0.1970
    111  CA        34.6680   15.3230  -14.6240 C.3   222  CYS222      0.1712
    112  C         36.1220   15.2400  -15.0820 C.2   222  CYS222      0.2296
    113  O         36.3630   14.7150  -16.1020 O.2   222  CYS222     -0.2864
    114  CB        34.1580   13.9630  -14.1450 C.3   222  CYS222      0.0983
    115  SG        32.4240   13.7920  -13.8040 S.3   222  CYS222     -0.0798
    116  N         38.1620   22.8690  -15.7770 N.3   227  LYS227     -0.1231
    117  CA        36.8110   22.6880  -15.2370 C.3   227  LYS227      0.1681
    118  C         36.9110   22.0220  -13.8670 C.2   227  LYS227      0.2471
    119  O         36.7090   20.8180  -13.7370 O.2   227  LYS227     -0.2730
    120  CB        35.9350   21.8800  -16.2000 C.3   227  LYS227      0.0284
    121  CG        35.8110   22.4660  -17.6080 C.3   227  LYS227      0.0035
    122  CD        35.1090   23.8220  -17.6450 C.3   227  LYS227      0.0206
    123  CE        35.4920   24.6100  -18.8940 C.3   227  LYS227      0.1093
    124  NZ        34.9400   25.9890  -18.8700 N.3   227  LYS227     -0.1314
    125  N         37.2480   22.8070  -12.8320 N.am  228  PRO228     -0.2492
    126  CA        37.3650   22.2460  -11.4790 C.3   228  PRO228      0.1619
    127  C         36.0620   21.6670  -10.9200 C.2   228  PRO228      0.2606
    128  O         34.9770   21.9410  -11.4300 O.2   228  PRO228     -0.2715
    129  CB        37.7970   23.4450  -10.6100 C.3   228  PRO228      0.0570
    130  CG        38.0630   24.5760  -11.5260 C.2   228  PRO228     -0.0077
    131  CD        37.6780   24.2170  -12.9180 C.2   228  PRO228      0.0634
    132  N         36.1850   20.8680   -9.8660 N.am  229  GLY229     -0.1940
    133  CA        35.0310   20.5290   -9.0460 C.3   229  GLY229      0.2014
    134  C         34.6090   21.7590   -8.2780 C.2   229  GLY229      0.2638
    135  O         35.4630   22.5420   -7.8480 O.2   229  GLY229     -0.2714
    136  N         33.3010   21.9260   -8.1090 N.am  230  VAL230     -0.1977
    137  CA        32.7530   23.0420   -7.3520 C.3   230  VAL230      0.1596
    138  C         31.9840   22.4840   -6.1630 C.2   230  VAL230      0.2287
    139  O         31.2340   21.5160   -6.2920 O.2   230  VAL230     -0.2864
    140  CB        31.8650   23.9620   -8.2050 C.3   230  VAL230      0.0276
    141  CG1       31.5380   25.2350   -7.4260 C.3   230  VAL230      0.0022
    142  CG2       32.5580   24.2920   -9.5240 C.3   230  VAL230      0.0022
@<TRIPOS>BOND
     1   123   124    1
     2   123   122    1
     3    32    33    2
     4    32    31    1
     5    34    31    1
     6    34    35    1
     7   122   121    1
     8   121   120    1
     9    31    30    1
    10   107   106    1
    11   107   108    1
    12   120   117    1
    13   113   112    2
    14   116   117    1
    15   110   108   am
    16   110   111    1
    17    29    28    1
    18   108   109    2
    19   117   118    1
    20   112   111    1
    21   111   114    1
    22    28    27    1
    23    63    62    2
    24    27    26    1
    25   114   115    1
    26   105   104    2
    27   118   119    2
    28   118   125   am
    29   115    55    1
    30   104   103    1
    31    64    62   am
    32    62    61    1
    33    55    54    1
    34   131   125    1
    35   131   130    2
    36   125   126    1
    37    26    25    1
    38    25    22    1
    39   100    98   ar
    40   100   101   ar
    41   103   102    1
    42    60    61    1
    43    60    57    1
    44    43    41   ar
    45    98    95   ar
    46   101    99   ar
    47   130   129    1
    48   126   127    1
    49   126   129    1
    50   102    90   am
    51    54    51    1
    52   128   127    2
    53    23    22    1
    54    23    24    2
    55    22    21    1
    56    56    57    1
    57    56    52   am
    58   127   132   am
    59    40    41    1
    60    40    37    1
    61    57    58    1
    62    41    42   ar
    63    51    52    1
    64    51    50    1
    65    47    46    2
    66    95    97   ar
    67    95    93   ar
    68    20    18   ar
    69    20    19   ar
    70    99    97   ar
    71    52    53    2
    72    90    91    2
    73    90    89    1
    74    92    93    1
    75    92    89    1
    76    59    58    2
    77   132   133    1
    78    58    65   am
    79    97    96   ar
    80    18    16   ar
    81    19    17   ar
    82    36    37    1
    83    93    94   ar
    84    37    38    1
    85   142   140    1
    86    46    50   am
    87    46    45    1
    88    89    88    1
    89    11    12    1
    90   133   134    1
    91    38    39    2
    92    38    44   am
    93    65    66    1
    94    17    16   ar
    95    16    15    1
    96    96    94   ar
    97    44    45    1
    98   134   136   am
    99   134   135    2
   100   140   141    1
   101   140   137    1
   102    45    48    1
   103    12    15    1
   104    12    13    1
   105   136   137    1
   106    88    84   am
   107    66    67    1
   108    85    84    2
   109    49    48    1
   110     8    10   ar
   111     8     6   ar
   112    10     9   ar
   113   137   138    1
   114    84    83    1
   115    13    14    2
   116    74    73    1
   117     6     5    1
   118     6     7   ar
   119     9     7   ar
   120     5     2    1
   121     4     3    2
   122    67    68    2
   123   139   138    2
   124    87    86    1
   125    73    70    1
   126     3     2    1
   127    83    86    1
   128    83    82    1
   129     2     1    1
   130    80    79    1
   131    69    70    1
   132    82    77   am
   133    70    71    1
   134    77    78    2
   135    77    76    1
   136    79    76    1
   137    79    81    1
   138    76    75    1
   139    71    72    2
