@<TRIPOS>MOLECULE
tmp/5zaeA00.pdb
 153 151 0 0 0
SMALL
GASTEIGER

@<TRIPOS>ATOM
      1  N        -27.1100   -8.0970   -9.6440 N.3    46  HIS46      -0.1241
      2  CA       -26.5120   -8.0360   -8.2990 C.3    46  HIS46       0.1621
      3  C        -25.0660   -8.5750   -8.2680 C.2    46  HIS46       0.2264
      4  O        -24.2550   -8.1760   -7.4220 O.2    46  HIS46      -0.2867
      5  CB       -27.3970   -8.7000   -7.2440 C.3    46  HIS46       0.0745
      6  CG       -27.2090  -10.1820   -7.0950 C.ar   46  HIS46       0.0817
      7  ND1      -28.1500  -11.0920   -7.5180 N.ar   46  HIS46      -0.2268
      8  CD2      -26.2200  -10.9030   -6.5230 C.ar   46  HIS46       0.1154
      9  CE1      -27.7390  -12.3150   -7.2310 C.ar   46  HIS46       0.1986
     10  NE2      -26.5730  -12.2310   -6.6160 N.ar   46  HIS46      -0.2212
     11  N        -33.9870   -8.8880   -4.7350 N.3    94  HIS94      -0.1241
     12  CA       -33.3740   -8.0170   -5.6720 C.3    94  HIS94       0.1621
     13  C        -34.4820   -7.8410   -6.6900 C.2    94  HIS94       0.2264
     14  O        -35.0920   -8.7740   -7.0480 O.2    94  HIS94      -0.2867
     15  CB       -32.1250   -8.6670   -6.2640 C.3    94  HIS94       0.0745
     16  CG       -31.0790   -8.9960   -5.2500 C.ar   94  HIS94       0.0817
     17  ND1      -31.3060   -9.8430   -4.2050 N.ar   94  HIS94      -0.2268
     18  CD2      -29.8270   -8.5340   -5.0810 C.ar   94  HIS94       0.1154
     19  CE1      -30.2100   -9.9520   -3.4830 C.ar   94  HIS94       0.1986
     20  NE2      -29.3010   -9.1580   -3.9860 N.ar   94  HIS94      -0.2212
     21  N        -22.3440  -23.0470   -4.1870 N.3   142  LYS142     -0.1245
     22  CA       -22.0850  -23.9070   -3.0440 C.3   142  LYS142      0.1561
     23  C        -22.9700  -25.1540   -3.0140 C.2   142  LYS142      0.2260
     24  O        -24.1430  -25.1000   -3.4060 O.2   142  LYS142     -0.2867
     25  CB       -22.2770  -23.1070   -1.7630 C.3   142  LYS142      0.0271
     26  CG       -21.3100  -21.9400   -1.6230 C.3   142  LYS142      0.0035
     27  CD       -21.3850  -21.3350   -0.2310 C.3   142  LYS142      0.0206
     28  CE       -20.4580  -20.1340   -0.1140 C.3   142  LYS142      0.1093
     29  NZ       -20.6730  -19.4630    1.2000 N.3   142  LYS142     -0.1314
     30  N        -24.7880  -24.6480    2.3180 N.3   145  SER145     -0.1217
     31  CA       -24.8790  -23.2470    2.6270 C.3   145  SER145      0.1889
     32  C        -23.6420  -22.7860    3.4030 C.2   145  SER145      0.2288
     33  O        -23.1860  -21.6850    3.2620 O.2   145  SER145     -0.2866
     34  CB       -26.1170  -22.9540    3.4540 C.3   145  SER145      0.2089
     35  OG       -27.2890  -23.3310    2.7800 O.3   145  SER145     -0.2183
     36  N        -31.5390  -27.2830   -4.4930 N.3   192  ASP192     -0.1225
     37  CA       -31.7930  -25.8550   -4.6400 C.3   192  ASP192      0.1805
     38  C        -30.5690  -25.1740   -5.2200 C.2   192  ASP192      0.2598
     39  O        -29.4630  -25.7480   -5.2420 O.2   192  ASP192     -0.2718
     40  CB       -32.0910  -25.2230   -3.2490 C.3   192  ASP192      0.1424
     41  CG       -32.8870  -23.9080   -3.3150 C.2   192  ASP192      0.3668
     42  OD1      -33.1650  -23.3950   -4.4130 O.co2 192  ASP192     -0.2456
     43  OD2      -33.2270  -23.3650   -2.2160 O.co2 192  ASP192     -0.2456
     44  N        -30.7750  -23.9480   -5.6850 N.am  193  SER193     -0.1938
     45  CA       -29.6590  -23.0620   -5.9590 C.3   193  SER193      0.2055
     46  C        -29.1110  -22.4270   -4.6870 C.2   193  SER193      0.2643
     47  O        -29.7120  -22.5020   -3.5960 O.2   193  SER193     -0.2714
     48  CB       -30.0660  -21.9810   -6.9500 C.3   193  SER193      0.2130
     49  OG       -31.1770  -21.2670   -6.4700 O.3   193  SER193     -0.2179
     50  N        -27.9330  -21.8380   -4.8050 N.am  194  CYS194     -0.1953
     51  CA       -27.2670  -21.2260   -3.6520 C.3   194  CYS194      0.1843
     52  C        -26.2770  -20.1460   -4.0810 C.2   194  CYS194      0.2625
     53  O        -26.1000  -19.8780   -5.2800 O.2   194  CYS194     -0.2714
     54  CB       -26.5660  -22.3130   -2.8160 C.3   194  CYS194      0.0997
     55  SG       -26.3000  -21.8870   -1.0550 S.3   194  CYS194     -0.0797
     56  N        -25.6310  -19.5120   -3.1020 N.am  195  GLN195     -0.1963
     57  CA       -24.5530  -18.5520   -3.3810 C.3   195  GLN195      0.1733
     58  C        -23.5610  -19.1030   -4.3880 C.2   195  GLN195      0.2616
     59  O        -23.0630  -20.2230   -4.2230 O.2   195  GLN195     -0.2715
     60  CB       -23.7840  -18.1720   -2.0910 C.3   195  GLN195      0.0408
     61  CG       -22.6340  -17.2030   -2.3610 C.3   195  GLN195      0.0908
     62  CD       -21.8920  -16.7820   -1.1150 C.2   195  GLN195      0.2608
     63  OE1      -21.8560  -17.5060   -0.1290 O.2   195  GLN195     -0.2717
     64  NE2      -21.2900  -15.6070   -1.1630 N.am  195  GLN195     -0.0878
     65  N        -23.2850  -18.3050   -5.4230 N.am  196  GLY196     -0.1955
     66  CA       -22.4170  -18.7010   -6.5270 C.3   196  GLY196      0.1869
     67  C        -23.1810  -19.1570   -7.7540 C.2   196  GLY196      0.2309
     68  O        -22.6540  -19.1100   -8.8630 O.2   196  GLY196     -0.2863
     69  N        -26.0270  -17.5810   -8.6120 N.3   198  SER198     -0.1217
     70  CA       -26.6900  -16.3820   -9.1450 C.3   198  SER198      0.1889
     71  C        -26.2720  -16.1000  -10.5910 C.2   198  SER198      0.2288
     72  O        -25.1410  -16.3720  -10.9820 O.2   198  SER198     -0.2866
     73  CB       -26.3890  -15.1490   -8.2990 C.3   198  SER198      0.2089
     74  OG       -26.7720  -15.3120   -6.9310 O.3   198  SER198     -0.2183
     75  N        -31.1430  -17.2610  -11.9590 N.3   216  VAL216     -0.1231
     76  CA       -30.9890  -17.4170  -10.5030 C.3   216  VAL216      0.1692
     77  C        -30.7540  -16.0380   -9.8860 C.2   216  VAL216      0.2593
     78  O        -29.8560  -15.3250  -10.3220 O.2   216  VAL216     -0.2718
     79  CB       -29.7970  -18.3320  -10.1190 C.3   216  VAL216      0.0266
     80  CG1      -29.6310  -18.4040   -8.5990 C.3   216  VAL216      0.0020
     81  CG2      -29.9580  -19.7330  -10.6840 C.3   216  VAL216      0.0020
     82  N        -31.5470  -15.6830   -8.8750 N.am  217  SER217     -0.1938
     83  CA       -31.4810  -14.3300   -8.2660 C.3   217  SER217      0.2055
     84  C        -31.2580  -14.2650   -6.7380 C.2   217  SER217      0.2643
     85  O        -30.2830  -13.6500   -6.2940 O.2   217  SER217     -0.2714
     86  CB       -32.7150  -13.5090   -8.6520 C.3   217  SER217      0.2130
     87  OG       -32.7540  -12.2790   -7.9300 O.3   217  SER217     -0.2179
     88  N        -32.1470  -14.8720   -5.9580 N.am  218  TRP218     -0.1959
     89  CA       -32.0530  -14.8420   -4.4980 C.3   218  TRP218      0.1771
     90  C        -32.8270  -15.9420   -3.8030 C.2   218  TRP218      0.2620
     91  O        -33.6160  -16.6630   -4.4120 O.2   218  TRP218     -0.2715
     92  CB       -32.4820  -13.4710   -3.9350 C.3   218  TRP218      0.0590
     93  CG       -33.9310  -13.0850   -4.2050 C.ar  218  TRP218      0.0006
     94  CD1      -34.4380  -12.5300   -5.3450 C.ar  218  TRP218      0.0946
     95  CD2      -35.0390  -13.2210   -3.2990 C.ar  218  TRP218      0.0152
     96  NE1      -35.7950  -12.3080   -5.2060 N.ar  218  TRP218     -0.2442
     97  CE2      -36.1880  -12.7290   -3.9620 C.ar  218  TRP218      0.0810
     98  CE3      -35.1670  -13.7060   -1.9930 C.ar  218  TRP218      0.0012
     99  CZ2      -37.4460  -12.7100   -3.3590 C.ar  218  TRP218      0.0191
    100  CZ3      -36.4080  -13.6900   -1.4000 C.ar  218  TRP218      0.0001
    101  CH2      -37.5330  -13.1930   -2.0750 C.ar  218  TRP218      0.0015
    102  N        -32.5670  -16.0660   -2.5020 N.am  219  GLY219     -0.1940
    103  CA       -33.3660  -16.8910   -1.6260 C.3   219  GLY219      0.2014
    104  C        -32.8970  -16.7170   -0.1920 C.2   219  GLY219      0.2639
    105  O        -31.7710  -16.2890    0.0520 O.2   219  GLY219     -0.2714
    106  N        -33.7680  -17.0560    0.7530 N.am  220  ARG220     -0.1963
    107  CA       -33.4000  -17.0530    2.1520 C.3   220  ARG220      0.1729
    108  C        -32.8270  -18.4290    2.4830 C.2   220  ARG220      0.2617
    109  O        -33.3720  -19.4850    2.1270 O.2   220  ARG220     -0.2715
    110  CB       -34.5990  -16.7510    3.0620 C.3   220  ARG220      0.0348
    111  CG       -34.2330  -16.8990    4.5330 C.3   220  ARG220      0.0492
    112  CD       -35.3130  -16.4360    5.4830 C.3   220  ARG220      0.2205
    113  NE       -35.7000  -15.0410    5.2700 N.pl3 220  ARG220     -0.0865
    114  CZ       -36.9310  -14.6160    4.9730 C.cat 220  ARG220      0.5346
    115  NH1      -37.1520  -13.3230    4.8220 N.pl3 220  ARG220      0.1354
    116  NH2      -37.9440  -15.4570    4.8360 N.pl3 220  ARG220      0.1354
    117  N        -31.5590  -18.3170    2.5450 N.am  221  GLY221     -0.1940
    118  CA       -30.6190  -19.4060    2.6980 C.3   221  GLY221      0.2014
    119  C        -30.6730  -20.3070    1.4630 C.2   221  GLY221      0.2639
    120  O        -30.9470  -19.8100    0.4340 O.2   221  GLY221     -0.2714
    121  N        -30.4280  -21.6030    1.6000 N.am  222  CYS222     -0.1967
    122  CA       -30.4870  -22.5550    0.5190 C.3   222  CYS222      0.1712
    123  C        -31.1020  -23.9210    0.9360 C.2   222  CYS222      0.2296
    124  O        -30.7790  -24.4210    1.9620 O.2   222  CYS222     -0.2864
    125  CB       -29.0840  -22.7720   -0.0480 C.3   222  CYS222      0.0983
    126  SG       -28.2120  -21.2620   -0.4080 S.3   222  CYS222     -0.0798
    127  N        -38.7940  -21.8170    1.6960 N.3   227  LYS227     -0.1231
    128  CA       -38.0250  -20.7020    1.2070 C.3   227  LYS227      0.1678
    129  C        -37.4820  -21.1230   -0.1210 C.2   227  LYS227      0.2434
    130  O        -36.4080  -21.6120   -0.2120 O.2   227  LYS227     -0.2733
    131  CB       -36.8520  -20.3460    2.1360 C.3   227  LYS227      0.0284
    132  CG       -37.1550  -20.1310    3.5860 C.3   227  LYS227      0.0035
    133  CD       -37.9220  -18.8330    3.8420 C.3   227  LYS227      0.0206
    134  CE       -38.8650  -18.8860    5.0260 C.3   227  LYS227      0.1093
    135  NZ       -39.8070  -17.7830    5.1240 N.3   227  LYS227     -0.1314
    136  N        -38.2960  -20.9860   -1.1430 N.am  228  PRO228     -0.2718
    137  CA       -37.9130  -21.3210   -2.5050 C.3   228  PRO228      0.1535
    138  C        -36.7340  -20.5400   -3.0800 C.2   228  PRO228      0.2599
    139  O        -36.3360  -19.4980   -2.5600 O.2   228  PRO228     -0.2715
    140  CB       -39.1620  -20.9890   -3.3180 C.3   228  PRO228      0.0310
    141  CG       -40.2830  -21.0660   -2.3540 C.3   228  PRO228      0.0237
    142  CD       -39.7350  -20.6800   -1.0280 C.3   228  PRO228      0.0939
    143  N        -36.1850  -21.0660   -4.1680 N.am  229  GLY229     -0.1941
    144  CA       -35.3180  -20.2900   -5.0200 C.3   229  GLY229      0.2014
    145  C        -36.1760  -19.2850   -5.7470 C.2   229  GLY229      0.2638
    146  O        -37.2810  -19.6320   -6.1950 O.2   229  GLY229     -0.2714
    147  N        -35.6830  -18.0480   -5.8280 N.am  230  VAL230     -0.1977
    148  CA       -36.3400  -16.9740   -6.5670 C.3   230  VAL230      0.1596
    149  C        -35.5140  -16.5870   -7.8000 C.2   230  VAL230      0.2287
    150  O        -34.2980  -16.4740   -7.7530 O.2   230  VAL230     -0.2864
    151  CB       -36.6100  -15.7480   -5.6700 C.3   230  VAL230      0.0276
    152  CG1      -37.6040  -14.8140   -6.3440 C.3   230  VAL230      0.0022
    153  CG2      -37.1220  -16.2170   -4.3020 C.3   230  VAL230      0.0022
@<TRIPOS>BOND
     1    75    76    1
     2    72    71    2
     3    81    79    1
     4    71    70    1
     5    76    79    1
     6    76    77    1
     7    78    77    2
     8    79    80    1
     9    77    82   am
    10     1     2    1
    11    70    69    1
    12    70    73    1
    13    82    83    1
    14    68    67    2
    15    86    83    1
    16    86    87    1
    17     2     3    1
    18     2     5    1
    19    73    74    1
    20     3     4    2
    21    83    84    1
    22   149   150    2
    23   149   148    1
    24    67    66    1
    25     7     9   ar
    26     7     6   ar
    27     5     6    1
    28     9    10   ar
    29     6     8   ar
    30    14    13    2
    31    48    49    1
    32    48    45    1
    33    84    85    2
    34    84    88   am
    35    13    12    1
    36    10     8   ar
    37   148   147    1
    38   148   151    1
    39    66    65    1
    40   152   151    1
    41    15    12    1
    42    15    16    1
    43   146   145    2
    44    45    44    1
    45    45    46    1
    46    88    89    1
    47   147   145   am
    48   145   144    1
    49    44    38   am
    50    12    11    1
    51   151   153    1
    52    65    58   am
    53    94    96   ar
    54    94    93   ar
    55    53    52    2
    56    16    18   ar
    57    16    17   ar
    58    39    38    2
    59    38    37    1
    60    96    97   ar
    61    18    20   ar
    62   144   143    1
    63    50    46   am
    64    50    51    1
    65    46    47    2
    66    37    36    1
    67    37    40    1
    68    89    92    1
    69    89    90    1
    70    42    41   ar
    71    91    90    2
    72    58    59    2
    73    58    57    1
    74    93    92    1
    75    93    95   ar
    76    17    19   ar
    77    21    22    1
    78   143   138   am
    79    52    51    1
    80    52    56   am
    81    20    19   ar
    82    97    99   ar
    83    97    95   ar
    84    90   102   am
    85    51    54    1
    86    24    23    2
    87    57    56    1
    88    57    60    1
    89    99   101   ar
    90   140   137    1
    91   140   141    1
    92    41    40    1
    93    41    43   ar
    94    95    98   ar
    95   138   139    2
    96   138   137    1
    97    22    23    1
    98    22    25    1
    99    54    55    1
   100   137   136    1
   101   102   103    1
   102    61    60    1
   103    61    62    1
   104   141   142    1
   105   101   100   ar
   106    98   100   ar
   107    25    26    1
   108   103   104    1
   109    26    27    1
   110    64    62   am
   111   136   142    1
   112   136   129   am
   113    62    63    2
   114    55   126    1
   115   126   125    1
   116    27    28    1
   117   130   129    2
   118   104   105    2
   119   104   106   am
   120   129   128    1
   121    28    29    1
   122   125   122    1
   123   120   119    2
   124   122   123    1
   125   122   121    1
   126   106   107    1
   127   123   124    2
   128   128   127    1
   129   128   131    1
   130   119   121   am
   131   119   118    1
   132   109   108    2
   133   131   132    1
   134   107   108    1
   135   107   110    1
   136    30    31    1
   137   108   117   am
   138   117   118    1
   139    31    32    1
   140    31    34    1
   141    35    34    1
   142   110   111    1
   143    33    32    2
   144   132   133    1
   145   133   134    1
   146   111   112    1
   147   115   114    1
   148   116   114    1
   149   114   113    2
   150   134   135    1
   151   113   112    1
