@<TRIPOS>MOLECULE
tmp/5zafA00.pdb
 151 149 0 0 0
SMALL
GASTEIGER

@<TRIPOS>ATOM
      1  N          6.4710   27.6080   18.9330 N.3    46  HIS46      -0.1241
      2  CA         6.1350   27.0790   20.2740 C.3    46  HIS46       0.1621
      3  C          4.9280   26.1300   20.2640 C.2    46  HIS46       0.2264
      4  O          4.8090   25.2640   21.1310 O.2    46  HIS46      -0.2867
      5  CB         5.9860   28.1960   21.3290 C.3    46  HIS46       0.0745
      6  CG         4.6040   28.7660   21.4650 C.ar   46  HIS46       0.0817
      7  ND1        4.2790   30.0210   21.0080 N.ar   46  HIS46      -0.2268
      8  CD2        3.4870   28.2830   22.0620 C.ar   46  HIS46       0.1154
      9  CE1        3.0160   30.2790   21.2910 C.ar   46  HIS46       0.1986
     10  NE2        2.5090   29.2390   21.9270 N.ar   46  HIS46      -0.2212
     11  N          9.2570   33.9730   23.9880 N.3    94  HIS94      -0.1241
     12  CA         9.7530   33.0470   22.9870 C.3    94  HIS94       0.1621
     13  C         10.4530   33.8790   21.9230 C.2    94  HIS94       0.2264
     14  O          9.8490   34.7900   21.3660 O.2    94  HIS94      -0.2867
     15  CB         8.5940   32.2710   22.3530 C.3    94  HIS94       0.0745
     16  CG         7.7500   31.5280   23.3420 C.ar   94  HIS94       0.0817
     17  ND1        7.7290   30.1530   23.4180 N.ar   94  HIS94      -0.2268
     18  CD2        6.8990   31.9690   24.2970 C.ar   94  HIS94       0.1154
     19  CE1        6.9020   29.7770   24.3770 C.ar   94  HIS94       0.1986
     20  NE2        6.3860   30.8610   24.9270 N.ar   94  HIS94      -0.2212
     21  N         -8.8830   31.0370   24.3360 N.3   142  LYS142     -0.1245
     22  CA        -9.7710   31.2370   25.4840 C.3   142  LYS142      0.1561
     23  C        -10.4300   32.6140   25.4880 C.2   142  LYS142      0.2260
     24  O         -9.8230   33.5940   25.0680 O.2   142  LYS142     -0.2867
     25  CB        -9.0110   31.0560   26.7940 C.3   142  LYS142      0.0271
     26  CG        -8.5530   29.6400   27.0510 C.3   142  LYS142      0.0035
     27  CD        -7.9410   29.5150   28.4340 C.3   142  LYS142      0.0206
     28  CE        -7.5090   28.0900   28.7060 C.3   142  LYS142      0.1093
     29  NZ        -7.0020   27.9690   30.0970 N.3   142  LYS142     -0.1314
     30  N         -9.1340   34.0980   30.8800 N.3   145  SER145     -0.1217
     31  CA        -7.9360   33.4200   31.3670 C.3   145  SER145      0.1889
     32  C         -8.2860   32.1880   32.2050 C.2   145  SER145      0.2288
     33  O         -7.6510   31.1470   32.0600 O.2   145  SER145     -0.2866
     34  CB        -7.0700   34.3850   32.1780 C.3   145  SER145      0.2089
     35  OG        -6.7230   35.5090   31.3820 O.3   145  SER145     -0.2183
     36  N         -7.9310   41.1700   24.1850 N.3   192  ASP192     -0.1225
     37  CA        -6.5820   40.6400   23.9930 C.3   192  ASP192      0.1805
     38  C         -6.6270   39.2510   23.3580 C.2   192  ASP192      0.2598
     39  O         -7.6740   38.6070   23.3220 O.2   192  ASP192     -0.2718
     40  CB        -5.8820   40.5270   25.3620 C.3   192  ASP192      0.1424
     41  CG        -4.3640   40.5640   25.2800 C.2   192  ASP192      0.3668
     42  OD1       -3.7850   40.5540   24.1770 O.co2 192  ASP192     -0.2456
     43  OD2       -3.7510   40.5810   26.3660 O.co2 192  ASP192     -0.2456
     44  N         -5.4760   38.7900   22.8810 N.am  193  SER193     -0.1938
     45  CA        -5.2790   37.3760   22.5750 C.3   193  SER193      0.2055
     46  C         -5.0440   36.5970   23.8810 C.2   193  SER193      0.2643
     47  O         -4.8070   37.1880   24.9360 O.2   193  SER193     -0.2714
     48  CB        -4.1120   37.1930   21.6080 C.3   193  SER193      0.2130
     49  OG        -2.9700   37.8910   22.0640 O.3   193  SER193     -0.2179
     50  N         -5.1500   35.2750   23.8030 N.am  194  CYS194     -0.1953
     51  CA        -4.9220   34.4070   24.9580 C.3   194  CYS194      0.1843
     52  C         -4.4810   33.0160   24.5120 C.2   194  CYS194      0.2625
     53  O         -4.2840   32.7780   23.3220 O.2   194  CYS194     -0.2714
     54  CB        -6.2020   34.3390   25.8200 C.3   194  CYS194      0.0997
     55  SG        -5.9330   33.8540   27.5470 S.3   194  CYS194     -0.0797
     56  N         -4.2910   32.1110   25.4740 N.am  195  GLN195     -0.1963
     57  CA        -3.9630   30.7080   25.1850 C.3   195  GLN195      0.1733
     58  C         -4.9060   30.1220   24.1440 C.2   195  GLN195      0.2616
     59  O         -6.1200   30.2820   24.2520 O.2   195  GLN195     -0.2715
     60  CB        -4.0280   29.8790   26.4650 C.3   195  GLN195      0.0408
     61  CG        -3.8610   28.3760   26.2950 C.3   195  GLN195      0.0908
     62  CD        -3.8080   27.6480   27.6250 C.2   195  GLN195      0.2608
     63  OE1       -3.7510   28.2650   28.6850 O.2   195  GLN195     -0.2717
     64  NE2       -3.8390   26.3270   27.5710 N.am  195  GLN195     -0.0878
     65  N         -4.3290   29.4630   23.1420 N.am  196  GLY196     -0.1955
     66  CA        -5.0750   28.9460   21.9990 C.3   196  GLY196      0.1869
     67  C         -5.1140   29.8780   20.7940 C.2   196  GLY196      0.2309
     68  O         -5.3640   29.4210   19.6830 O.2   196  GLY196     -0.2863
     69  N         -2.3360   31.5200   19.9300 N.3   198  SER198     -0.1217
     70  CA        -0.9590   31.4160   19.4300 C.3   198  SER198      0.1889
     71  C         -0.9050   30.9520   17.9830 C.2   198  SER198      0.2288
     72  O         -1.6920   30.0980   17.5690 O.2   198  SER198     -0.2866
     73  CB        -0.1570   30.4380   20.2930 C.3   198  SER198      0.2089
     74  OG         0.0060   30.9320   21.6140 O.3   198  SER198     -0.2183
     75  N          0.6160   35.7120   16.6650 N.3   216  VAL216     -0.1231
     76  CA         0.3940   35.6750   18.1200 C.3   216  VAL216      0.1692
     77  C          1.4490   34.7590   18.7430 C.2   216  VAL216      0.2593
     78  O          1.5800   33.6130   18.3240 O.2   216  VAL216     -0.2718
     79  CB        -1.0130   35.1280   18.4900 C.3   216  VAL216      0.0266
     80  CG1       -1.1920   35.0470   20.0030 C.3   216  VAL216      0.0020
     81  CG2       -2.1340   35.9580   17.8620 C.3   216  VAL216      0.0020
     82  N          2.1670   35.2580   19.7490 N.am  217  SER217     -0.1938
     83  CA         3.2880   34.5220   20.3360 C.3   217  SER217      0.2055
     84  C          3.1520   34.3200   21.8450 C.2   217  SER217      0.2643
     85  O          3.0870   33.1880   22.2870 O.2   217  SER217     -0.2714
     86  CB         4.6100   35.2020   19.9850 C.3   217  SER217      0.2130
     87  OG         5.7130   34.4700   20.5100 O.3   217  SER217     -0.2179
     88  N          3.1100   35.3950   22.6290 N.am  218  TRP218     -0.1959
     89  CA         3.0440   35.2570   24.0930 C.3   218  TRP218      0.1771
     90  C          2.5040   36.4850   24.8150 C.2   218  TRP218      0.2620
     91  O          2.2960   37.5300   24.2080 O.2   218  TRP218     -0.2715
     92  CB         4.4270   34.8880   24.6550 C.3   218  TRP218      0.0590
     93  CG         5.4920   35.9320   24.4340 C.ar  218  TRP218      0.0006
     94  CD1        6.2520   36.1060   23.3160 C.ar  218  TRP218      0.0946
     95  CD2        5.9070   36.9410   25.3600 C.ar  218  TRP218      0.0152
     96  NE1        7.1160   37.1560   23.4860 N.ar  218  TRP218     -0.2442
     97  CE2        6.9240   37.6890   24.7320 C.ar  218  TRP218      0.0810
     98  CE3        5.5180   37.2850   26.6620 C.ar  218  TRP218      0.0012
     99  CZ2        7.5590   38.7660   25.3620 C.ar  218  TRP218      0.0191
    100  CZ3        6.1500   38.3530   27.2870 C.ar  218  TRP218      0.0001
    101  CH2        7.1590   39.0830   26.6330 C.ar  218  TRP218      0.0015
    102  N          2.2770   36.3220   26.1180 N.am  219  GLY219     -0.1940
    103  CA         1.9630   37.4300   27.0270 C.3   219  GLY219      0.2014
    104  C          1.8800   36.9760   28.4800 C.2   219  GLY219      0.2639
    105  O          1.7270   35.7830   28.7450 O.2   219  GLY219     -0.2714
    106  N          1.9280   37.8860   29.4180 N.am  220  ARG220     -0.1963
    107  CA         1.7600   37.5150   30.7960 C.3   220  ARG220      0.1729
    108  C          0.2770   37.6950   31.0650 C.2   220  ARG220      0.2617
    109  O         -0.2190   38.7580   30.9450 O.2   220  ARG220     -0.2715
    110  CB         2.6230   38.4030   31.6800 C.3   220  ARG220      0.0348
    111  CG         2.2870   38.4010   33.1420 C.3   220  ARG220      0.0492
    112  CD         2.8500   37.1900   33.8480 C.3   220  ARG220      0.2205
    113  NE         1.7740   36.3560   34.4040 N.pl3 220  ARG220     -0.0865
    114  CZ         0.9220   36.7290   35.3660 C.cat 220  ARG220      0.5346
    115  NH1        1.0380   37.9260   35.9230 N.pl3 220  ARG220      0.1354
    116  NH2       -0.0240   35.8980   35.7910 N.pl3 220  ARG220      0.1354
    117  N         -0.4190   36.5950   31.3100 N.am  221  GLY221     -0.1940
    118  CA        -1.8420   36.6230   31.4930 C.3   221  GLY221      0.2014
    119  C         -2.4760   36.9770   30.1640 C.2   221  GLY221      0.2639
    120  O         -1.8250   36.9560   29.1680 O.2   221  GLY221     -0.2714
    121  N         -3.7620   37.2890   30.1950 N.am  222  CYS222     -0.1953
    122  CA        -4.5010   37.7930   29.0760 C.3   222  CYS222      0.1843
    123  C         -5.3400   38.9940   29.5060 C.2   222  CYS222      0.2625
    124  O         -5.9910   38.9350   30.4880 O.2   222  CYS222     -0.2714
    125  CB        -5.3900   36.6950   28.5330 C.3   222  CYS222      0.0997
    126  SG        -4.4030   35.2460   28.1410 S.3   222  CYS222     -0.0797
    127  N         -5.3060   40.0540   28.7390 N.am  223  ALA223     -0.1977
    128  CA        -6.0660   41.2600   29.0460 C.3   223  ALA223      0.1597
    129  C         -5.7570   41.7490   30.4780 C.2   223  ALA223      0.2287
    130  O         -6.6670   42.0930   31.2330 O.2   223  ALA223     -0.2864
    131  CB        -7.5590   40.9970   28.8500 C.3   223  ALA223      0.0319
    132  N          0.3950   44.5540   30.5310 N.3   227  LYS227     -0.1231
    133  CA         0.9270   43.3080   29.9800 C.3   227  LYS227      0.1678
    134  C          0.3150   43.1000   28.5970 C.2   227  LYS227      0.2434
    135  O         -0.6590   42.3630   28.4500 O.2   227  LYS227     -0.2733
    136  CB         0.6360   42.1210   30.9140 C.3   227  LYS227      0.0284
    137  CG         1.1110   42.2860   32.3560 C.3   227  LYS227      0.0035
    138  CD         2.6250   42.4250   32.4850 C.3   227  LYS227      0.0206
    139  CE         3.0020   43.2200   33.7290 C.3   227  LYS227      0.1093
    140  NZ         4.4500   43.5400   33.7570 N.3   227  LYS227     -0.1314
    141  N          0.8650   43.7780   27.5730 N.am  228  PRO228     -0.2718
    142  CA         0.3160   43.6180   26.2230 C.3   228  PRO228      0.1535
    143  C          0.4760   42.2170   25.6290 C.2   228  PRO228      0.2599
    144  O          1.2130   41.3780   26.1610 O.2   228  PRO228     -0.2715
    145  CB         1.0930   44.6450   25.3790 C.3   228  PRO228      0.0310
    146  CG         2.1720   45.1810   26.2440 C.3   228  PRO228      0.0237
    147  CD         1.8160   44.9020   27.6630 C.3   228  PRO228      0.0939
    148  N         -0.2380   41.9690   24.5370 N.am  229  GLY229     -0.1955
    149  CA         0.0380   40.8060   23.7080 C.3   229  GLY229      0.1869
    150  C          1.3320   41.0250   22.9630 C.2   229  GLY229      0.2309
    151  O          1.6240   42.1520   22.5500 O.2   229  GLY229     -0.2863
@<TRIPOS>BOND
     1    75    76    1
     2    72    71    2
     3    81    79    1
     4    71    70    1
     5    76    79    1
     6    76    77    1
     7    78    77    2
     8    79    80    1
     9    77    82   am
    10     1     2    1
    11    70    69    1
    12    70    73    1
    13    68    67    2
    14    82    83    1
    15    86    83    1
    16    86    87    1
    17     3     2    1
    18     3     4    2
    19     2     5    1
    20    73    74    1
    21    83    84    1
    22    67    66    1
    23     7     9   ar
    24     7     6   ar
    25     9    10   ar
    26     5     6    1
    27    14    13    2
    28     6     8   ar
    29    48    49    1
    30    48    45    1
    31    84    85    2
    32    84    88   am
    33    13    12    1
    34    10     8   ar
    35    66    65    1
    36    15    12    1
    37    15    16    1
    38   151   150    2
    39    45    44    1
    40    45    46    1
    41    88    89    1
    42    44    38   am
    43   150   149    1
    44    12    11    1
    45    65    58   am
    46    94    96   ar
    47    94    93   ar
    48    53    52    2
    49    39    38    2
    50    16    17   ar
    51    16    18   ar
    52    38    37    1
    53    17    19   ar
    54    96    97   ar
    55   149   148    1
    56    50    46   am
    57    50    51    1
    58    46    47    2
    59    37    36    1
    60    37    40    1
    61    89    92    1
    62    89    90    1
    63    58    59    2
    64    58    57    1
    65    42    41   ar
    66    91    90    2
    67    18    20   ar
    68    21    22    1
    69    19    20   ar
    70    93    92    1
    71    93    95   ar
    72    52    51    1
    73    52    56   am
    74   148   143   am
    75    97    95   ar
    76    97    99   ar
    77    90   102   am
    78    51    54    1
    79    24    23    2
    80    57    56    1
    81    57    60    1
    82    41    40    1
    83    41    43   ar
    84    95    98   ar
    85    99   101   ar
    86   145   142    1
    87   145   146    1
    88    22    23    1
    89    22    25    1
    90   143   144    2
    91   143   142    1
    92    54    55    1
    93   102   103    1
    94   142   141    1
    95   146   147    1
    96    61    60    1
    97    61    62    1
    98   101   100   ar
    99    98   100   ar
   100    25    26    1
   101   103   104    1
   102    26    27    1
   103    55   126    1
   104    64    62   am
   105   141   147    1
   106   141   134   am
   107    62    63    2
   108   126   125    1
   109    27    28    1
   110   135   134    2
   111   104   105    2
   112   104   106   am
   113   125   122    1
   114   134   133    1
   115    28    29    1
   116   127   128    1
   117   127   123   am
   118   131   128    1
   119   128   129    1
   120   122   123    1
   121   122   121    1
   122   120   119    2
   123   106   107    1
   124   123   124    2
   125   133   132    1
   126   133   136    1
   127   119   121   am
   128   119   118    1
   129   129   130    2
   130   107   108    1
   131   107   110    1
   132    30    31    1
   133   136   137    1
   134   109   108    2
   135   108   117   am
   136   117   118    1
   137    31    34    1
   138    31    32    1
   139    35    34    1
   140   110   111    1
   141    33    32    2
   142   137   138    1
   143   138   139    1
   144   111   112    1
   145   139   140    1
   146   112   113    1
   147   113   114    2
   148   114   116    1
   149   114   115    1
