@<TRIPOS>MOLECULE
tmp/5zahA00.pdb
 169 167 0 0 0
SMALL
GASTEIGER

@<TRIPOS>ATOM
      1  N          6.6530   27.5050   -9.6090 N.3    46  HIS46      -0.1241
      2  CA         6.4170   26.9630   -8.2670 C.3    46  HIS46       0.1621
      3  C          5.2290   25.9970   -8.2630 C.2    46  HIS46       0.2264
      4  O          5.1500   25.1140   -7.4150 O.2    46  HIS46      -0.2867
      5  CB         6.2780   28.0600   -7.1870 C.3    46  HIS46       0.0745
      6  CG         4.9160   28.6840   -7.0970 C.ar   46  HIS46       0.0817
      7  ND1        3.7990   28.0030   -6.6650 N.ar   46  HIS46      -0.2268
      8  CD2        4.5030   29.9490   -7.3380 C.ar   46  HIS46       0.1154
      9  CE1        2.7540   28.8130   -6.6710 C.ar   46  HIS46       0.1986
     10  NE2        3.1560   30.0030   -7.0740 N.ar   46  HIS46      -0.2212
     11  N          9.4390   33.6810    1.1420 N.3    92  LEU92      -0.1245
     12  CA         8.2250   34.2150    0.5790 C.3    92  LEU92       0.1561
     13  C          8.3140   34.2750   -0.9150 C.2    92  LEU92       0.2260
     14  O          7.4050   33.9210   -1.6100 O.2    92  LEU92      -0.2867
     15  CB         8.0140   35.6120    1.1170 C.3    92  LEU92       0.0270
     16  CG         6.6290   35.9820    1.6190 C.3    92  LEU92       0.0019
     17  CD1        5.8620   34.7630    2.0870 C.3    92  LEU92       0.0001
     18  CD2        6.7540   37.0210    2.7100 C.3    92  LEU92       0.0001
     19  N          9.4730   33.9870   -4.8800 N.3    94  HIS94      -0.1241
     20  CA         9.7770   32.9590   -5.8650 C.3    94  HIS94       0.1621
     21  C         10.4440   33.6580   -7.0360 C.2    94  HIS94       0.2264
     22  O          9.8470   34.5340   -7.6610 O.2    94  HIS94      -0.2867
     23  CB         8.5070   32.2810   -6.3410 C.3    94  HIS94       0.0745
     24  CG         7.8510   31.4420   -5.2990 C.ar   94  HIS94       0.0817
     25  ND1        8.1930   30.1280   -5.0820 N.ar   94  HIS94      -0.2268
     26  CD2        6.8660   31.7260   -4.4170 C.ar   94  HIS94       0.1154
     27  CE1        7.4460   29.6360   -4.1100 C.ar   94  HIS94       0.1986
     28  NE2        6.6320   30.5870   -3.6890 N.ar   94  HIS94      -0.2212
     29  N         -8.8290   30.8980   -4.0630 N.3   142  LYS142     -0.1245
     30  CA        -9.6260   31.1010   -2.8560 C.3   142  LYS142      0.1561
     31  C        -10.3190   32.4590   -2.8250 C.2   142  LYS142      0.2260
     32  O         -9.7310   33.4680   -3.2110 O.2   142  LYS142     -0.2867
     33  CB        -8.7360   30.9940   -1.6200 C.3   142  LYS142      0.0271
     34  CG        -8.3970   29.5780   -1.2200 C.3   142  LYS142      0.0035
     35  CD        -7.9020   29.5530    0.2170 C.3   142  LYS142      0.0206
     36  CE        -7.4340   28.1720    0.6540 C.3   142  LYS142      0.1093
     37  NZ        -6.0960   27.8070    0.1350 N.3   142  LYS142     -0.1314
     38  N         -8.8970   33.8760    2.4680 N.3   145  SER145     -0.1217
     39  CA        -7.7230   33.0930    2.9240 C.3   145  SER145      0.1889
     40  C         -8.0700   31.9780    3.9280 C.2   145  SER145      0.2288
     41  O         -7.3390   30.9980    4.0290 O.2   145  SER145     -0.2866
     42  CB        -6.6510   34.0010    3.5430 C.3   145  SER145      0.2089
     43  OG        -6.6060   35.2790    2.9300 O.3   145  SER145     -0.2183
     44  N         -7.9480   41.0850   -4.3770 N.3   192  ASP192     -0.1225
     45  CA        -6.6010   40.5560   -4.5950 C.3   192  ASP192      0.1805
     46  C         -6.6620   39.1750   -5.1990 C.2   192  ASP192      0.2598
     47  O         -7.7160   38.5420   -5.1990 O.2   192  ASP192     -0.2718
     48  CB        -5.8590   40.4670   -3.2480 C.3   192  ASP192      0.1424
     49  CG        -4.3630   40.2840   -3.3880 C.2   192  ASP192      0.3668
     50  OD1       -3.7830   40.3790   -4.4880 O.co2 192  ASP192     -0.2456
     51  OD2       -3.7580   40.0300   -2.3480 O.co2 192  ASP192     -0.2456
     52  N         -5.5190   38.7370   -5.7230 N.am  193  SER193     -0.1938
     53  CA        -5.2290   37.3260   -5.9370 C.3   193  SER193      0.2055
     54  C         -4.9970   36.5960   -4.6170 C.2   193  SER193      0.2643
     55  O         -4.6900   37.2100   -3.5830 O.2   193  SER193     -0.2714
     56  CB        -4.0170   37.1320   -6.8650 C.3   193  SER193      0.2130
     57  OG        -2.9690   38.0580   -6.6260 O.3   193  SER193     -0.2179
     58  N         -5.1370   35.2720   -4.6940 N.am  194  CYS194     -0.1953
     59  CA        -4.9540   34.3560   -3.5760 C.3   194  CYS194      0.1843
     60  C         -4.4790   32.9600   -4.0320 C.2   194  CYS194      0.2625
     61  O         -4.2390   32.7430   -5.2270 O.2   194  CYS194     -0.2714
     62  CB        -6.2980   34.2410   -2.8500 C.3   194  CYS194      0.0997
     63  SG        -6.2450   33.2090   -1.3690 S.3   194  CYS194     -0.0797
     64  N         -4.3400   32.0180   -3.0940 N.am  195  GLN195     -0.1977
     65  CA        -3.8720   30.6530   -3.4250 C.3   195  GLN195      0.1601
     66  C         -4.8060   30.0270   -4.4650 C.2   195  GLN195      0.2287
     67  O         -6.0290   30.1550   -4.3710 O.2   195  GLN195     -0.2864
     68  CB        -3.8050   29.7810   -2.1640 C.3   195  GLN195      0.0394
     69  CG        -3.4920   28.3070   -2.4050 C.3   195  GLN195      0.0908
     70  CD        -3.4390   27.4580   -1.1380 C.2   195  GLN195      0.2608
     71  OE1       -4.1200   26.4460   -1.0620 O.2   195  GLN195     -0.2717
     72  NE2       -2.6730   27.8710   -0.1380 N.am  195  GLN195     -0.0878
     73  N         -2.4010   31.3390   -8.6950 N.3   198  SER198     -0.1217
     74  CA        -1.0060   31.2610   -9.1490 C.3   198  SER198      0.1889
     75  C         -0.8910   30.6640  -10.5460 C.2   198  SER198      0.2288
     76  O         -1.6410   29.7570  -10.8980 O.2   198  SER198     -0.2866
     77  CB        -0.1740   30.4260   -8.1480 C.3   198  SER198      0.2089
     78  OG        -0.3470   30.8660   -6.8020 O.3   198  SER198     -0.2183
     79  N          0.6020   35.6370  -11.9170 N.3   216  VAL216     -0.1231
     80  CA         0.3750   35.5980  -10.4660 C.3   216  VAL216      0.1692
     81  C          1.4370   34.6860   -9.8270 C.2   216  VAL216      0.2593
     82  O          1.5550   33.5220  -10.2170 O.2   216  VAL216     -0.2718
     83  CB        -1.0520   35.0750  -10.1080 C.3   216  VAL216      0.0266
     84  CG1       -1.2650   35.0360   -8.5910 C.3   216  VAL216      0.0020
     85  CG2       -2.1470   35.9100  -10.7760 C.3   216  VAL216      0.0020
     86  N          2.1990   35.2140   -8.8620 N.am  217  SER217     -0.1938
     87  CA         3.3650   34.5090   -8.2950 C.3   217  SER217      0.2055
     88  C          3.3140   34.2880   -6.7800 C.2   217  SER217      0.2643
     89  O          3.3730   33.1360   -6.3270 O.2   217  SER217     -0.2714
     90  CB         4.6650   35.2330   -8.6570 C.3   217  SER217      0.2130
     91  OG         5.7950   34.4670   -8.2730 O.3   217  SER217     -0.2179
     92  N          3.2480   35.3640   -5.9950 N.am  218  TRP218     -0.1959
     93  CA         3.2700   35.2170   -4.5360 C.3   218  TRP218      0.1771
     94  C          2.7170   36.4120   -3.7510 C.2   218  TRP218      0.2620
     95  O          2.4440   37.4540   -4.3200 O.2   218  TRP218     -0.2715
     96  CB         4.6910   34.8390   -4.0690 C.3   218  TRP218      0.0590
     97  CG         5.7210   35.9010   -4.2400 C.ar  218  TRP218      0.0006
     98  CD1        6.4820   36.1620   -5.3530 C.ar  218  TRP218      0.0946
     99  CD2        6.1210   36.8450   -3.2490 C.ar  218  TRP218      0.0152
    100  NE1        7.3220   37.2220   -5.1140 N.ar  218  TRP218     -0.2442
    101  CE2        7.1110   37.6700   -3.8340 C.ar  218  TRP218      0.0810
    102  CE3        5.7310   37.0840   -1.9230 C.ar  218  TRP218      0.0012
    103  CZ2        7.7230   38.7060   -3.1300 C.ar  218  TRP218      0.0191
    104  CZ3        6.3390   38.1100   -1.2280 C.ar  218  TRP218      0.0001
    105  CH2        7.3250   38.9110   -1.8330 C.ar  218  TRP218      0.0015
    106  N          2.5710   36.2500   -2.4530 N.am  219  GLY219     -0.1940
    107  CA         2.0820   37.3000   -1.6040 C.3   219  GLY219      0.2014
    108  C          1.9750   36.7490   -0.2160 C.2   219  GLY219      0.2639
    109  O          1.9730   35.5650   -0.0360 O.2   219  GLY219     -0.2714
    110  N          1.9210   37.6320    0.7620 N.am  220  ARG220     -0.1963
    111  CA         1.7610   37.2530    2.1490 C.3   220  ARG220      0.1729
    112  C          0.3200   37.5170    2.4780 C.2   220  ARG220      0.2617
    113  O         -0.0650   38.6510    2.6450 O.2   220  ARG220     -0.2715
    114  CB         2.6800   38.0820    3.0450 C.3   220  ARG220      0.0348
    115  CG         2.6180   37.7980    4.5440 C.3   220  ARG220      0.0492
    116  CD         3.0930   36.3920    4.9280 C.3   220  ARG220      0.2205
    117  NE         2.3120   35.7960    6.0120 N.pl3 220  ARG220     -0.0865
    118  CZ         1.5190   34.7380    5.8830 C.cat 220  ARG220      0.5346
    119  NH1        1.3930   34.1250    4.7210 N.pl3 220  ARG220      0.1354
    120  NH2        0.8520   34.2910    6.9270 N.pl3 220  ARG220      0.1354
    121  N         -0.4720   36.4530    2.5420 N.am  221  GLY221     -0.1940
    122  CA        -1.8900   36.5530    2.7730 C.3   221  GLY221      0.2014
    123  C         -2.5350   37.2200    1.6010 C.2   221  GLY221      0.2639
    124  O         -2.0200   38.1860    1.0800 O.2   221  GLY221     -0.2714
    125  N         -3.6600   36.6920    1.1680 N.am  222  CYS222     -0.1967
    126  CA        -4.3920   37.3200    0.1260 C.3   222  CYS222      0.1712
    127  C         -5.0310   38.5700    0.6950 C.2   222  CYS222      0.2296
    128  O         -5.6750   38.5240    1.7090 O.2   222  CYS222     -0.2864
    129  CB        -5.4230   36.3570   -0.3870 C.3   222  CYS222      0.0983
    130  SG        -4.8250   34.6910   -0.6170 S.3   222  CYS222     -0.0798
    131  N          0.5670   44.6890    1.7860 N.3   227  LYS227     -0.1231
    132  CA         1.1960   43.5040    1.2020 C.3   227  LYS227      0.1678
    133  C          0.5360   43.3000   -0.1420 C.2   227  LYS227      0.2434
    134  O         -0.5110   42.6720   -0.2300 O.2   227  LYS227     -0.2733
    135  CB         1.0280   42.2620    2.1000 C.3   227  LYS227      0.0284
    136  CG         1.4230   42.4470    3.5600 C.3   227  LYS227      0.0035
    137  CD         2.9090   42.7260    3.7470 C.3   227  LYS227      0.0206
    138  CE         3.1500   43.5530    4.9980 C.3   227  LYS227      0.1093
    139  NZ         4.5340   44.1070    5.0420 N.3   227  LYS227     -0.1314
    140  N          1.1090   43.8750   -1.2000 N.am  228  PRO228     -0.2718
    141  CA         0.4980   43.6410   -2.5140 C.3   228  PRO228      0.1535
    142  C          0.5770   42.1960   -2.9960 C.2   228  PRO228      0.2599
    143  O          1.1370   41.3370   -2.3360 O.2   228  PRO228     -0.2715
    144  CB         1.2950   44.5640   -3.4520 C.3   228  PRO228      0.0310
    145  CG         2.4460   45.0700   -2.6530 C.3   228  PRO228      0.0237
    146  CD         2.0410   45.0100   -1.2200 C.3   228  PRO228      0.0939
    147  N         -0.0270   41.9280   -4.1400 N.am  229  GLY229     -0.1941
    148  CA         0.2450   40.6990   -4.8720 C.3   229  GLY229      0.2014
    149  C          1.5250   40.9450   -5.6320 C.2   229  GLY229      0.2639
    150  O          1.8160   42.0950   -5.9680 O.2   229  GLY229     -0.2714
    151  N          2.2850   39.8730   -5.8770 N.am  230  VAL230     -0.1963
    152  CA         3.5500   39.9210   -6.6310 C.3   230  VAL230      0.1727
    153  C          3.4460   38.9910   -7.8200 C.2   230  VAL230      0.2616
    154  O          2.9900   37.8750   -7.6840 O.2   230  VAL230     -0.2715
    155  CB         4.7690   39.5070   -5.7910 C.3   230  VAL230      0.0290
    156  CG1        6.0510   39.8710   -6.5370 C.3   230  VAL230      0.0023
    157  CG2        4.7320   40.1670   -4.4090 C.3   230  VAL230      0.0023
    158  N          3.8690   39.4750   -8.9810 N.am  231  TYR231     -0.1974
    159  CA         3.6330   38.8170  -10.2700 C.3   231  TYR231      0.1639
    160  C          4.9350   38.8310  -11.0470 C.2   231  TYR231      0.2290
    161  O          5.7400   39.7580  -10.9180 O.2   231  TYR231     -0.2864
    162  CB         2.5620   39.5700  -11.0890 C.3   231  TYR231      0.0560
    163  CG         1.2130   39.7140  -10.4020 C.ar  231  TYR231     -0.0198
    164  CD1        1.0480   40.5710   -9.3080 C.ar  231  TYR231     -0.0009
    165  CD2        0.0960   39.0110  -10.8530 C.ar  231  TYR231     -0.0009
    166  CE1       -0.1710   40.6980   -8.6600 C.ar  231  TYR231      0.0417
    167  CE2       -1.1330   39.1340  -10.2100 C.ar  231  TYR231      0.0417
    168  CZ        -1.2640   39.9810   -9.1110 C.ar  231  TYR231      0.1957
    169  OH        -2.4790   40.1050   -8.4550 O.3   231  TYR231     -0.2866
@<TRIPOS>BOND
     1    79    80    1
     2   162   163    1
     3   162   159    1
     4   160   161    2
     5   160   159    1
     6    76    75    2
     7   165   163   ar
     8   165   167   ar
     9    85    83    1
    10    75    74    1
    11    80    83    1
    12    80    81    1
    13   163   164   ar
    14   159   158    1
    15    82    81    2
    16   167   168   ar
    17    83    84    1
    18    81    86   am
    19     1     2    1
    20   164   166   ar
    21    74    73    1
    22    74    77    1
    23   168   166   ar
    24   168   169    1
    25   158   153   am
    26    86    87    1
    27    90    87    1
    28    90    91    1
    29    87    88    1
    30     2     3    1
    31     2     5    1
    32     3     4    2
    33    77    78    1
    34   153   154    2
    35   153   152    1
    36    22    21    2
    37     8     6   ar
    38     8    10   ar
    39     5     6    1
    40     6     7   ar
    41    10     9   ar
    42    21    20    1
    43    56    57    1
    44    56    53    1
    45    88    89    2
    46    88    92   am
    47     9     7   ar
    48   152   151    1
    49   152   155    1
    50   156   155    1
    51    23    20    1
    52    23    24    1
    53    92    93    1
    54   150   149    2
    55    53    52    1
    56    53    54    1
    57   151   149   am
    58    20    19    1
    59   155   157    1
    60    52    46   am
    61   149   148    1
    62    98   100   ar
    63    98    97   ar
    64    24    25   ar
    65    24    26   ar
    66    61    60    2
    67    47    46    2
    68    46    45    1
    69   100   101   ar
    70    25    27   ar
    71   148   147    1
    72    58    54   am
    73    58    59    1
    74    54    55    2
    75    45    44    1
    76    45    48    1
    77    93    96    1
    78    93    94    1
    79    50    49   ar
    80    66    67    2
    81    66    65    1
    82    26    28   ar
    83    95    94    2
    84    97    96    1
    85    97    99   ar
    86   147   142   am
    87    27    28   ar
    88    29    30    1
    89    60    59    1
    90    60    64   am
    91   101    99   ar
    92   101   103   ar
    93    94   106   am
    94    59    62    1
    95   144   145    1
    96   144   141    1
    97    65    64    1
    98    65    68    1
    99    49    48    1
   100    49    51   ar
   101    99   102   ar
   102    32    31    2
   103   103   105   ar
   104   142   141    1
   105   142   143    2
   106    30    31    1
   107    30    33    1
   108    62    63    1
   109   145   146    1
   110   141   140    1
   111   106   107    1
   112    69    68    1
   113    69    70    1
   114   102   104   ar
   115   105   104   ar
   116    33    34    1
   117    14    13    2
   118   107   108    1
   119    63   130    1
   120    34    35    1
   121   146   140    1
   122   140   133   am
   123    70    71    2
   124    70    72   am
   125    13    12    1
   126   130   129    1
   127   129   126    1
   128   134   133    2
   129   108   109    2
   130   108   110   am
   131   133   132    1
   132   126   127    1
   133   126   125    1
   134    37    36    1
   135    35    36    1
   136    12    15    1
   137    12    11    1
   138   127   128    2
   139   110   111    1
   140   124   123    2
   141    15    16    1
   142   125   123   am
   143   132   131    1
   144   132   135    1
   145   123   122    1
   146    16    17    1
   147    16    18    1
   148   135   136    1
   149   111   112    1
   150   111   114    1
   151    38    39    1
   152   112   121   am
   153   112   113    2
   154   121   122    1
   155    39    42    1
   156    39    40    1
   157    43    42    1
   158   114   115    1
   159   136   137    1
   160   137   138    1
   161    40    41    2
   162   115   116    1
   163   119   118    1
   164   116   117    1
   165   138   139    1
   166   118   117    2
   167   118   120    1
