@<TRIPOS>MOLECULE
tmp/5zaiC00.pdb
 158 151 0 0 0
SMALL
GASTEIGER

@<TRIPOS>ATOM
      1  N         60.3710   10.5140   18.0930 N.3    23  ASP23      -0.1225
      2  CA        61.1700   11.2450   19.1130 C.3    23  ASP23       0.1805
      3  C         60.3430   12.3660   19.7660 C.2    23  ASP23       0.2598
      4  O         60.6450   12.7060   20.9150 O.2    23  ASP23      -0.2718
      5  CB        62.4880   11.7380   18.5220 C.3    23  ASP23       0.1424
      6  CG        62.2890   12.4950   17.2260 C.2    23  ASP23       0.3668
      7  OD1       61.6400   11.9390   16.3100 O.co2  23  ASP23      -0.2456
      8  OD2       62.7720   13.6350   17.1500 O.co2  23  ASP23      -0.2456
      9  N         59.4270   12.9920   19.0190 N.am   24  LYS24      -0.1966
     10  CA        58.5260   14.0620   19.5240 C.3    24  LYS24       0.1728
     11  C         57.1050   13.5080   19.7170 C.2    24  LYS24       0.2616
     12  O         56.1720   14.3010   19.7090 O.2    24  LYS24      -0.2715
     13  CB        58.5710   15.2510   18.5670 C.3    24  LYS24       0.0311
     14  CG        59.9140   15.9730   18.5260 C.3    24  LYS24       0.0038
     15  CD        60.3510   16.4680   19.8850 C.3    24  LYS24       0.0206
     16  CE        61.2620   17.6760   19.8420 C.3    24  LYS24       0.1093
     17  NZ        62.3070   17.5350   18.8060 N.3    24  LYS24      -0.1314
     18  N         56.9660   12.1850   19.8100 N.am   25  LEU25      -0.1977
     19  CA        55.6660   11.4890   20.0140 C.3    25  LEU25       0.1596
     20  C         54.6740   11.8460   18.8990 C.2    25  LEU25       0.2287
     21  O         53.5140   12.0950   19.2040 O.2    25  LEU25      -0.2864
     22  CB        55.1110   11.7960   21.4100 C.3    25  LEU25       0.0297
     23  CG        55.9550   11.2650   22.5640 C.3    25  LEU25       0.0022
     24  CD1       55.2780   11.4950   23.8980 C.3    25  LEU25       0.0001
     25  CD2       56.2430    9.7930   22.3670 C.3    25  LEU25       0.0001
     26  N         54.2480   14.5970   17.2630 N.3    27  ALA27      -0.1245
     27  CA        53.6050   15.9180   17.4360 C.3    27  ALA27       0.1562
     28  C         53.4070   16.5620   16.0620 C.2    27  ALA27       0.2260
     29  O         54.3010   16.4560   15.2220 O.2    27  ALA27      -0.2867
     30  CB        54.4340   16.7820   18.3480 C.3    27  ALA27       0.0290
     31  N         55.4830    4.7770   20.6110 N.3    59  LYS59      -0.1245
     32  CA        54.6870    4.8170   21.8610 C.3    59  LYS59       0.1561
     33  C         53.3610    5.5700   21.6790 C.2    59  LYS59       0.2260
     34  O         52.4160    5.2680   22.4130 O.2    59  LYS59      -0.2867
     35  CB        55.5570    5.4690   22.9390 C.3    59  LYS59       0.0271
     36  CG        55.0350    5.4610   24.3670 C.3    59  LYS59       0.0035
     37  CD        56.0750    5.9860   25.3410 C.3    59  LYS59       0.0206
     38  CE        55.8510    5.5650   26.7790 C.3    59  LYS59       0.1093
     39  NZ        57.1240    5.5170   27.5380 N.3    59  LYS59      -0.1314
     40  N         50.8810   13.0040   20.0870 N.3    63  ALA63      -0.1231
     41  CA        50.8930   13.6620   21.4130 C.3    63  ALA63       0.1694
     42  C         50.5070   15.1410   21.3240 C.2    63  ALA63       0.2593
     43  O         50.6010   15.8150   22.3440 O.2    63  ALA63      -0.2718
     44  CB        52.2210   13.4640   22.0930 C.3    63  ALA63       0.0304
     45  N         50.1710   15.6460   20.1420 N.am   64  GLY64      -0.1942
     46  CA        49.6870   17.0350   20.0800 C.3    64  GLY64       0.2014
     47  C         50.2590   17.8470   18.9380 C.2    64  GLY64       0.2639
     48  O         50.9350   17.2750   18.0830 O.2    64  GLY64      -0.2714
     49  N         49.8790   19.1270   18.9040 N.am   65  ALA65      -0.1963
     50  CA        50.4030   20.1200   17.9450 C.3    65  ALA65       0.1728
     51  C         51.7340   20.6080   18.5160 C.2    65  ALA65       0.2616
     52  O         51.8560   20.6910   19.7360 O.2    65  ALA65      -0.2715
     53  CB        49.4210   21.2490   17.7610 C.3    65  ALA65       0.0334
     54  N         52.6890   20.8960   17.6460 N.am   66  ASP66      -0.1957
     55  CA        54.0230   21.3420   18.0120 C.3    66  ASP66       0.1840
     56  C         53.9100   22.7350   18.6380 C.2    66  ASP66       0.2622
     57  O         53.5640   23.7020   17.9570 O.2    66  ASP66      -0.2715
     58  CB        54.9660   21.3280   16.8020 C.3    66  ASP66       0.1450
     59  CG        56.4420   21.2770   17.1600 C.2    66  ASP66       0.3671
     60  OD1       56.7860   21.7120   18.2840 O.co2  66  ASP66      -0.2456
     61  OD2       57.2360   20.8010   16.3070 O.co2  66  ASP66      -0.2456
     62  N         54.2170   22.8060   19.9390 N.am   67  ILE67      -0.1963
     63  CA        53.9970   23.9790   20.7730 C.3    67  ILE67       0.1727
     64  C         55.0490   25.0520   20.4720 C.2    67  ILE67       0.2616
     65  O         54.8220   26.2220   20.7450 O.2    67  ILE67      -0.2715
     66  CB        53.9660   23.5590   22.2590 C.3    67  ILE67       0.0290
     67  CG1       52.7240   22.7050   22.5530 C.3    67  ILE67       0.0022
     68  CG2       54.0570   24.7660   23.1810 C.3    67  ILE67       0.0023
     69  CD1       52.9150   21.6340   23.6140 C.3    67  ILE67       0.0001
     70  N         56.1840   24.6640   19.8830 N.am   68  THR68      -0.1951
     71  CA        57.2930   25.5970   19.6450 C.3    68  THR68       0.1897
     72  C         56.8540   26.6950   18.6720 C.2    68  THR68       0.2313
     73  O         57.3960   27.7960   18.6780 O.2    68  THR68      -0.2863
     74  CB        58.5340   24.8680   19.1220 C.3    68  THR68       0.1794
     75  OG1       58.1970   24.3310   17.8430 O.3    68  THR68      -0.2208
     76  CG2       59.0020   23.7700   20.0520 C.3    68  THR68       0.0378
     77  N         53.9560   28.2540   18.8190 N.3    70  PHE70      -0.1241
     78  CA        52.8830   29.0910   19.4310 C.3    70  PHE70       0.1605
     79  C         53.3950   30.4190   20.0120 C.2    70  PHE70       0.2264
     80  O         52.5960   31.2690   20.4010 O.2    70  PHE70      -0.2867
     81  CB        52.1580   28.3200   20.5430 C.3    70  PHE70       0.0534
     82  CG        51.3290   27.1370   20.0970 C.ar   70  PHE70      -0.0203
     83  CD1       51.1060   26.8650   18.7550 C.ar   70  PHE70      -0.0042
     84  CD2       50.7310   26.3100   21.0390 C.ar   70  PHE70      -0.0042
     85  CE1       50.3310   25.7830   18.3680 C.ar   70  PHE70      -0.0003
     86  CE2       49.9580   25.2260   20.6510 C.ar   70  PHE70      -0.0003
     87  CZ        49.7550   24.9650   19.3140 C.ar   70  PHE70      -0.0000
     88  N         49.2690    7.3350   22.9830 N.3   106  TYR106     -0.1241
     89  CA        48.9100    8.7310   23.2750 C.3   106  TYR106      0.1605
     90  C         48.1890    9.3690   22.0810 C.2   106  TYR106      0.2264
     91  O         48.7450    9.4760   20.9900 O.2   106  TYR106     -0.2867
     92  CB        50.1450    9.5760   23.6160 C.3   106  TYR106      0.0534
     93  CG        50.8510    9.2320   24.9090 C.ar  106  TYR106     -0.0201
     94  CD1       50.2550    9.4690   26.1380 C.ar  106  TYR106     -0.0009
     95  CD2       52.1260    8.6890   24.9000 C.ar  106  TYR106     -0.0009
     96  CE1       50.8970    9.1470   27.3250 C.ar  106  TYR106      0.0417
     97  CE2       52.7880    8.3700   26.0730 C.ar  106  TYR106      0.0417
     98  CZ        52.1720    8.6030   27.2910 C.ar  106  TYR106      0.1957
     99  OH        52.8260    8.2980   28.4530 O.3   106  TYR106     -0.2866
    100  N         46.6010   13.0140   22.1020 N.3   108  LEU108     -0.1231
    101  CA        46.4320   14.1680   22.9600 C.3   108  LEU108      0.1693
    102  C         46.3200   15.4250   22.0990 C.2   108  LEU108      0.2593
    103  O         47.0590   15.6120   21.1620 O.2   108  LEU108     -0.2718
    104  CB        47.6100   14.3220   23.9210 C.3   108  LEU108      0.0284
    105  CG        47.9620   13.1120   24.7720 C.3   108  LEU108      0.0019
    106  CD1       49.1450   13.4510   25.6650 C.3   108  LEU108      0.0001
    107  CD2       46.7800   12.6370   25.6080 C.3   108  LEU108      0.0001
    108  N         45.3730   16.2840   22.4510 N.am  109  GLY109     -0.1942
    109  CA        45.1690   17.5430   21.7490 C.3   109  GLY109      0.2014
    110  C         44.9550   17.3620   20.2580 C.2   109  GLY109      0.2639
    111  O         44.0660   16.6500   19.8080 O.2   109  GLY109     -0.2714
    112  N         45.7920   18.0390   19.4750 N.am  110  GLY110     -0.1954
    113  CA        45.8590   17.8660   18.0480 C.3   110  GLY110      0.1869
    114  C         45.7280   16.4200   17.6110 C.2   110  GLY110      0.2309
    115  O         45.0540   16.1470   16.6030 O.2   110  GLY110     -0.2863
    116  N         44.5990   18.3440   26.4730 N.3   132  PRO132     -0.2102
    117  CA        45.3270   19.0430   27.5270 C.3   132  PRO132      0.1504
    118  C         45.6910   20.4960   27.1800 C.2   132  PRO132      0.2575
    119  O         46.4380   21.0920   27.8790 O.2   132  PRO132     -0.2718
    120  CB        46.5850   18.1790   27.6630 C.3   132  PRO132      0.0282
    121  CG        46.8450   17.6960   26.2660 C.3   132  PRO132      0.0208
    122  CD        45.4830   17.5680   25.6190 C.3   132  PRO132      0.0893
    123  N         45.0460   21.0620   26.1590 N.am  133  GLU133     -0.1980
    124  CA        45.3080   22.4450   25.6710 C.3   133  GLU133      0.1602
    125  C         45.1010   23.4720   26.7930 C.2   133  GLU133      0.2287
    126  O         45.8880   24.3800   26.9020 O.2   133  GLU133     -0.2864
    127  CB        44.3970   22.7470   24.4850 C.3   133  GLU133      0.0415
    128  CG        44.8700   22.1450   23.1740 C.3   133  GLU133      0.1163
    129  CD        44.3040   20.7750   22.8520 C.2   133  GLU133      0.3649
    130  OE1       43.8770   20.1100   23.7700 O.co2 133  GLU133     -0.2457
    131  OE2       44.2840   20.4020   21.6690 O.co2 133  GLU133     -0.2457
    132  N         45.9760   23.2780   29.8590 N.3   135  ASN135     -0.1225
    133  CA        47.2530   23.2900   30.6240 C.3   135  ASN135      0.1785
    134  C         48.2380   24.3370   30.0720 C.2   135  ASN135      0.2597
    135  O         49.1400   24.7120   30.8240 O.2   135  ASN135     -0.2718
    136  CB        47.8840   21.8990   30.6700 C.3   135  ASN135      0.1169
    137  CG        46.9840   20.8880   31.3430 C.2   135  ASN135      0.2627
    138  OD1       46.0630   21.2620   32.0450 O.2   135  ASN135     -0.2716
    139  ND2       47.2420   19.6150   31.1290 N.am  135  ASN135     -0.0877
    140  N         48.1590   24.6750   28.7810 N.am  136  LEU136     -0.1980
    141  CA        49.0160   25.7000   28.1310 C.3   136  LEU136      0.1596
    142  C         48.3500   27.0770   28.1960 C.2   136  LEU136      0.2287
    143  O         48.9050   28.0100   27.6300 O.2   136  LEU136     -0.2864
    144  CB        49.2330   25.3070   26.6720 C.3   136  LEU136      0.0297
    145  CG        50.1890   24.1510   26.4460 C.3   136  LEU136      0.0022
    146  CD1       50.2580   23.8010   24.9740 C.3   136  LEU136      0.0001
    147  CD2       51.5660   24.5110   26.9710 C.3   136  LEU136      0.0001
    148  N         43.5710   13.1970   31.0090 N.3   166  ARG166     -0.1245
    149  CA        43.5760   12.1310   30.0100 C.3   166  ARG166      0.1563
    150  C         42.7430   10.9510   30.5310 C.2   166  ARG166      0.2260
    151  O         42.5570   10.7990   31.7340 O.2   166  ARG166     -0.2867
    152  CB        45.0210   11.7610   29.6620 C.3   166  ARG166      0.0307
    153  CG        45.8180   11.2290   30.8350 C.3   166  ARG166      0.0489
    154  CD        47.1820   10.7440   30.4050 C.3   166  ARG166      0.2205
    155  NE        48.0110   11.8420   29.9680 N.pl3 166  ARG166     -0.0865
    156  CZ        49.3260   11.7590   29.8530 C.cat 166  ARG166      0.5346
    157  NH1       49.9310   10.6080   30.0950 N.pl3 166  ARG166      0.1354
    158  NH2       50.0290   12.8180   29.5030 N.pl3 166  ARG166      0.1354
@<TRIPOS>BOND
     1    29    28    2
     2    28    27    1
     3    61    59   ar
     4     7     6   ar
     5   115   114    2
     6    58    59    1
     7    58    55    1
     8     8     6   ar
     9    59    60   ar
    10     6     5    1
    11    26    27    1
    12    27    30    1
    13   114   113    1
    14    54    55    1
    15    54    51   am
    16    53    50    1
    17    75    74    1
    18    50    51    1
    19    50    49    1
    20    57    56    2
    21    55    56    1
    22   113   112    1
    23    48    47    2
    24     1     2    1
    25    85    83   ar
    26    85    87   ar
    27    51    52    2
    28     5     2    1
    29    14    13    1
    30    14    15    1
    31    13    10    1
    32    56    62   am
    33    72    73    2
    34    72    71    1
    35    83    82   ar
    36    17    16    1
    37    77    78    1
    38    20    21    2
    39    20    19    1
    40    49    47   am
    41    47    46    1
    42     9    10    1
    43     9     3   am
    44     2     3    1
    45    74    71    1
    46    74    76    1
    47    87    86   ar
    48    78    79    1
    49    78    81    1
    50   112   110   am
    51    10    11    1
    52    71    70    1
    53    12    11    2
    54    11    18   am
    55     3     4    2
    56   111   110    2
    57    18    19    1
    58    16    15    1
    59    70    64   am
    60    62    63    1
    61    79    80    2
    62    19    22    1
    63    46    45    1
    64    40    41    1
    65    82    81    1
    66    82    84   ar
    67    45    42   am
    68   110   109    1
    69    64    65    2
    70    64    63    1
    71    31    32    1
    72    86    84   ar
    73    63    66    1
    74    91    90    2
    75   103   102    2
    76    42    41    1
    77    42    43    2
    78    22    23    1
    79    41    44    1
    80   131   129   ar
    81    33    32    1
    82    33    34    2
    83   109   108    1
    84    32    35    1
    85    90    89    1
    86   102   108   am
    87   102   101    1
    88   100   101    1
    89    66    67    1
    90    66    68    1
    91    25    23    1
    92    67    69    1
    93    23    24    1
    94   129   128    1
    95   129   130   ar
    96    35    36    1
    97   101   104    1
    98    88    89    1
    99   128   127    1
   100    89    92    1
   101    92    93    1
   102   104   105    1
   103    36    37    1
   104   127   124    1
   105   105   107    1
   106   105   106    1
   107    95    93   ar
   108    95    97   ar
   109    93    94   ar
   110   146   145    1
   111    37    38    1
   112   122   121    1
   113   122   116    1
   114   124   123    1
   115   124   125    1
   116    97    98   ar
   117    94    96   ar
   118   123   118   am
   119   121   120    1
   120   145   144    1
   121   145   147    1
   122   116   117    1
   123   144   141    1
   124    38    39    1
   125   125   126    2
   126   118   117    1
   127   118   119    2
   128    98    96   ar
   129    98    99    1
   130   117   120    1
   131   143   142    2
   132   141   142    1
   133   141   140    1
   134   140   134   am
   135   158   156    1
   136   152   149    1
   137   152   153    1
   138   156   155    2
   139   156   157    1
   140   132   133    1
   141   155   154    1
   142   149   150    1
   143   149   148    1
   144   134   133    1
   145   134   135    2
   146   154   153    1
   147   150   151    2
   148   133   136    1
   149   136   137    1
   150   139   137   am
   151   137   138    2
