@<TRIPOS>MOLECULE
tmp/5zanA00.pdb
 180 169 0 0 0
SMALL
GASTEIGER

@<TRIPOS>ATOM
      1  N          7.3970   29.4850   -3.6640 N.3    11  ARG11      -0.1245
      2  CA         6.7820   29.4400   -2.3460 C.3    11  ARG11       0.1563
      3  C          5.3640   28.8690   -2.4100 C.2    11  ARG11       0.2260
      4  O          4.7120   28.9520   -3.4570 O.2    11  ARG11      -0.2867
      5  CB         6.7540   30.8390   -1.7230 C.3    11  ARG11       0.0307
      6  CG         5.7260   31.7860   -2.3210 C.3    11  ARG11       0.0489
      7  CD         5.7460   33.1380   -1.6330 C.3    11  ARG11       0.2205
      8  NE         4.4860   33.8490   -1.8570 N.pl3  11  ARG11      -0.0865
      9  CZ         3.3890   33.7220   -1.1080 C.cat  11  ARG11       0.5346
     10  NH1        3.3710   32.9100   -0.0480 N.pl3  11  ARG11       0.1354
     11  NH2        2.2940   34.4170   -1.4150 N.pl3  11  ARG11       0.1354
     12  N          1.5570   29.1870   -2.0180 N.3    13  LEU13      -0.1231
     13  CA         0.6150   30.3090   -2.0620 C.3    13  LEU13       0.1693
     14  C         -0.5460   30.0970   -1.1000 C.2    13  LEU13       0.2593
     15  O         -1.0320   31.0460   -0.4810 O.2    13  LEU13      -0.2718
     16  CB         0.0860   30.5040   -3.4840 C.3    13  LEU13       0.0284
     17  CG         1.1260   30.9410   -4.5220 C.3    13  LEU13       0.0019
     18  CD1        0.6210   30.7020   -5.9360 C.3    13  LEU13       0.0001
     19  CD2        1.5020   32.4030   -4.3280 C.3    13  LEU13       0.0001
     20  N         -0.9790   28.8480   -0.9770 N.am   14  GLY14      -0.1942
     21  CA        -2.0770   28.5000   -0.0950 C.3    14  GLY14       0.2014
     22  C         -2.3410   27.0120   -0.1220 C.2    14  GLY14       0.2639
     23  O         -2.0120   26.3250   -1.0930 O.2    14  GLY14      -0.2714
     24  N         -2.9370   26.5270    0.9600 N.am   15  LYS15      -0.1963
     25  CA        -3.2570   25.1190    1.1260 C.3    15  LYS15       0.1728
     26  C         -4.7240   24.9950    1.4970 C.2    15  LYS15       0.2616
     27  O         -5.1520   25.5230    2.5250 O.2    15  LYS15      -0.2715
     28  CB        -2.3960   24.5120    2.2320 C.3    15  LYS15       0.0311
     29  CG        -2.5110   25.1900    3.5780 C.3    15  LYS15       0.0038
     30  CD        -1.6760   24.5430    4.6650 C.3    15  LYS15       0.0206
     31  CE        -2.2040   25.0940    5.9730 C.3    15  LYS15       0.1093
     32  NZ        -1.3050   24.9290    7.0860 N.3    15  LYS15      -0.1314
     33  N         -5.4890   24.3220    0.6430 N.am   16  GLY16      -0.1955
     34  CA        -6.8400   23.8830    0.9790 C.3    16  GLY16       0.1869
     35  C         -6.8330   22.3800    1.1470 C.2    16  GLY16       0.2309
     36  O         -5.7880   21.7360    1.0040 O.2    16  GLY16      -0.2863
     37  N         -5.4090   19.5570   -2.0330 N.3    19  GLY19      -0.1225
     38  CA        -3.9870   19.8100   -2.2230 C.3    19  GLY19       0.1811
     39  C         -3.5990   21.2560   -2.0230 C.2    19  GLY19       0.2280
     40  O         -4.4400   22.1040   -1.7090 O.2    19  GLY19      -0.2866
     41  N         -1.3380   24.7820   -3.4820 N.3    21  VAL21      -0.1245
     42  CA        -1.0030   25.5050   -4.7040 C.3    21  VAL21       0.1561
     43  C          0.2310   26.3550   -4.4260 C.2    21  VAL21       0.2260
     44  O          0.2960   27.0650   -3.4190 O.2    21  VAL21      -0.2867
     45  CB        -2.1820   26.3450   -5.2460 C.3    21  VAL21       0.0252
     46  CG1       -2.8020   27.1900   -4.1540 C.3    21  VAL21       0.0019
     47  CG2       -1.7500   27.2260   -6.4130 C.3    21  VAL21       0.0019
     48  N          0.8340   29.5620  -11.5770 N.3    34  ALA34      -0.1245
     49  CA         0.3800   28.8440  -10.3880 C.3    34  ALA34       0.1562
     50  C          0.2890   27.3560  -10.6930 C.2    34  ALA34       0.2260
     51  O         -0.0460   26.9580  -11.8130 O.2    34  ALA34      -0.2867
     52  CB        -0.9640   29.3680   -9.9140 C.3    34  ALA34       0.0290
     53  N         -1.5620   24.3340   -8.8890 N.3    36  LYS36      -0.1245
     54  CA        -2.4460   23.6650   -7.9370 C.3    36  LYS36       0.1561
     55  C         -2.3210   22.1600   -8.1300 C.2    36  LYS36       0.2260
     56  O         -2.6950   21.6400   -9.1860 O.2    36  LYS36      -0.2867
     57  CB        -3.8960   24.0940   -8.1590 C.3    36  LYS36       0.0271
     58  CG        -4.8800   23.6950   -7.0860 C.3    36  LYS36       0.0035
     59  CD        -6.1950   24.4570   -7.2950 C.3    36  LYS36       0.0206
     60  CE        -7.1890   24.0490   -6.2240 C.3    36  LYS36       0.1093
     61  NZ        -6.7540   24.5130   -4.8870 N.3    36  LYS36      -0.1314
     62  N         -9.7190   33.3020  -14.4830 N.3    68  LEU68      -0.1245
     63  CA        -8.3920   32.7090  -14.3890 C.3    68  LEU68       0.1561
     64  C         -8.2520   31.6790  -15.4980 C.2    68  LEU68       0.2260
     65  O         -9.1670   30.8960  -15.7290 O.2    68  LEU68      -0.2867
     66  CB        -8.1930   32.0410  -13.0230 C.3    68  LEU68       0.0270
     67  CG        -6.7650   32.0430  -12.4840 C.3    68  LEU68       0.0019
     68  CD1       -6.3730   33.4460  -12.0420 C.3    68  LEU68       0.0001
     69  CD2       -6.6230   31.0590  -11.3330 C.3    68  LEU68       0.0001
     70  N         -2.0050   26.7000  -13.6500 N.3    84  LEU84      -0.1231
     71  CA        -2.9700   27.7930  -13.7390 C.3    84  LEU84       0.1693
     72  C         -2.2940   29.1210  -13.9620 C.2    84  LEU84       0.2592
     73  O         -1.1100   29.2940  -13.6420 O.2    84  LEU84      -0.2718
     74  CB        -3.7810   27.8720  -12.4480 C.3    84  LEU84       0.0284
     75  CG        -4.8460   26.7810  -12.3470 C.3    84  LEU84       0.0019
     76  CD1       -5.0760   26.3800  -10.9000 C.3    84  LEU84       0.0001
     77  CD2       -6.1350   27.2520  -12.9990 C.3    84  LEU84       0.0001
     78  N         -3.0580   30.0660  -14.5010 N.am   85  GLU85      -0.1966
     79  CA        -2.6490   31.4560  -14.4750 C.3    85  GLU85       0.1733
     80  C         -2.3210   31.8500  -13.0390 C.2    85  GLU85       0.2616
     81  O         -2.9610   31.3770  -12.0870 O.2    85  GLU85      -0.2715
     82  CB        -3.7370   32.3700  -15.0270 C.3    85  GLU85       0.0429
     83  CG        -3.4410   33.8390  -14.7610 C.3    85  GLU85       0.1163
     84  CD        -4.3510   34.7970  -15.4870 C.2    85  GLU85       0.3649
     85  OE1       -5.3680   34.3640  -16.0770 O.co2  85  GLU85      -0.2457
     86  OE2       -4.0410   36.0110  -15.4590 O.co2  85  GLU85      -0.2457
     87  N         -1.3210   32.7120  -12.8980 N.am   86  TYR86      -0.1960
     88  CA        -0.9180   33.2230  -11.5970 C.3    86  TYR86       0.1771
     89  C         -1.3940   34.6660  -11.4780 C.2    86  TYR86       0.2619
     90  O         -1.0760   35.5000  -12.3310 O.2    86  TYR86      -0.2715
     91  CB         0.5930   33.1080  -11.4150 C.3    86  TYR86       0.0574
     92  CG         1.1570   34.0070  -10.3440 C.ar   86  TYR86      -0.0198
     93  CD1        1.8730   35.1530  -10.6840 C.ar   86  TYR86      -0.0009
     94  CD2        0.9650   33.7260   -8.9910 C.ar   86  TYR86      -0.0009
     95  CE1        2.3910   35.9910   -9.7100 C.ar   86  TYR86       0.0417
     96  CE2        1.4780   34.5600   -8.0070 C.ar   86  TYR86       0.0417
     97  CZ         2.1950   35.6880   -8.3720 C.ar   86  TYR86       0.1957
     98  OH         2.7070   36.5200   -7.4020 O.3    86  TYR86      -0.2866
     99  N         -2.1550   34.9410  -10.4200 N.am   87  ALA87      -0.1964
    100  CA        -2.7450   36.2530  -10.1780 C.3    87  ALA87       0.1713
    101  C         -1.9910   36.9030   -9.0200 C.2    87  ALA87       0.2458
    102  O         -2.1370   36.4690   -7.8800 O.2    87  ALA87      -0.2730
    103  CB        -4.2220   36.1190   -9.8530 C.3    87  ALA87       0.0333
    104  N         -1.1900   37.9480   -9.3080 N.am   88  PRO88      -0.2716
    105  CA        -0.1830   38.4250   -8.3530 C.3    88  PRO88       0.1536
    106  C         -0.6320   39.2300   -7.1300 C.2    88  PRO88       0.2598
    107  O          0.2160   39.5090   -6.2790 O.2    88  PRO88      -0.2715
    108  CB         0.7490   39.2810   -9.2270 C.3    88  PRO88       0.0310
    109  CG        -0.0820   39.7030  -10.3810 C.3    88  PRO88       0.0237
    110  CD        -1.0220   38.5700  -10.6340 C.3    88  PRO88       0.0939
    111  N         -1.9000   39.6260   -7.0340 N.am   89  LEU89      -0.1964
    112  CA        -2.3580   40.3520   -5.8360 C.3    89  LEU89       0.1728
    113  C         -3.2470   39.5430   -4.8880 C.2    89  LEU89       0.2617
    114  O         -3.9330   40.1160   -4.0370 O.2    89  LEU89      -0.2715
    115  CB        -3.0190   41.6810   -6.2160 C.3    89  LEU89       0.0311
    116  CG        -2.0390   42.7150   -6.7910 C.3    89  LEU89       0.0022
    117  CD1       -2.2740   42.8930   -8.2720 C.3    89  LEU89       0.0001
    118  CD2       -2.1680   44.0620   -6.1010 C.3    89  LEU89       0.0001
    119  N         -3.2210   38.2190   -5.0130 N.am   90  GLY90      -0.1940
    120  CA        -3.8910   37.3570   -4.0440 C.3    90  GLY90       0.2014
    121  C         -5.3930   37.3670   -4.1730 C.2    90  GLY90       0.2639
    122  O         -5.9270   37.7230   -5.2200 O.2    90  GLY90      -0.2714
    123  N         -6.0590   36.9640   -3.0960 N.am   91  THR91      -0.1950
    124  CA        -7.4940   36.7220   -3.1150 C.3    91  THR91       0.1897
    125  C         -8.2610   37.9340   -2.6130 C.2    91  THR91       0.2313
    126  O         -7.7880   38.6690   -1.7390 O.2    91  THR91      -0.2863
    127  CB        -7.8870   35.5100   -2.2450 C.3    91  THR91       0.1794
    128  OG1       -7.8260   35.8600   -0.8580 O.3    91  THR91      -0.2208
    129  CG2       -6.9810   34.3140   -2.5150 C.3    91  THR91       0.0378
    130  N         -8.8140   37.8180    1.1890 N.3    94  ARG94      -0.1231
    131  CA        -7.8000   38.3200    2.1340 C.3    94  ARG94       0.1694
    132  C         -7.7440   39.8390    2.2220 C.2    94  ARG94       0.2591
    133  O         -7.4690   40.3790    3.3110 O.2    94  ARG94      -0.2718
    134  CB        -6.4020   37.7610    1.8460 C.3    94  ARG94       0.0321
    135  CG        -6.3500   36.2380    1.7860 C.3    94  ARG94       0.0489
    136  CD        -5.3060   35.5980    2.6830 C.3    94  ARG94       0.2205
    137  NE        -5.6680   34.2000    2.9580 N.pl3  94  ARG94      -0.0865
    138  CZ        -5.8320   33.6490    4.1640 C.cat  94  ARG94       0.5346
    139  NH1       -5.6380   34.3500    5.2830 N.pl3  94  ARG94       0.1354
    140  NH2       -6.1780   32.3650    4.2540 N.pl3  94  ARG94       0.1354
    141  N         -7.9830   40.5360    1.1100 N.am   95  GLU95      -0.1979
    142  CA        -8.0250   42.0040    1.1620 C.3    95  GLU95       0.1602
    143  C         -9.2800   42.4840    1.8810 C.2    95  GLU95       0.2287
    144  O         -9.2950   43.5780    2.4390 O.2    95  GLU95      -0.2864
    145  CB        -7.8900   42.6370   -0.2240 C.3    95  GLU95       0.0415
    146  CG        -6.6810   42.1480   -1.0220 C.3    95  GLU95       0.1163
    147  CD        -5.3270   42.5070   -0.4130 C.2    95  GLU95       0.3649
    148  OE1       -5.1530   42.4710    0.8280 O.co2  95  GLU95      -0.2457
    149  OE2       -4.4020   42.8120   -1.2010 O.co2  95  GLU95      -0.2457
    150  N         -8.3380   42.1210    5.5830 N.3    98  LYS98      -0.1245
    151  CA        -7.4420   43.1830    6.0500 C.3    98  LYS98       0.1561
    152  C         -8.1050   44.5650    6.0560 C.2    98  LYS98       0.2260
    153  O         -7.7590   45.3970    6.8980 O.2    98  LYS98      -0.2867
    154  CB        -6.1090   43.1740    5.2760 C.3    98  LYS98       0.0271
    155  CG        -5.9010   44.2480    4.2120 C.3    98  LYS98       0.0035
    156  CD        -4.5110   44.0950    3.6000 C.3    98  LYS98       0.0206
    157  CE        -4.2020   45.1120    2.5060 C.3    98  LYS98       0.1093
    158  NZ        -2.7410   45.1620    2.2020 N.3    98  LYS98      -0.1314
    159  N        -13.4470   33.6950   -1.5990 N.3   134  GLU134     -0.1245
    160  CA       -12.3040   32.7780   -1.5840 C.3   134  GLU134      0.1567
    161  C        -11.9350   32.2230   -2.9690 C.2   134  GLU134      0.2260
    162  O        -10.8610   31.6390   -3.1210 O.2   134  GLU134     -0.2867
    163  CB       -12.5650   31.6150   -0.6220 C.3   134  GLU134      0.0388
    164  CG       -12.9060   32.0340    0.8080 C.3   134  GLU134      0.1160
    165  CD       -14.0090   31.1920    1.4250 C.2   134  GLU134      0.3649
    166  OE1      -13.7590   30.5530    2.4690 O.co2 134  GLU134     -0.2457
    167  OE2      -15.1270   31.1690    0.8680 O.co2 134  GLU134     -0.2457
    168  N         -9.5470   35.9940   -7.2680 N.3   137  LEU137     -0.1245
    169  CA        -8.1730   36.4850   -7.2170 C.3   137  LEU137      0.1561
    170  C         -8.0600   37.7810   -7.9930 C.2   137  LEU137      0.2260
    171  O         -8.9490   38.1280   -8.7740 O.2   137  LEU137     -0.2867
    172  CB        -7.2130   35.4530   -7.8000 C.3   137  LEU137      0.0270
    173  CG        -7.0370   34.1910   -6.9510 C.3   137  LEU137      0.0019
    174  CD1       -6.6810   32.9930   -7.8090 C.3   137  LEU137      0.0001
    175  CD2       -5.9750   34.4100   -5.8900 C.3   137  LEU137      0.0001
    176  N        -11.4480   32.3570  -10.1350 N.3   147  ALA147     -0.1245
    177  CA       -10.7190   31.0960   -9.9960 C.3   147  ALA147      0.1562
    178  C        -11.6530   29.9710   -9.5880 C.2   147  ALA147      0.2260
    179  O        -12.8390   30.1940   -9.3270 O.2   147  ALA147     -0.2867
    180  CB        -9.6230   31.2400   -8.9550 C.3   147  ALA147      0.0290
@<TRIPOS>BOND
     1    85    84   ar
     2    65    64    2
     3    64    63    1
     4    84    86   ar
     5    84    83    1
     6    82    83    1
     7    82    79    1
     8    78    79    1
     9    78    72   am
    10    62    63    1
    11    79    80    1
    12    63    66    1
    13    72    71    1
    14    72    73    2
    15    71    70    1
    16    71    74    1
    17    80    87   am
    18    80    81    2
    19    66    67    1
    20    77    75    1
    21    87    88    1
    22    67    68    1
    23    67    69    1
    24    74    75    1
    25    75    76    1
    26    90    89    2
    27    51    50    2
    28    88    89    1
    29    88    91    1
    30    48    49    1
    31    89    99   am
    32    91    92    1
    33    50    49    1
    34    93    92   ar
    35    93    95   ar
    36   110   109    1
    37   110   104    1
    38    99   100    1
    39    49    52    1
    40   109   108    1
    41    92    94   ar
    42   100   103    1
    43   100   101    1
    44   176   177    1
    45   177   178    1
    46   177   180    1
    47    95    97   ar
    48   178   179    2
    49   104   101   am
    50   104   105    1
    51   108   105    1
    52    56    55    2
    53   101   102    2
    54    94    96   ar
    55    53    54    1
    56   171   170    2
    57    97    96   ar
    58    97    98    1
    59   105   106    1
    60   117   116    1
    61    57    54    1
    62    57    58    1
    63    55    54    1
    64   170   169    1
    65   174   173    1
    66   172   169    1
    67   172   173    1
    68    59    58    1
    69    59    60    1
    70   168   169    1
    71   106   111   am
    72   106   107    2
    73   111   112    1
    74   173   175    1
    75   116   115    1
    76   116   118    1
    77    47    45    1
    78    60    61    1
    79   115   112    1
    80    18    17    1
    81   112   113    1
    82    45    42    1
    83    45    46    1
    84   122   121    2
    85   119   113   am
    86   119   120    1
    87   113   114    2
    88    42    43    1
    89    42    41    1
    90    17    19    1
    91    17    16    1
    92    43    44    2
    93   121   120    1
    94   121   123   am
    95     1     2    1
    96    16    13    1
    97     4     3    2
    98   162   161    2
    99   124   123    1
   100   124   125    1
   101   124   127    1
   102   161   160    1
   103   125   126    2
   104   129   127    1
   105     3     2    1
   106     2     5    1
   107     6     5    1
   108     6     7    1
   109   127   128    1
   110    38    37    1
   111    38    39    1
   112    13    12    1
   113    13    14    1
   114    39    40    2
   115     8     7    1
   116     8     9    2
   117   159   160    1
   118   160   163    1
   119    11     9    1
   120   149   147   ar
   121     9    10    1
   122    14    20   am
   123    14    15    2
   124    23    22    2
   125   146   147    1
   126   146   145    1
   127    20    21    1
   128   163   164    1
   129   147   148   ar
   130   145   142    1
   131    22    21    1
   132    22    24   am
   133    33    34    1
   134    33    26   am
   135   164   165    1
   136   167   165   ar
   137    24    25    1
   138    34    35    1
   139    36    35    2
   140   141   142    1
   141   141   132   am
   142    25    26    1
   143    25    28    1
   144   142   143    1
   145   130   131    1
   146   165   166   ar
   147    26    27    2
   148   135   134    1
   149   135   136    1
   150   134   131    1
   151   143   144    2
   152   131   132    1
   153   158   157    1
   154   132   133    2
   155    28    29    1
   156   157   156    1
   157   136   137    1
   158   137   138    2
   159    29    30    1
   160   156   155    1
   161   138   140    1
   162   138   139    1
   163   155   154    1
   164    30    31    1
   165   154   151    1
   166   150   151    1
   167    31    32    1
   168   151   152    1
   169   152   153    2
