@<TRIPOS>MOLECULE
tmp/5zaxA01.pdb
 171 162 0 0 0
SMALL
GASTEIGER

@<TRIPOS>ATOM
      1  N         16.6930   48.4500    3.5670 N.3    11  ASP11      -0.1239
      2  CA        16.5300   49.1940    2.3080 C.3    11  ASP11       0.1674
      3  C         16.2030   48.1820    1.2130 C.2    11  ASP11       0.2266
      4  O         16.8520   47.1310    1.1210 O.2    11  ASP11      -0.2867
      5  CB        17.8080   49.9620    1.9170 C.3    11  ASP11       0.1410
      6  CG        18.4380   50.7120    3.0850 C.2    11  ASP11       0.3668
      7  OD1       18.8150   50.0490    4.0820 O.co2  11  ASP11      -0.2456
      8  OD2       18.5570   51.9500    3.0100 O.co2  11  ASP11      -0.2456
      9  N          9.0050   47.9480    2.1990 N.3    15  LYS15      -0.1231
     10  CA         8.3130   48.7330    3.2430 C.3    15  LYS15       0.1693
     11  C          7.3720   49.7730    2.6510 C.2    15  LYS15       0.2592
     12  O          6.1760   49.7760    2.9630 O.2    15  LYS15      -0.2718
     13  CB         9.3040   49.4970    4.1210 C.3    15  LYS15       0.0285
     14  CG        10.2140   48.6790    5.0110 C.3    15  LYS15       0.0035
     15  CD        11.0810   49.5920    5.8650 C.3    15  LYS15       0.0206
     16  CE        11.9560   50.5520    5.0610 C.3    15  LYS15       0.1093
     17  NZ        13.0010   49.8520    4.2560 N.3    15  LYS15      -0.1314
     18  N          7.9300   50.6410    1.8010 N.am   16  THR16      -0.1953
     19  CA         7.1900   51.7390    1.1640 C.3    16  THR16       0.1897
     20  C          6.0480   51.1960    0.3150 C.2    16  THR16       0.2313
     21  O          4.9250   51.6600    0.4390 O.2    16  THR16      -0.2863
     22  CB         8.1270   52.6380    0.3150 C.3    16  THR16       0.1794
     23  OG1        9.1070   53.2510    1.1670 O.3    16  THR16      -0.2208
     24  CG2        7.3590   53.7340   -0.4110 C.3    16  THR16       0.0378
     25  N          6.2960   58.8530    7.5490 N.3    37  ARG37      -0.1231
     26  CA         7.5790   58.1960    7.3060 C.3    37  ARG37       0.1694
     27  C          8.7150   58.7820    8.1180 C.2    37  ARG37       0.2592
     28  O          8.6180   59.9130    8.6150 O.2    37  ARG37      -0.2718
     29  CB         7.9370   58.3250    5.8260 C.3    37  ARG37       0.0321
     30  CG         7.9030   59.7650    5.3250 C.3    37  ARG37       0.0489
     31  CD         8.6960   59.9480    4.0490 C.3    37  ARG37       0.2205
     32  NE        10.0700   59.5020    4.2370 N.pl3  37  ARG37      -0.0865
     33  CZ        10.9570   59.3110    3.2650 C.cat  37  ARG37       0.5346
     34  NH1       10.6570   59.5430    1.9860 N.pl3  37  ARG37       0.1354
     35  NH2       12.1700   58.8840    3.5850 N.pl3  37  ARG37       0.1354
     36  N          9.8100   58.0250    8.2070 N.am   38  GLU38      -0.1966
     37  CA        11.0360   58.5240    8.8200 C.3    38  GLU38       0.1718
     38  C         12.2910   58.0640    8.0620 C.2    38  GLU38       0.2458
     39  O         12.3540   56.9200    7.6260 O.2    38  GLU38      -0.2730
     40  CB        11.0960   58.0840   10.2810 C.3    38  GLU38       0.0428
     41  CG        10.0970   58.8000   11.1810 C.3    38  GLU38       0.1163
     42  CD        10.2390   58.4230   12.6430 C.2    38  GLU38       0.3649
     43  OE1       11.1470   57.6340   12.9790 O.co2  38  GLU38      -0.2457
     44  OE2        9.4410   58.9150   13.4610 O.co2  38  GLU38      -0.2457
     45  N         13.3000   58.9230    7.9030 N.am   39  PRO39      -0.2727
     46  CA        13.3420   60.2800    8.4330 C.3    39  PRO39       0.1402
     47  C         12.6620   61.3090    7.5180 C.2    39  PRO39       0.2269
     48  O         12.6660   61.1460    6.2890 O.2    39  PRO39      -0.2865
     49  CB        14.8400   60.5500    8.5100 C.3    39  PRO39       0.0296
     50  CG        15.3890   59.8190    7.3310 C.3    39  PRO39       0.0237
     51  CD        14.5430   58.5840    7.1840 C.3    39  PRO39       0.0939
     52  N         16.9410   65.0290    6.3510 N.3    47  ARG47      -0.1245
     53  CA        17.5280   64.2130    5.2760 C.3    47  ARG47       0.1563
     54  C         18.7810   64.8740    4.6890 C.2    47  ARG47       0.2260
     55  O         19.7220   64.1800    4.3010 O.2    47  ARG47      -0.2867
     56  CB        16.4940   63.9170    4.1860 C.3    47  ARG47       0.0307
     57  CG        15.3330   63.0540    4.6850 C.3    47  ARG47       0.0489
     58  CD        14.3030   62.7750    3.5970 C.3    47  ARG47       0.2205
     59  NE        14.8500   61.9340    2.5260 N.pl3  47  ARG47      -0.0865
     60  CZ        15.0700   60.6190    2.6060 C.cat  47  ARG47       0.5346
     61  NH1       14.8170   59.9360    3.7200 N.pl3  47  ARG47       0.1354
     62  NH2       15.5640   59.9730    1.5550 N.pl3  47  ARG47       0.1354
     63  N         21.3850   64.3220    7.4970 N.3    50  LEU50      -0.1245
     64  CA        21.8350   62.9280    7.5550 C.3    50  LEU50       0.1561
     65  C         22.8780   62.5510    6.5010 C.2    50  LEU50       0.2260
     66  O         23.6500   61.6320    6.7190 O.2    50  LEU50      -0.2867
     67  CB        20.6380   61.9620    7.4890 C.3    50  LEU50       0.0270
     68  CG        19.8530   61.8710    8.8030 C.3    50  LEU50       0.0019
     69  CD1       18.4850   61.2580    8.5620 C.3    50  LEU50       0.0001
     70  CD2       20.6270   61.0950    9.8610 C.3    50  LEU50       0.0001
     71  N         18.3200   61.5160   13.6430 N.3    64  PHE64      -0.1241
     72  CA        17.1040   60.6880   13.5340 C.3    64  PHE64       0.1605
     73  C         16.1310   60.9670   14.6830 C.2    64  PHE64       0.2264
     74  O         14.9170   60.9980   14.4750 O.2    64  PHE64      -0.2867
     75  CB        17.4420   59.1860   13.5180 C.3    64  PHE64       0.0534
     76  CG        18.0410   58.7080   12.2240 C.ar   64  PHE64      -0.0203
     77  CD1       17.3000   58.7470   11.0460 C.ar   64  PHE64      -0.0042
     78  CD2       19.3370   58.1960   12.1800 C.ar   64  PHE64      -0.0042
     79  CE1       17.8450   58.3040    9.8480 C.ar   64  PHE64      -0.0003
     80  CE2       19.8910   57.7620   10.9750 C.ar   64  PHE64      -0.0003
     81  CZ        19.1450   57.8250    9.8070 C.ar   64  PHE64      -0.0000
     82  N         12.4090   62.4450   14.9840 N.3    68  ARG68      -0.1245
     83  CA        11.4290   61.5690   15.6380 C.3    68  ARG68       0.1563
     84  C         10.6110   62.2840   16.7000 C.2    68  ARG68       0.2260
     85  O          9.4070   62.0450   16.8070 O.2    68  ARG68      -0.2867
     86  CB        12.1090   60.3380   16.2560 C.3    68  ARG68       0.0307
     87  CG        11.1450   59.2270   16.6320 C.3    68  ARG68       0.0489
     88  CD        11.8380   57.8790   16.7550 C.3    68  ARG68       0.2205
     89  NE        12.2260   57.3810   15.4330 N.pl3  68  ARG68      -0.0865
     90  CZ        13.4560   57.0240   15.0450 C.cat  68  ARG68       0.5346
     91  NH1       14.4970   57.0310   15.8800 N.pl3  68  ARG68       0.1354
     92  NH2       13.6450   56.6240   13.7870 N.pl3  68  ARG68       0.1354
     93  N          6.2300   54.6100    7.8010 N.3    89  ASP89      -0.1225
     94  CA         7.2420   53.8910    7.0600 C.3    89  ASP89       0.1805
     95  C          8.5510   54.1940    7.7960 C.2    89  ASP89       0.2597
     96  O          9.1350   55.2630    7.6180 O.2    89  ASP89      -0.2718
     97  CB         7.2380   54.3920    5.5990 C.3    89  ASP89       0.1424
     98  CG         8.1620   53.6100    4.6840 C.2    89  ASP89       0.3668
     99  OD1        8.9210   52.7380    5.1650 O.co2  89  ASP89      -0.2456
    100  OD2        8.1230   53.8800    3.4550 O.co2  89  ASP89      -0.2456
    101  N          8.9700   53.2410    8.6320 N.am   90  ARG90      -0.1979
    102  CA        10.0900   53.3590    9.5870 C.3    90  ARG90       0.1597
    103  C          9.6870   54.1100   10.8470 C.2    90  ARG90       0.2287
    104  O          8.9830   55.1090   10.7630 O.2    90  ARG90      -0.2864
    105  CB        11.3530   54.0050    8.9870 C.3    90  ARG90       0.0334
    106  CG        11.9760   53.2420    7.8280 C.3    90  ARG90       0.0492
    107  CD        13.4080   53.7020    7.5630 C.3    90  ARG90       0.2205
    108  NE        14.1290   52.8330    6.6330 N.pl3  90  ARG90      -0.0865
    109  CZ        14.6180   51.6250    6.9270 C.cat  90  ARG90       0.5346
    110  NH1       14.4600   51.0780    8.1330 N.pl3  90  ARG90       0.1354
    111  NH2       15.2690   50.9420    5.9950 N.pl3  90  ARG90       0.1354
    112  N         13.9650   51.1900   13.4300 N.3    94  SER94      -0.1202
    113  CA        15.0110   51.4940   12.4620 C.3    94  SER94       0.2020
    114  C         16.2970   51.9110   13.1610 C.2    94  SER94       0.2619
    115  O         17.3650   51.3860   12.8470 O.2    94  SER94      -0.2717
    116  CB        14.5810   52.5860   11.4820 C.3    94  SER94       0.2103
    117  OG        13.5020   52.1320   10.6930 O.3    94  SER94      -0.2182
    118  N         16.1890   52.8240   14.1230 N.am   95  SER95      -0.1951
    119  CA        17.3560   53.2520   14.9030 C.3    95  SER95       0.1924
    120  C         17.9720   52.1230   15.7230 C.2    95  SER95       0.2314
    121  O         19.1910   51.9870   15.7700 O.2    95  SER95      -0.2863
    122  CB        17.0170   54.4200   15.8300 C.3    95  SER95       0.2116
    123  OG        16.8190   55.6240   15.1100 O.3    95  SER95      -0.2180
    124  N         19.5960   49.7920   12.9110 N.3    98  TYR98      -0.1227
    125  CA        20.6760   50.4540   12.1730 C.3    98  TYR98       0.1736
    126  C         21.7350   51.0250   13.1220 C.2    98  TYR98       0.2595
    127  O         22.9060   50.6580   13.0440 O.2    98  TYR98      -0.2718
    128  CB        20.1380   51.5420   11.2240 C.3    98  TYR98       0.0548
    129  CG        19.4920   50.9890    9.9600 C.ar   98  TYR98      -0.0200
    130  CD1       18.2940   50.2630   10.0150 C.ar   98  TYR98      -0.0009
    131  CD2       20.0720   51.1910    8.7030 C.ar   98  TYR98      -0.0009
    132  CE1       17.6970   49.7650    8.8690 C.ar   98  TYR98       0.0417
    133  CE2       19.4810   50.6860    7.5500 C.ar   98  TYR98       0.0417
    134  CZ        18.2950   49.9670    7.6440 C.ar   98  TYR98       0.1957
    135  OH        17.6900   49.4610    6.5230 O.3    98  TYR98      -0.2866
    136  N         21.3260   51.9080   14.0240 N.am   99  GLN99      -0.1979
    137  CA        22.2880   52.5810   14.8840 C.3    99  GLN99       0.1601
    138  C         22.7420   51.7450   16.0810 C.2    99  GLN99       0.2287
    139  O         23.8610   51.9250   16.5540 O.2    99  GLN99      -0.2864
    140  CB        21.7970   53.9680   15.3140 C.3    99  GLN99       0.0394
    141  CG        22.0160   55.0390   14.2490 C.3    99  GLN99       0.0908
    142  CD        21.0830   54.8810   13.0720 C.2    99  GLN99       0.2608
    143  OE1       19.8870   54.6390   13.2530 O.2    99  GLN99      -0.2717
    144  NE2       21.6140   55.0190   11.8580 N.am   99  GLN99      -0.0878
    145  N         20.3750   57.9220    1.5090 N.3   138  ARG138     -0.1231
    146  CA        21.7370   57.3870    1.5550 C.3   138  ARG138      0.1694
    147  C         22.3450   57.4960    2.9570 C.2   138  ARG138      0.2591
    148  O         21.7790   58.1430    3.8450 O.2   138  ARG138     -0.2718
    149  CB        22.6360   58.1140    0.5540 C.3   138  ARG138      0.0321
    150  CG        22.0380   58.2660   -0.8360 C.3   138  ARG138      0.0489
    151  CD        23.0720   58.7650   -1.8370 C.3   138  ARG138      0.2205
    152  NE        23.0250   58.0110   -3.0900 N.pl3 138  ARG138     -0.0865
    153  CZ        23.4610   56.7570   -3.2550 C.cat 138  ARG138      0.5346
    154  NH1       23.9880   56.0650   -2.2420 N.pl3 138  ARG138      0.1354
    155  NH2       23.3600   56.1810   -4.4510 N.pl3 138  ARG138      0.1354
    156  N         23.5000   56.8530    3.1450 N.am  139  LEU139     -0.1980
    157  CA        24.1980   56.8400    4.4400 C.3   139  LEU139      0.1596
    158  C         25.6400   56.3200    4.2730 C.2   139  LEU139      0.2287
    159  O         25.9480   55.6310    3.2940 O.2   139  LEU139     -0.2864
    160  CB        23.4130   55.9840    5.4570 C.3   139  LEU139      0.0297
    161  CG        23.2110   56.5060    6.8830 C.3   139  LEU139      0.0022
    162  CD1       22.4260   57.8100    6.9240 C.3   139  LEU139      0.0001
    163  CD2       22.4960   55.4490    7.7100 C.3   139  LEU139      0.0001
    164  N         27.4610   51.9650    3.8980 N.3   142  LEU142     -0.1245
    165  CA        26.3630   50.9930    3.9350 C.3   142  LEU142      0.1561
    166  C         26.7770   49.6790    3.2580 C.2   142  LEU142      0.2260
    167  O         26.2480   49.3210    2.2030 O.2   142  LEU142     -0.2867
    168  CB        25.1100   51.5780    3.2690 C.3   142  LEU142      0.0270
    169  CG        24.3970   52.6980    4.0270 C.3   142  LEU142      0.0019
    170  CD1       23.2870   53.2390    3.1570 C.3   142  LEU142      0.0001
    171  CD2       23.8140   52.2160    5.3300 C.3   142  LEU142      0.0001
@<TRIPOS>BOND
     1   155   153    1
     2   153   152    2
     3   153   154    1
     4   152   151    1
     5   151   150    1
     6   150   149    1
     7    24    22    1
     8    22    19    1
     9    22    23    1
    10    20    21    2
    11    20    19    1
    12   149   146    1
    13     4     3    2
    14    19    18    1
    15     3     2    1
    16   145   146    1
    17   146   147    1
    18    62    60    1
    19    18    11   am
    20     5     2    1
    21     5     6    1
    22    34    33    1
    23     9    10    1
    24   167   166    2
    25     2     1    1
    26    59    60    2
    27    59    58    1
    28    60    61    1
    29    11    12    2
    30    11    10    1
    31   147   156   am
    32   147   148    2
    33     8     6   ar
    34     6     7   ar
    35   156   157    1
    36   170   169    1
    37    10    13    1
    38   166   165    1
    39    33    35    1
    40    33    32    2
    41   168   165    1
    42   168   169    1
    43   159   158    2
    44   100    98   ar
    45    58    57    1
    46   164   165    1
    47   169   171    1
    48    31    32    1
    49    31    30    1
    50    13    14    1
    51    56    57    1
    52    56    53    1
    53    17    16    1
    54   158   157    1
    55    55    54    2
    56   157   160    1
    57    98    99   ar
    58    98    97    1
    59    54    53    1
    60    14    15    1
    61    16    15    1
    62    53    52    1
    63    30    29    1
    64   160   161    1
    65    97    94    1
    66    29    26    1
    67   111   109    1
    68    48    47    2
    69    65    66    2
    70    65    64    1
    71   135   134    1
    72   108   109    2
    73   108   107    1
    74   161   162    1
    75   161   163    1
    76   109   110    1
    77    94    95    1
    78    94    93    1
    79    51    50    1
    80    51    45    1
    81    26    25    1
    82    26    27    1
    83    50    49    1
    84    67    64    1
    85    67    68    1
    86    63    64    1
    87    47    46    1
    88   133   134   ar
    89   133   131   ar
    90   107   106    1
    91    96    95    2
    92    39    38    2
    93   134   132   ar
    94    95   101   am
    95   106   105    1
    96    45    38   am
    97    45    46    1
    98    38    37    1
    99    27    36   am
   100    27    28    2
   101    36    37    1
   102    46    49    1
   103    69    68    1
   104   101   102    1
   105   131   129   ar
   106    68    70    1
   107    37    40    1
   108   132   130   ar
   109   105   102    1
   110   102   103    1
   111    81    79   ar
   112    81    80   ar
   113    79    77   ar
   114   129   130   ar
   115   129   128    1
   116    40    41    1
   117   117   116    1
   118   104   103    2
   119    80    78   ar
   120    77    76   ar
   121    41    42    1
   122   128   125    1
   123   116   113    1
   124   144   142   am
   125   125   124    1
   126   125   126    1
   127    78    76   ar
   128    76    75    1
   129   113   114    1
   130   113   112    1
   131    42    43   ar
   132    42    44   ar
   133   115   114    2
   134   127   126    2
   135   142   143    2
   136   142   141    1
   137   126   136   am
   138   114   118   am
   139    75    72    1
   140    72    71    1
   141    72    73    1
   142    92    90    1
   143   136   137    1
   144   118   119    1
   145   141   140    1
   146    74    73    2
   147   137   140    1
   148   137   138    1
   149   119   120    1
   150   119   122    1
   151    82    83    1
   152    90    89    2
   153    90    91    1
   154   123   122    1
   155    89    88    1
   156    83    86    1
   157    83    84    1
   158   120   121    2
   159   138   139    2
   160    86    87    1
   161    87    88    1
   162    84    85    2
