@<TRIPOS>MOLECULE
tmp/5zaxA00.pdb
 98 96 0 0 0
SMALL
GASTEIGER

@<TRIPOS>ATOM
      1  N         16.6930   48.4500    3.5670 N.3    11  ASP11      -0.1225
      2  CA        16.5300   49.1940    2.3080 C.3    11  ASP11       0.1805
      3  C         16.2030   48.1820    1.2130 C.2    11  ASP11       0.2598
      4  O         16.8520   47.1310    1.1210 O.2    11  ASP11      -0.2718
      5  CB        17.8080   49.9620    1.9170 C.3    11  ASP11       0.1424
      6  CG        18.4380   50.7120    3.0850 C.2    11  ASP11       0.3668
      7  OD1       18.8150   50.0490    4.0820 O.co2  11  ASP11      -0.2456
      8  OD2       18.5570   51.9500    3.0100 O.co2  11  ASP11      -0.2456
      9  N         15.1900   48.4860    0.4120 N.am   12  GLY12      -0.1942
     10  CA        14.7410   47.5990   -0.6650 C.3    12  GLY12       0.2014
     11  C         13.8840   46.3900   -0.2810 C.2    12  GLY12       0.2640
     12  O         13.6820   45.5140   -1.1130 O.2    12  GLY12      -0.2714
     13  N         13.3720   46.3350    0.9530 N.am   13  SER13      -0.1935
     14  CA        12.5690   45.1780    1.4340 C.3    13  SER13       0.2055
     15  C         11.0680   45.2190    1.1010 C.2    13  SER13       0.2644
     16  O         10.3570   44.2460    1.3620 O.2    13  SER13      -0.2714
     17  CB        12.7270   45.0160    2.9530 C.3    13  SER13       0.2130
     18  OG        12.3300   46.1940    3.6330 O.3    13  SER13      -0.2179
     19  N         10.5890   46.3270    0.5380 N.am   14  GLY14      -0.1939
     20  CA         9.1670   46.5040    0.2220 C.3    14  GLY14       0.2014
     21  C          8.3490   47.3110    1.2250 C.2    14  GLY14       0.2639
     22  O          7.1250   47.3490    1.1140 O.2    14  GLY14      -0.2714
     23  N          9.0050   47.9480    2.1990 N.am   15  LYS15      -0.1963
     24  CA         8.3130   48.7330    3.2430 C.3    15  LYS15       0.1728
     25  C          7.3720   49.7730    2.6510 C.2    15  LYS15       0.2617
     26  O          6.1760   49.7760    2.9630 O.2    15  LYS15      -0.2715
     27  CB         9.3040   49.4970    4.1210 C.3    15  LYS15       0.0311
     28  CG        10.2140   48.6790    5.0110 C.3    15  LYS15       0.0038
     29  CD        11.0810   49.5920    5.8650 C.3    15  LYS15       0.0206
     30  CE        11.9560   50.5520    5.0610 C.3    15  LYS15       0.1093
     31  NZ        13.0010   49.8520    4.2560 N.3    15  LYS15      -0.1314
     32  N          7.9300   50.6410    1.8010 N.am   16  THR16      -0.1937
     33  CA         7.1900   51.7390    1.1640 C.3    16  THR16       0.2028
     34  C          6.0480   51.1960    0.3150 C.2    16  THR16       0.2643
     35  O          4.9250   51.6600    0.4390 O.2    16  THR16      -0.2714
     36  CB         8.1270   52.6380    0.3150 C.3    16  THR16       0.1808
     37  OG1        9.1070   53.2510    1.1670 O.3    16  THR16      -0.2208
     38  CG2        7.3590   53.7340   -0.4110 C.3    16  THR16       0.0379
     39  N          6.3370   50.1960   -0.5150 N.am   17  THR17      -0.1936
     40  CA         5.3170   49.5040   -1.2970 C.3    17  THR17       0.2028
     41  C          4.1410   49.0720   -0.3990 C.2    17  THR17       0.2642
     42  O          3.0010   49.4360   -0.6620 O.2    17  THR17      -0.2714
     43  CB         5.9060   48.2740   -2.0440 C.3    17  THR17       0.1808
     44  OG1        6.9520   48.6940   -2.9300 O.3    17  THR17      -0.2208
     45  CG2        4.8520   47.5540   -2.8650 C.3    17  THR17       0.0379
     46  N          4.4380   48.3430    0.6770 N.am   18  GLN18      -0.1976
     47  CA         3.3970   47.7610    1.5490 C.3    18  GLN18       0.1601
     48  C          2.6490   48.7540    2.4370 C.2    18  GLN18       0.2287
     49  O          1.4680   48.5390    2.7250 O.2    18  GLN18      -0.2864
     50  CB         3.9820   46.6420    2.4180 C.3    18  GLN18       0.0394
     51  CG         4.3880   45.4070    1.6320 C.3    18  GLN18       0.0908
     52  CD         3.2210   44.7380    0.9290 C.2    18  GLN18       0.2608
     53  OE1        2.1280   44.6340    1.4790 O.2    18  GLN18      -0.2717
     54  NE2        3.4570   44.2660   -0.2920 N.am   18  GLN18      -0.0878
     55  N         10.1380   38.8490    2.8120 N.3   170  ALA170     -0.1231
     56  CA        10.1460   39.9180    1.8130 C.3   170  ALA170      0.1694
     57  C         10.3550   39.4530    0.3630 C.2   170  ALA170      0.2593
     58  O         10.1280   40.2370   -0.5610 O.2   170  ALA170     -0.2718
     59  CB        11.1850   40.9660    2.1850 C.3   170  ALA170      0.0304
     60  N         10.7840   38.2030    0.1660 N.am  171  THR171     -0.1939
     61  CA        10.9320   37.6110   -1.1770 C.3   171  THR171      0.2028
     62  C          9.6090   37.1090   -1.7820 C.2   171  THR171      0.2642
     63  O          9.5280   36.8950   -2.9940 O.2   171  THR171     -0.2714
     64  CB        11.9240   36.4360   -1.1520 C.3   171  THR171      0.1808
     65  OG1       11.4640   35.4420   -0.2290 O.3   171  THR171     -0.2208
     66  CG2       13.3110   36.9050   -0.7190 C.3   171  THR171      0.0379
     67  N          8.5900   36.8950   -0.9440 N.am  172  LEU172     -0.1963
     68  CA         7.2520   36.5360   -1.4220 C.3   172  LEU172      0.1713
     69  C          6.6750   37.6740   -2.2760 C.2   172  LEU172      0.2458
     70  O          6.9920   38.8280   -2.0270 O.2   172  LEU172     -0.2730
     71  CB         6.3020   36.2760   -0.2490 C.3   172  LEU172      0.0310
     72  CG         6.5530   35.0550    0.6300 C.3   172  LEU172      0.0022
     73  CD1        5.5770   35.0710    1.7990 C.3   172  LEU172      0.0001
     74  CD2        6.4190   33.7570   -0.1620 C.3   172  LEU172      0.0001
     75  N          5.8390   37.3560   -3.2870 N.am  173  PRO173     -0.2716
     76  CA         5.1720   38.4060   -4.0790 C.3   173  PRO173      0.1536
     77  C          4.3660   39.4170   -3.2570 C.2   173  PRO173      0.2598
     78  O          3.8830   39.0950   -2.1700 O.2   173  PRO173     -0.2715
     79  CB         4.2390   37.6110   -4.9910 C.3   173  PRO173      0.0310
     80  CG         4.9580   36.3280   -5.2000 C.3   173  PRO173      0.0237
     81  CD         5.6630   36.0290   -3.9050 C.3   173  PRO173      0.0939
     82  N          4.2160   40.6150   -3.8130 N.am  174  GLU174     -0.1978
     83  CA         3.6790   41.7700   -3.0920 C.3   174  GLU174      0.1602
     84  C          2.2310   41.5690   -2.6440 C.2   174  GLU174      0.2287
     85  O          1.8500   42.0260   -1.5660 O.2   174  GLU174     -0.2864
     86  CB         3.7770   43.0440   -3.9450 C.3   174  GLU174      0.0415
     87  CG         5.1970   43.5010   -4.2720 C.3   174  GLU174      0.1163
     88  CD         5.7070   42.9950   -5.6180 C.2   174  GLU174      0.3649
     89  OE1        5.6360   41.7660   -5.8690 O.co2 174  GLU174     -0.2457
     90  OE2        6.1760   43.8320   -6.4200 O.co2 174  GLU174     -0.2457
     91  N          2.2080   39.3570    0.5280 N.3   177  ILE177     -0.1245
     92  CA         2.6520   40.1010    1.7100 C.3   177  ILE177      0.1561
     93  C          1.5110   40.9840    2.2040 C.2   177  ILE177      0.2260
     94  O          1.1820   40.9620    3.3840 O.2   177  ILE177     -0.2867
     95  CB         3.9200   40.9410    1.4280 C.3   177  ILE177      0.0252
     96  CG1        5.1100   40.0100    1.1470 C.3   177  ILE177      0.0019
     97  CG2        4.2560   41.8490    2.6120 C.3   177  ILE177      0.0019
     98  CD1        6.2510   40.6710    0.4070 C.3   177  ILE177      0.0001
@<TRIPOS>BOND
     1    90    88   ar
     2    89    88   ar
     3    88    87    1
     4    80    79    1
     5    80    81    1
     6    79    76    1
     7    87    86    1
     8    76    75    1
     9    76    77    1
    10    86    83    1
    11    81    75    1
    12    82    77   am
    13    82    83    1
    14    75    69   am
    15    77    78    2
    16    83    84    1
    17    63    62    2
    18    44    43    1
    19    45    43    1
    20    84    85    2
    21    69    70    2
    22    69    68    1
    23    43    40    1
    24    62    61    1
    25    62    67   am
    26    68    67    1
    27    68    71    1
    28    40    39    1
    29    40    41    1
    30    61    64    1
    31    61    60    1
    32    64    66    1
    33    64    65    1
    34    12    11    2
    35    10    11    1
    36    10     9    1
    37    42    41    2
    38    58    57    2
    39    39    34   am
    40    38    36    1
    41    41    46   am
    42    54    52   am
    43    11    13   am
    44    71    72    1
    45    74    72    1
    46    60    57   am
    47    20    19    1
    48    20    21    1
    49    36    33    1
    50    36    37    1
    51    34    35    2
    52    34    33    1
    53    57    56    1
    54    98    96    1
    55     9     3   am
    56    91    92    1
    57    19    15   am
    58    72    73    1
    59    46    47    1
    60    52    53    2
    61    52    51    1
    62    13    14    1
    63    15    16    2
    64    15    14    1
    65    22    21    2
    66     4     3    2
    67    96    95    1
    68    33    32    1
    69     3     2    1
    70    21    23   am
    71    95    92    1
    72    95    97    1
    73    14    17    1
    74    47    50    1
    75    47    48    1
    76    51    50    1
    77    92    93    1
    78    32    25   am
    79    56    59    1
    80    56    55    1
    81     5     2    1
    82     5     6    1
    83    23    24    1
    84    93    94    2
    85     2     1    1
    86    48    49    2
    87    25    26    2
    88    25    24    1
    89    17    18    1
    90     8     6   ar
    91     6     7   ar
    92    24    27    1
    93    27    28    1
    94    31    30    1
    95    28    29    1
    96    30    29    1
