@<TRIPOS>MOLECULE
tmp/5zb2A01.pdb
 88 86 0 0 0
SMALL
GASTEIGER

@<TRIPOS>ATOM
      1  N        -10.0820   25.3700   70.8480 N.3    20  TRP20      -0.1227
      2  CA        -9.3120   26.5280   70.4140 C.3    20  TRP20       0.1737
      3  C         -8.0330   26.6980   71.2290 C.2    20  TRP20       0.2595
      4  O         -7.0520   27.2540   70.7210 O.2    20  TRP20      -0.2718
      5  CB       -10.1840   27.7800   70.5020 C.3    20  TRP20       0.0564
      6  CG        -9.4290   29.0670   70.5100 C.ar   20  TRP20       0.0003
      7  CD1       -9.1090   29.8400   69.4320 C.ar   20  TRP20       0.0946
      8  CD2       -8.9120   29.7450   71.6580 C.ar   20  TRP20       0.0152
      9  NE1       -8.4210   30.9560   69.8380 N.ar   20  TRP20      -0.2442
     10  CE2       -8.2840   30.9200   71.2020 C.ar   20  TRP20       0.0810
     11  CE3       -8.9180   29.4720   73.0290 C.ar   20  TRP20       0.0012
     12  CZ2       -7.6710   31.8220   72.0680 C.ar   20  TRP20       0.0191
     13  CZ3       -8.3060   30.3640   73.8850 C.ar   20  TRP20       0.0001
     14  CH2       -7.6900   31.5250   73.4020 C.ar   20  TRP20       0.0015
     15  N         -8.0180   26.2340   72.4840 N.am   21  GLN21      -0.1979
     16  CA        -6.8020   26.3140   73.2910 C.3    21  GLN21       0.1601
     17  C         -5.6220   25.6950   72.5530 C.2    21  GLN21       0.2287
     18  O         -4.5450   26.2940   72.4610 O.2    21  GLN21      -0.2864
     19  CB        -6.9960   25.6080   74.6350 C.3    21  GLN21       0.0394
     20  CG        -7.9950   26.2430   75.5770 C.3    21  GLN21       0.0908
     21  CD        -7.4290   27.4250   76.3220 C.2    21  GLN21       0.2608
     22  OE1       -6.5570   28.1310   75.8200 O.2    21  GLN21      -0.2717
     23  NE2       -7.9230   27.6480   77.5310 N.am   21  GLN21      -0.0878
     24  N         -4.4680   27.8570   69.8310 N.3    24  ALA24      -0.1231
     25  CA        -3.7120   28.9640   70.4070 C.3    24  ALA24       0.1694
     26  C         -2.3560   28.4920   70.9130 C.2    24  ALA24       0.2592
     27  O         -1.3580   29.2170   70.8120 O.2    24  ALA24      -0.2718
     28  CB        -4.5100   29.6160   71.5360 C.3    24  ALA24       0.0304
     29  N         -2.2960   27.2750   71.4570 N.am   25  ASP25      -0.1974
     30  CA        -1.0220   26.7400   71.9180 C.3    25  ASP25       0.1709
     31  C         -0.0280   26.6310   70.7680 C.2    25  ASP25       0.2293
     32  O          1.1660   26.9030   70.9410 O.2    25  ASP25      -0.2864
     33  CB        -1.2350   25.3790   72.5790 C.3    25  ASP25       0.1436
     34  CG         0.0080   24.8730   73.2840 C.2    25  ASP25       0.3671
     35  OD1        0.2000   25.2060   74.4730 O.co2  25  ASP25      -0.2456
     36  OD2        0.7950   24.1420   72.6490 O.co2  25  ASP25      -0.2456
     37  N          1.2160   29.9660   69.8140 N.3    28  SER28      -0.1217
     38  CA         2.2450   30.3500   70.7740 C.3    28  SER28       0.1889
     39  C          3.6000   29.7790   70.3750 C.2    28  SER28       0.2288
     40  O          4.6270   30.4580   70.4900 O.2    28  SER28      -0.2866
     41  CB         1.8560   29.8780   72.1740 C.3    28  SER28       0.2089
     42  OG         0.5830   30.3780   72.5450 O.3    28  SER28      -0.2183
     43  N          5.2310   31.9660   67.8170 N.3    31  VAL31      -0.1231
     44  CA         5.6670   33.2650   68.3240 C.3    31  VAL31       0.1692
     45  C          6.9650   33.1260   69.1100 C.2    31  VAL31       0.2592
     46  O          7.8180   34.0210   69.0860 O.2    31  VAL31      -0.2718
     47  CB         4.5570   33.9090   69.1750 C.3    31  VAL31       0.0266
     48  CG1        5.0050   35.2600   69.7130 C.3    31  VAL31       0.0020
     49  CG2        3.2990   34.0850   68.3530 C.3    31  VAL31       0.0020
     50  N          7.1340   32.0120   69.8280 N.am   32  PHE32      -0.1976
     51  CA         8.3710   31.8070   70.5750 C.3    32  PHE32       0.1639
     52  C          9.5180   31.4380   69.6430 C.2    32  PHE32       0.2290
     53  O         10.6620   31.8510   69.8650 O.2    32  PHE32      -0.2864
     54  CB         8.1720   30.7380   71.6520 C.3    32  PHE32       0.0560
     55  CG         7.3440   31.2030   72.8200 C.ar   32  PHE32      -0.0200
     56  CD1        7.8180   32.1900   73.6720 C.ar   32  PHE32      -0.0042
     57  CD2        6.0960   30.6550   73.0690 C.ar   32  PHE32      -0.0042
     58  CE1        7.0600   32.6260   74.7490 C.ar   32  PHE32      -0.0003
     59  CE2        5.3330   31.0850   74.1460 C.ar   32  PHE32      -0.0003
     60  CZ         5.8170   32.0720   74.9860 C.ar   32  PHE32      -0.0000
     61  N         11.5140   33.4390   78.4960 N.3    66  GLN66      -0.1245
     62  CA        10.7130   33.2210   77.2990 C.3    66  GLN66       0.1566
     63  C         11.5200   32.6110   76.1650 C.2    66  GLN66       0.2260
     64  O         10.9270   32.0620   75.2300 O.2    66  GLN66      -0.2867
     65  CB        10.0850   34.5430   76.8540 C.3    66  GLN66       0.0367
     66  CG         9.0780   35.0870   77.8550 C.3    66  GLN66       0.0905
     67  CD         8.5110   36.4230   77.4400 C.2    66  GLN66       0.2608
     68  OE1        7.3660   36.5160   76.9970 O.2    66  GLN66      -0.2717
     69  NE2        9.3130   37.4670   77.5750 N.am   66  GLN66      -0.0878
     70  N          3.5120   25.1880   81.9090 N.3    94  ILE94      -0.1231
     71  CA         2.4330   25.2070   80.9260 C.3    94  ILE94       0.1692
     72  C          2.9880   25.0450   79.5150 C.2    94  ILE94       0.2592
     73  O          2.3860   24.3660   78.6740 O.2    94  ILE94      -0.2718
     74  CB         1.6090   26.5020   81.0730 C.3    94  ILE94       0.0266
     75  CG1        0.8280   26.4950   82.3930 C.3    94  ILE94       0.0019
     76  CG2        0.6610   26.7020   79.8940 C.3    94  ILE94       0.0020
     77  CD1       -0.1880   25.3720   82.5320 C.3    94  ILE94       0.0001
     78  N          4.1460   25.6470   79.2350 N.am   95  PHE95      -0.1976
     79  CA         4.6620   25.7490   77.8750 C.3    95  PHE95       0.1639
     80  C          5.8440   24.8190   77.6000 C.2    95  PHE95       0.2290
     81  O          6.5490   25.0100   76.6040 O.2    95  PHE95      -0.2864
     82  CB         5.0630   27.1970   77.5830 C.3    95  PHE95       0.0560
     83  CG         3.8980   28.1240   77.3570 C.ar   95  PHE95      -0.0200
     84  CD1        2.8510   27.7620   76.5260 C.ar   95  PHE95      -0.0042
     85  CD2        3.8590   29.3690   77.9660 C.ar   95  PHE95      -0.0042
     86  CE1        1.7880   28.6180   76.3110 C.ar   95  PHE95      -0.0003
     87  CE2        2.7970   30.2260   77.7560 C.ar   95  PHE95      -0.0003
     88  CZ         1.7620   29.8500   76.9280 C.ar   95  PHE95      -0.0000
@<TRIPOS>BOND
     1    43    44    1
     2    44    45    1
     3    44    47    1
     4    49    47    1
     5    46    45    2
     6    45    50   am
     7    47    48    1
     8     7     9   ar
     9     7     6   ar
    10    52    53    2
    11    52    51    1
    12    37    38    1
    13    50    51    1
    14    24    25    1
    15     9    10   ar
    16    39    40    2
    17    39    38    1
    18    25    26    1
    19    25    28    1
    20     2     5    1
    21     2     1    1
    22     2     3    1
    23     5     6    1
    24     6     8   ar
    25    51    54    1
    26     4     3    2
    27    31    32    2
    28    31    30    1
    29    38    41    1
    30    27    26    2
    31    26    29   am
    32    10     8   ar
    33    10    12   ar
    34     3    15   am
    35    29    30    1
    36    54    55    1
    37     8    11   ar
    38    30    33    1
    39    12    14   ar
    40    41    42    1
    41    18    17    2
    42    15    16    1
    43    17    16    1
    44    33    34    1
    45    36    34   ar
    46    55    57   ar
    47    55    56   ar
    48    11    13   ar
    49    57    59   ar
    50    34    35   ar
    51    16    19    1
    52    14    13   ar
    53    56    58   ar
    54    59    60   ar
    55    19    20    1
    56    58    60   ar
    57    64    63    2
    58    20    21    1
    59    22    21    2
    60    63    62    1
    61    86    84   ar
    62    86    88   ar
    63    21    23   am
    64    84    83   ar
    65    81    80    2
    66    65    62    1
    67    65    66    1
    68    88    87   ar
    69    68    67    2
    70    62    61    1
    71    83    82    1
    72    83    85   ar
    73    67    69   am
    74    67    66    1
    75    82    79    1
    76    80    79    1
    77    87    85   ar
    78    79    78    1
    79    73    72    2
    80    78    72   am
    81    72    71    1
    82    76    74    1
    83    71    74    1
    84    71    70    1
    85    74    75    1
    86    75    77    1
