@<TRIPOS>MOLECULE
tmp/5zb2A02.pdb
 151 146 0 0 0
SMALL
GASTEIGER

@<TRIPOS>ATOM
      1  N        -10.0820   25.3700   70.8480 N.3    20  TRP20      -0.1227
      2  CA        -9.3120   26.5280   70.4140 C.3    20  TRP20       0.1737
      3  C         -8.0330   26.6980   71.2290 C.2    20  TRP20       0.2595
      4  O         -7.0520   27.2540   70.7210 O.2    20  TRP20      -0.2718
      5  CB       -10.1840   27.7800   70.5020 C.3    20  TRP20       0.0564
      6  CG        -9.4290   29.0670   70.5100 C.ar   20  TRP20       0.0003
      7  CD1       -9.1090   29.8400   69.4320 C.ar   20  TRP20       0.0946
      8  CD2       -8.9120   29.7450   71.6580 C.ar   20  TRP20       0.0152
      9  NE1       -8.4210   30.9560   69.8380 N.ar   20  TRP20      -0.2442
     10  CE2       -8.2840   30.9200   71.2020 C.ar   20  TRP20       0.0810
     11  CE3       -8.9180   29.4720   73.0290 C.ar   20  TRP20       0.0012
     12  CZ2       -7.6710   31.8220   72.0680 C.ar   20  TRP20       0.0191
     13  CZ3       -8.3060   30.3640   73.8850 C.ar   20  TRP20       0.0001
     14  CH2       -7.6900   31.5250   73.4020 C.ar   20  TRP20       0.0015
     15  N         -8.0180   26.2340   72.4840 N.am   21  GLN21      -0.1979
     16  CA        -6.8020   26.3140   73.2910 C.3    21  GLN21       0.1601
     17  C         -5.6220   25.6950   72.5530 C.2    21  GLN21       0.2287
     18  O         -4.5450   26.2940   72.4610 O.2    21  GLN21      -0.2864
     19  CB        -6.9960   25.6080   74.6350 C.3    21  GLN21       0.0394
     20  CG        -7.9950   26.2430   75.5770 C.3    21  GLN21       0.0908
     21  CD        -7.4290   27.4250   76.3220 C.2    21  GLN21       0.2608
     22  OE1       -6.5570   28.1310   75.8200 O.2    21  GLN21      -0.2717
     23  NE2       -7.9230   27.6480   77.5310 N.am   21  GLN21      -0.0878
     24  N          7.1340   32.0120   69.8280 N.3    32  PHE32      -0.1241
     25  CA         8.3710   31.8070   70.5750 C.3    32  PHE32       0.1605
     26  C          9.5180   31.4380   69.6430 C.2    32  PHE32       0.2264
     27  O         10.6620   31.8510   69.8650 O.2    32  PHE32      -0.2867
     28  CB         8.1720   30.7380   71.6520 C.3    32  PHE32       0.0534
     29  CG         7.3440   31.2030   72.8200 C.ar   32  PHE32      -0.0203
     30  CD1        7.8180   32.1900   73.6720 C.ar   32  PHE32      -0.0042
     31  CD2        6.0960   30.6550   73.0690 C.ar   32  PHE32      -0.0042
     32  CE1        7.0600   32.6260   74.7490 C.ar   32  PHE32      -0.0003
     33  CE2        5.3330   31.0850   74.1460 C.ar   32  PHE32      -0.0003
     34  CZ         5.8170   32.0720   74.9860 C.ar   32  PHE32      -0.0000
     35  N         12.1420   36.1270   84.5790 N.3    62  ASP62      -0.1225
     36  CA        10.8830   35.8950   83.8720 C.3    62  ASP62       0.1805
     37  C         10.9350   36.4260   82.4450 C.2    62  ASP62       0.2597
     38  O         10.2390   35.9090   81.5620 O.2    62  ASP62      -0.2718
     39  CB         9.7190   36.5440   84.6200 C.3    62  ASP62       0.1424
     40  CG         9.3470   35.8060   85.8960 C.2    62  ASP62       0.3668
     41  OD1        9.9200   34.7250   86.1650 O.co2  62  ASP62      -0.2456
     42  OD2        8.4620   36.3060   86.6260 O.co2  62  ASP62      -0.2456
     43  N         11.7420   37.4590   82.2070 N.am   63  HIS63      -0.1975
     44  CA        11.8510   38.0510   80.8780 C.3    63  HIS63       0.1656
     45  C         12.6040   37.1190   79.9330 C.2    63  HIS63       0.2291
     46  O         12.0770   36.7060   78.8930 O.2    63  HIS63      -0.2864
     47  CB        12.5480   39.4120   80.9950 C.3    63  HIS63       0.0771
     48  CG        12.4570   40.2640   79.7670 C.ar   63  HIS63       0.0820
     49  ND1       11.2560   40.6700   79.2270 N.ar   63  HIS63      -0.2267
     50  CD2       13.4240   40.8160   78.9940 C.ar   63  HIS63       0.1154
     51  CE1       11.4860   41.4200   78.1630 C.ar   63  HIS63       0.1986
     52  NE2       12.7930   41.5230   77.9990 N.ar   63  HIS63      -0.2212
     53  N         13.3410   34.0620   80.4560 N.3    65  LEU65      -0.1231
     54  CA        12.7480   32.7290   80.4800 C.3    65  LEU65       0.1693
     55  C         12.0110   32.4130   79.1870 C.2    65  LEU65       0.2591
     56  O         11.8850   31.2420   78.8130 O.2    65  LEU65      -0.2718
     57  CB        11.7890   32.6120   81.6680 C.3    65  LEU65       0.0284
     58  CG        10.9610   31.3270   81.7650 C.3    65  LEU65       0.0019
     59  CD1       11.8680   30.1210   81.9700 C.3    65  LEU65       0.0001
     60  CD2        9.9420   31.4400   82.8880 C.3    65  LEU65       0.0001
     61  N         11.5140   33.4390   78.4960 N.am   66  GLN66      -0.1979
     62  CA        10.7130   33.2210   77.2990 C.3    66  GLN66       0.1601
     63  C         11.5200   32.6110   76.1650 C.2    66  GLN66       0.2287
     64  O         10.9270   32.0620   75.2300 O.2    66  GLN66      -0.2864
     65  CB        10.0850   34.5430   76.8540 C.3    66  GLN66       0.0394
     66  CG         9.0780   35.0870   77.8550 C.3    66  GLN66       0.0908
     67  CD         8.5110   36.4230   77.4400 C.2    66  GLN66       0.2608
     68  OE1        7.3660   36.5160   76.9970 O.2    66  GLN66      -0.2717
     69  NE2        9.3130   37.4670   77.5750 N.am   66  GLN66      -0.0878
     70  N         10.6660   28.7000   76.0250 N.3    69  LEU69      -0.1245
     71  CA         9.2770   28.2650   76.0400 C.3    69  LEU69       0.1561
     72  C          8.8600   27.6930   74.6890 C.2    69  LEU69       0.2260
     73  O          9.3370   28.1170   73.6330 O.2    69  LEU69      -0.2867
     74  CB         8.3490   29.4230   76.4190 C.3    69  LEU69       0.0270
     75  CG         8.5390   30.0290   77.8130 C.3    69  LEU69       0.0019
     76  CD1        7.5370   31.1530   78.0430 C.3    69  LEU69       0.0001
     77  CD2        8.4110   28.9800   78.9060 C.3    69  LEU69       0.0001
     78  N         10.1430   34.1170   89.2050 N.3    85  SER85      -0.1217
     79  CA         9.0380   34.2300   90.1440 C.3    85  SER85       0.1889
     80  C          8.1890   32.9640   90.1270 C.2    85  SER85       0.2288
     81  O          8.3690   32.0700   89.2970 O.2    85  SER85      -0.2866
     82  CB         8.1620   35.4360   89.8080 C.3    85  SER85       0.2089
     83  OG         7.3540   35.1620   88.6770 O.3    85  SER85      -0.2183
     84  N          5.1950   32.8030   89.1920 N.3    87  ASP87      -0.1225
     85  CA         4.5040   32.7790   87.9070 C.3    87  ASP87       0.1805
     86  C          5.4240   32.2820   86.7990 C.2    87  ASP87       0.2598
     87  O          4.9750   31.5990   85.8710 O.2    87  ASP87      -0.2718
     88  CB         3.9600   34.1700   87.5670 C.3    87  ASP87       0.1424
     89  CG         2.6370   34.4690   88.2530 C.2    87  ASP87       0.3668
     90  OD1        1.9390   33.5150   88.6580 O.co2  87  ASP87      -0.2456
     91  OD2        2.2850   35.6630   88.3720 O.co2  87  ASP87      -0.2456
     92  N          6.7120   32.6190   86.8700 N.am   88  GLY88      -0.1957
     93  CA         7.6600   32.0780   85.9080 C.3    88  GLY88       0.1869
     94  C          7.6650   30.5620   85.8930 C.2    88  GLY88       0.2309
     95  O          7.6470   29.9360   84.8300 O.2    88  GLY88      -0.2863
     96  N          5.2430   28.5920   86.8680 N.3    90  LYS90      -0.1231
     97  CA         3.9630   28.1310   86.3400 C.3    90  LYS90       0.1693
     98  C          3.9360   28.2070   84.8170 C.2    90  LYS90       0.2592
     99  O          3.4330   27.2960   84.1530 O.2    90  LYS90      -0.2718
    100  CB         2.8250   28.9550   86.9480 C.3    90  LYS90       0.0285
    101  CG         2.6010   28.6940   88.4370 C.3    90  LYS90       0.0035
    102  CD         2.0270   29.9100   89.1710 C.3    90  LYS90       0.0206
    103  CE         0.6190   30.2580   88.7010 C.3    90  LYS90       0.1093
    104  NZ         0.0630   31.4400   89.4250 N.3    90  LYS90      -0.1314
    105  N          4.4810   29.2830   84.2430 N.am   91  THR91      -0.1953
    106  CA         4.4590   29.4280   82.7900 C.3    91  THR91       0.1897
    107  C          5.3540   28.3880   82.1270 C.2    91  THR91       0.2313
    108  O          4.9810   27.7950   81.1060 O.2    91  THR91      -0.2863
    109  CB         4.8890   30.8430   82.3870 C.3    91  THR91       0.1794
    110  OG1        4.0560   31.8100   83.0400 O.3    91  THR91      -0.2208
    111  CG2        4.7830   31.0330   80.8790 C.3    91  THR91       0.0378
    112  N          3.5120   25.1880   81.9090 N.3    94  ILE94      -0.1231
    113  CA         2.4330   25.2070   80.9260 C.3    94  ILE94       0.1692
    114  C          2.9880   25.0450   79.5150 C.2    94  ILE94       0.2592
    115  O          2.3860   24.3660   78.6740 O.2    94  ILE94      -0.2718
    116  CB         1.6090   26.5020   81.0730 C.3    94  ILE94       0.0266
    117  CG1        0.8280   26.4950   82.3930 C.3    94  ILE94       0.0019
    118  CG2        0.6610   26.7020   79.8940 C.3    94  ILE94       0.0020
    119  CD1       -0.1880   25.3720   82.5320 C.3    94  ILE94       0.0001
    120  N          4.1460   25.6470   79.2350 N.am   95  PHE95      -0.1976
    121  CA         4.6620   25.7490   77.8750 C.3    95  PHE95       0.1639
    122  C          5.8440   24.8190   77.6000 C.2    95  PHE95       0.2290
    123  O          6.5490   25.0100   76.6040 O.2    95  PHE95      -0.2864
    124  CB         5.0630   27.1970   77.5830 C.3    95  PHE95       0.0560
    125  CG         3.8980   28.1240   77.3570 C.ar   95  PHE95      -0.0200
    126  CD1        2.8510   27.7620   76.5260 C.ar   95  PHE95      -0.0042
    127  CD2        3.8590   29.3690   77.9660 C.ar   95  PHE95      -0.0042
    128  CE1        1.7880   28.6180   76.3110 C.ar   95  PHE95      -0.0003
    129  CE2        2.7970   30.2260   77.7560 C.ar   95  PHE95      -0.0003
    130  CZ         1.7620   29.8500   76.9280 C.ar   95  PHE95      -0.0000
    131  N          2.0430   22.9420   90.0430 N.3   117  TYR117     -0.1241
    132  CA         2.0110   23.1070   88.5920 C.3   117  TYR117      0.1605
    133  C          3.0020   22.1620   87.9210 C.2   117  TYR117      0.2264
    134  O          2.6760   21.4970   86.9310 O.2   117  TYR117     -0.2867
    135  CB         2.3280   24.5550   88.2190 C.3   117  TYR117      0.0534
    136  CG         1.1290   25.4330   87.9490 C.ar  117  TYR117     -0.0201
    137  CD1        0.2450   25.7760   88.9640 C.ar  117  TYR117     -0.0009
    138  CD2        0.9040   25.9540   86.6800 C.ar  117  TYR117     -0.0009
    139  CE1       -0.8430   26.5970   88.7180 C.ar  117  TYR117      0.0417
    140  CE2       -0.1780   26.7760   86.4240 C.ar  117  TYR117      0.0417
    141  CZ        -1.0470   27.0950   87.4450 C.ar  117  TYR117      0.1957
    142  OH        -2.1220   27.9130   87.1870 O.3   117  TYR117     -0.2866
    143  N          1.3190   19.5460   85.4740 N.3   121  LYS121     -0.1245
    144  CA         1.3110   19.9900   84.0860 C.3   121  LYS121      0.1561
    145  C          2.4130   19.3640   83.2440 C.2   121  LYS121      0.2260
    146  O          2.3820   19.5030   82.0160 O.2   121  LYS121     -0.2867
    147  CB         1.4340   21.5180   84.0170 C.3   121  LYS121      0.0271
    148  CG         0.3300   22.2700   84.7530 C.3   121  LYS121      0.0035
    149  CD        -1.0370   21.9360   84.2010 C.3   121  LYS121      0.0206
    150  CE        -2.1250   22.6150   84.9940 C.3   121  LYS121      0.1093
    151  NZ        -3.4770   22.1550   84.5640 N.3   121  LYS121     -0.1314
@<TRIPOS>BOND
     1     7     9   ar
     2     7     6   ar
     3    26    27    2
     4    26    25    1
     5    24    25    1
     6     9    10   ar
     7     2     5    1
     8     2     1    1
     9     2     3    1
    10     5     6    1
    11     6     8   ar
    12    25    28    1
    13     4     3    2
    14    10     8   ar
    15    10    12   ar
    16     3    15   am
    17    28    29    1
    18     8    11   ar
    19    12    14   ar
    20    18    17    2
    21    15    16    1
    22    17    16    1
    23    29    31   ar
    24    29    30   ar
    25    11    13   ar
    26    31    33   ar
    27    16    19    1
    28    14    13   ar
    29    73    72    2
    30    30    32   ar
    31    33    34   ar
    32    19    20    1
    33    72    71    1
    34    32    34   ar
    35    64    63    2
    36    20    21    1
    37    22    21    2
    38    70    71    1
    39    71    74    1
    40    63    62    1
    41   128   126   ar
    42   128   130   ar
    43    21    23   am
    44    74    75    1
    45   126   125   ar
    46   123   122    2
    47    65    62    1
    48    65    66    1
    49   130   129   ar
    50    68    67    2
    51    62    61    1
    52   125   124    1
    53   125   127   ar
    54    67    69   am
    55    67    66    1
    56   124   121    1
    57   122   121    1
    58   129   127   ar
    59    75    76    1
    60    75    77    1
    61   121   120    1
    62    52    51   ar
    63    52    50   ar
    64    51    49   ar
    65    61    55   am
    66   115   114    2
    67    56    55    2
    68    46    45    2
    69    50    48   ar
    70    55    54    1
    71    49    48   ar
    72   120   114   am
    73   114   113    1
    74    48    47    1
    75   118   116    1
    76    45    44    1
    77    53    54    1
    78    54    57    1
    79    44    47    1
    80    44    43    1
    81   111   109    1
    82   113   116    1
    83   113   112    1
    84   116   117    1
    85   108   107    2
    86    38    37    2
    87    57    58    1
    88    58    59    1
    89    58    60    1
    90   146   145    2
    91   107   106    1
    92    43    37   am
    93   109   106    1
    94   109   110    1
    95   117   119    1
    96    37    36    1
    97   106   105    1
    98   145   144    1
    99    36    35    1
   100    36    39    1
   101   147   144    1
   102   147   148    1
   103   144   143    1
   104    99    98    2
   105   149   148    1
   106   149   150    1
   107   105    98   am
   108   151   150    1
   109    39    40    1
   110    98    97    1
   111    95    94    2
   112    87    86    2
   113    94    93    1
   114    40    41   ar
   115    40    42   ar
   116    93    92    1
   117    97    96    1
   118    97   100    1
   119   140   138   ar
   120   140   141   ar
   121   138   136   ar
   122    86    92   am
   123    86    85    1
   124   134   133    2
   125   100   101    1
   126   142   141    1
   127   141   139   ar
   128    88    85    1
   129    88    89    1
   130    85    84    1
   131   133   132    1
   132   136   135    1
   133   136   137   ar
   134   135   132    1
   135    89    91   ar
   136    89    90   ar
   137   101   102    1
   138   132   131    1
   139    83    82    1
   140   103   102    1
   141   103   104    1
   142   139   137   ar
   143    78    79    1
   144    81    80    2
   145    82    79    1
   146    80    79    1
