@<TRIPOS>MOLECULE
tmp/5zbaA00.pdb
 256 256 0 0 0
SMALL
GASTEIGER

@<TRIPOS>ATOM
      1  N        -11.3030   41.8550   15.4360 N.3    67  PHE67      -0.1241
      2  CA       -10.1180   41.0110   15.5400 C.3    67  PHE67       0.1605
      3  C         -9.0670   41.3750   14.4980 C.2    67  PHE67       0.2264
      4  O         -9.3930   41.8680   13.4190 O.2    67  PHE67      -0.2867
      5  CB       -10.5060   39.5370   15.4020 C.3    67  PHE67       0.0534
      6  CG        -9.3930   38.5830   15.7270 C.ar   67  PHE67      -0.0203
      7  CD1       -9.0640   38.3070   17.0420 C.ar   67  PHE67      -0.0042
      8  CD2       -8.6810   37.9570   14.7190 C.ar   67  PHE67      -0.0042
      9  CE1       -8.0410   37.4300   17.3470 C.ar   67  PHE67      -0.0003
     10  CE2       -7.6570   37.0770   15.0180 C.ar   67  PHE67      -0.0003
     11  CZ        -7.3380   36.8140   16.3330 C.ar   67  PHE67      -0.0000
     12  N          1.6870   38.7110   15.5200 N.3    86  LYS86      -0.1231
     13  CA         0.8070   39.3740   16.4810 C.3    86  LYS86       0.1693
     14  C         -0.6550   38.9640   16.3390 C.2    86  LYS86       0.2592
     15  O         -1.0650   38.4310   15.3100 O.2    86  LYS86      -0.2718
     16  CB         0.9350   40.8930   16.3490 C.3    86  LYS86       0.0285
     17  CG         2.1520   41.4650   17.0570 C.3    86  LYS86       0.0035
     18  CD         2.4480   42.8880   16.6240 C.3    86  LYS86       0.0206
     19  CE         3.5820   43.4780   17.4480 C.3    86  LYS86       0.1093
     20  NZ         4.7830   42.5940   17.4580 N.3    86  LYS86      -0.1314
     21  N         -1.4300   39.2170   17.3900 N.am   87  ALA87      -0.1966
     22  CA        -2.8560   38.9090   17.4110 C.3    87  ALA87       0.1728
     23  C         -3.5410   39.6850   18.5300 C.2    87  ALA87       0.2616
     24  O         -3.0850   39.6690   19.6710 O.2    87  ALA87      -0.2715
     25  CB        -3.0790   37.4160   17.5860 C.3    87  ALA87       0.0334
     26  N         -4.6350   40.3640   18.2020 N.am   88  ASP88      -0.1957
     27  CA        -5.3130   41.2100   19.1760 C.3    88  ASP88       0.1840
     28  C         -6.7830   41.4220   18.8190 C.2    88  ASP88       0.2622
     29  O         -7.1860   41.2400   17.6700 O.2    88  ASP88      -0.2715
     30  CB        -4.5940   42.5590   19.2870 C.3    88  ASP88       0.1450
     31  CG        -5.0990   43.3990   20.4440 C.2    88  ASP88       0.3671
     32  OD1       -5.7330   42.8330   21.3590 O.co2  88  ASP88      -0.2456
     33  OD2       -4.8600   44.6240   20.4390 O.co2  88  ASP88      -0.2456
     34  N         -7.5780   41.8000   19.8160 N.am   89  SER89      -0.1950
     35  CA        -8.9930   42.0830   19.6110 C.3    89  SER89       0.1924
     36  C         -9.3490   43.4680   20.1390 C.2    89  SER89       0.2314
     37  O         -8.5370   44.1160   20.7990 O.2    89  SER89      -0.2863
     38  CB        -9.8610   41.0250   20.2940 C.3    89  SER89       0.2116
     39  OG        -9.7240   41.0880   21.7030 O.3    89  SER89      -0.2180
     40  N        -22.0690   33.0700   21.5950 N.3   101  LYS101     -0.1231
     41  CA       -21.2910   32.6470   22.7600 C.3   101  LYS101      0.1693
     42  C        -20.3590   31.4790   22.4440 C.2   101  LYS101      0.2592
     43  O        -20.2130   30.5550   23.2460 O.2   101  LYS101     -0.2718
     44  CB       -22.2230   32.2750   23.9180 C.3   101  LYS101      0.0285
     45  CG       -23.1290   33.4110   24.3730 C.3   101  LYS101      0.0035
     46  CD       -22.4380   34.4670   25.1620 C.3   101  LYS101      0.0206
     47  CE       -23.2980   35.4900   25.9220 C.3   101  LYS101      0.1093
     48  NZ       -23.8000   36.5090   24.9520 N.3   101  LYS101     -0.1314
     49  N        -19.7350   31.5270   21.2720 N.am  102  VAL102     -0.1966
     50  CA       -18.7790   30.5050   20.8630 C.3   102  VAL102      0.1727
     51  C        -17.3650   31.0750   20.9220 C.2   102  VAL102      0.2617
     52  O        -17.1840   32.2920   20.9630 O.2   102  VAL102     -0.2715
     53  CB       -19.0680   29.9900   19.4340 C.3   102  VAL102      0.0290
     54  CG1      -18.4600   28.6090   19.2230 C.3   102  VAL102      0.0023
     55  CG2      -20.5620   29.9420   19.1830 C.3   102  VAL102      0.0023
     56  N        -16.3650   30.2000   20.9380 N.am  103  SER103     -0.1936
     57  CA       -14.9790   30.6350   20.8330 C.3   103  SER103      0.2055
     58  C        -14.6930   31.1070   19.4100 C.2   103  SER103      0.2643
     59  O        -13.9710   30.4510   18.6590 O.2   103  SER103     -0.2714
     60  CB       -14.0240   29.5070   21.2260 C.3   103  SER103      0.2130
     61  OG       -14.2320   28.3600   20.4220 O.3   103  SER103     -0.2179
     62  N        -15.2640   32.2530   19.0520 N.am  104  LEU104     -0.1963
     63  CA       -15.2420   32.7440   17.6780 C.3   104  LEU104      0.1728
     64  C        -13.8390   33.0720   17.1790 C.2   104  LEU104      0.2616
     65  O        -13.4240   32.5950   16.1230 O.2   104  LEU104     -0.2715
     66  CB       -16.1330   33.9800   17.5510 C.3   104  LEU104      0.0311
     67  CG       -16.3910   34.4730   16.1280 C.3   104  LEU104      0.0022
     68  CD1      -17.0970   33.3970   15.3230 C.3   104  LEU104      0.0001
     69  CD2      -17.2050   35.7560   16.1390 C.3   104  LEU104      0.0001
     70  N        -13.1180   33.8910   17.9380 N.am  105  LEU105     -0.1963
     71  CA       -11.7800   34.3250   17.5490 C.3   105  LEU105      0.1728
     72  C        -10.8320   33.1390   17.3950 C.2   105  LEU105      0.2616
     73  O         -9.9460   33.1430   16.5370 O.2   105  LEU105     -0.2715
     74  CB       -11.2240   35.3190   18.5700 C.3   105  LEU105      0.0311
     75  CG       -12.1040   36.5380   18.8510 C.3   105  LEU105      0.0022
     76  CD1      -11.4020   37.5100   19.7870 C.3   105  LEU105      0.0001
     77  CD2      -12.4990   37.2260   17.5560 C.3   105  LEU105      0.0001
     78  N        -11.0330   32.1240   18.2290 N.am  106  ARG106     -0.1977
     79  CA       -10.2590   30.8930   18.1460 C.3   106  ARG106      0.1597
     80  C        -10.4950   30.2070   16.8040 C.2   106  ARG106      0.2287
     81  O         -9.5550   29.7370   16.1560 O.2   106  ARG106     -0.2864
     82  CB       -10.6240   29.9530   19.2970 C.3   106  ARG106      0.0334
     83  CG        -9.8460   28.6510   19.3060 C.3   106  ARG106      0.0492
     84  CD       -10.0940   27.8640   20.5820 C.3   106  ARG106      0.2205
     85  NE       -11.4580   27.3520   20.6620 N.pl3 106  ARG106     -0.0865
     86  CZ       -11.9580   26.7250   21.7230 C.cat 106  ARG106      0.5346
     87  NH1      -11.2060   26.5370   22.7990 N.pl3 106  ARG106      0.1354
     88  NH2      -13.2100   26.2900   21.7100 N.pl3 106  ARG106      0.1354
     89  N          5.0660   30.2230   16.9580 N.3   131  LEU131     -0.1231
     90  CA         4.4900   31.4110   17.5780 C.3   131  LEU131      0.1693
     91  C          4.9570   31.5770   19.0220 C.2   131  LEU131      0.2592
     92  O          5.3520   30.6120   19.6870 O.2   131  LEU131     -0.2718
     93  CB         2.9590   31.3670   17.5190 C.3   131  LEU131      0.0284
     94  CG         2.1910   30.3760   18.3950 C.3   131  LEU131      0.0019
     95  CD1        1.7540   31.0130   19.7080 C.3   131  LEU131      0.0001
     96  CD2        0.9900   29.8460   17.6390 C.3   131  LEU131      0.0001
     97  N          4.8910   32.8190   19.4900 N.am  132  PHE132     -0.1962
     98  CA         5.3260   33.1930   20.8280 C.3   132  PHE132      0.1771
     99  C          4.1590   33.7850   21.6120 C.2   132  PHE132      0.2619
    100  O          3.7580   34.9240   21.3770 O.2   132  PHE132     -0.2715
    101  CB         6.4830   34.1920   20.7400 C.3   132  PHE132      0.0574
    102  CG         6.9260   34.7350   22.0670 C.ar  132  PHE132     -0.0200
    103  CD1        7.8210   34.0340   22.8520 C.ar  132  PHE132     -0.0042
    104  CD2        6.4600   35.9560   22.5220 C.ar  132  PHE132     -0.0042
    105  CE1        8.2360   34.5360   24.0660 C.ar  132  PHE132     -0.0003
    106  CE2        6.8700   36.4610   23.7370 C.ar  132  PHE132     -0.0003
    107  CZ         7.7570   35.7490   24.5100 C.ar  132  PHE132     -0.0000
    108  N          3.6130   33.0060   22.5400 N.am  133  ALA133     -0.1963
    109  CA         2.4410   33.4270   23.2990 C.3   133  ALA133      0.1728
    110  C          2.8200   34.2050   24.5550 C.2   133  ALA133      0.2616
    111  O          3.3400   33.6380   25.5160 O.2   133  ALA133     -0.2715
    112  CB         1.5930   32.2180   23.6680 C.3   133  ALA133      0.0334
    113  N          2.5600   35.5090   24.5360 N.am  134  ARG134     -0.1963
    114  CA         2.7720   36.3520   25.7060 C.3   134  ARG134      0.1729
    115  C          1.5330   37.1950   25.9810 C.2   134  ARG134      0.2616
    116  O          1.1080   37.9830   25.1390 O.2   134  ARG134     -0.2715
    117  CB         3.9910   37.2540   25.5200 C.3   134  ARG134      0.0348
    118  CG         4.2610   38.1620   26.7070 C.3   134  ARG134      0.0492
    119  CD         5.5310   38.9710   26.5240 C.3   134  ARG134      0.2205
    120  NE         5.7720   39.8550   27.6610 N.pl3 134  ARG134     -0.0865
    121  CZ         6.8350   40.6410   27.7840 C.cat 134  ARG134      0.5346
    122  NH1        7.7640   40.6560   26.8380 N.pl3 134  ARG134      0.1354
    123  NH2        6.9710   41.4130   28.8530 N.pl3 134  ARG134      0.1354
    124  N          0.9590   37.0230   27.1660 N.am  135  ALA135     -0.1963
    125  CA        -0.2750   37.7100   27.5240 C.3   135  ALA135      0.1728
    126  C         -0.0270   39.1480   27.9580 C.2   135  ALA135      0.2616
    127  O          0.4370   39.4010   29.0700 O.2   135  ALA135     -0.2715
    128  CB        -0.9990   36.9480   28.6220 C.3   135  ALA135      0.0334
    129  N         -0.3360   40.0880   27.0720 N.am  136  GLN136     -0.1963
    130  CA        -0.2780   41.5050   27.4070 C.3   136  GLN136      0.1733
    131  C         -1.5620   42.1950   26.9550 C.2   136  GLN136      0.2616
    132  O         -2.3320   41.6320   26.1760 O.2   136  GLN136     -0.2715
    133  CB         0.9530   42.1620   26.7800 C.3   136  GLN136      0.0408
    134  CG         2.2670   41.6310   27.3410 C.3   136  GLN136      0.0908
    135  CD         3.4770   42.3960   26.8470 C.2   136  GLN136      0.2608
    136  OE1        4.0010   42.1220   25.7680 O.2   136  GLN136     -0.2717
    137  NE2        3.9330   43.3570   27.6420 N.am  136  GLN136     -0.0878
    138  N         -1.7880   43.4090   27.4490 N.am  137  ASN137     -0.1958
    139  CA        -3.0630   44.1000   27.2650 C.3   137  ASN137      0.1819
    140  C         -3.4600   44.3100   25.8050 C.2   137  ASN137      0.2621
    141  O         -4.4310   43.7190   25.3330 O.2   137  ASN137     -0.2715
    142  CB        -3.0330   45.4480   27.9840 C.3   137  ASN137      0.1195
    143  CG        -2.8870   45.3020   29.4860 C.2   137  ASN137      0.2630
    144  OD1       -3.8650   45.0690   30.1970 O.2   137  ASN137     -0.2716
    145  ND2       -1.6610   45.4390   29.9780 N.am  137  ASN137     -0.0877
    146  N         -2.7190   45.1510   25.0940 N.am  138  GLN138     -0.1963
    147  CA        -3.0480   45.4420   23.7030 C.3   138  GLN138      0.1733
    148  C         -1.8150   45.4270   22.8050 C.2   138  GLN138      0.2616
    149  O         -0.7540   45.9240   23.1760 O.2   138  GLN138     -0.2715
    150  CB        -3.7620   46.7900   23.5970 C.3   138  GLN138      0.0408
    151  CG        -3.0260   47.9440   24.2500 C.3   138  GLN138      0.0908
    152  CD        -3.8560   49.2100   24.2860 C.2   138  GLN138      0.2608
    153  OE1       -5.0460   49.1950   23.9710 O.2   138  GLN138     -0.2717
    154  NE2       -3.2310   50.3170   24.6730 N.am  138  GLN138     -0.0878
    155  N         -1.9720   44.8500   21.6180 N.am  139  TYR139     -0.1974
    156  CA        -0.8740   44.7220   20.6670 C.3   139  TYR139      0.1639
    157  C         -1.1030   45.5470   19.4050 C.2   139  TYR139      0.2290
    158  O         -0.1920   46.2150   18.9140 O.2   139  TYR139     -0.2864
    159  CB        -0.6730   43.2540   20.2850 C.3   139  TYR139      0.0560
    160  CG         0.1810   42.4660   21.2510 C.ar  139  TYR139     -0.0198
    161  CD1       -0.0070   41.1000   21.4160 C.ar  139  TYR139     -0.0009
    162  CD2        1.1830   43.0820   21.9860 C.ar  139  TYR139     -0.0009
    163  CE1        0.7730   40.3720   22.2900 C.ar  139  TYR139      0.0417
    164  CE2        1.9700   42.3610   22.8640 C.ar  139  TYR139      0.0417
    165  CZ         1.7600   41.0070   23.0120 C.ar  139  TYR139      0.1957
    166  OH         2.5390   40.2830   23.8840 O.3   139  TYR139     -0.2866
    167  N        -15.6600   45.4570   27.7080 N.3   149  GLU149     -0.1231
    168  CA       -16.1160   44.1890   27.1500 C.3   149  GLU149      0.1699
    169  C        -14.9840   43.3930   26.5060 C.2   149  GLU149      0.2592
    170  O        -15.2090   42.3090   25.9690 O.2   149  GLU149     -0.2718
    171  CB       -17.2290   44.4300   26.1290 C.3   149  GLU149      0.0402
    172  CG       -18.5270   44.9330   26.7430 C.3   149  GLU149      0.1161
    173  CD       -19.1240   43.9520   27.7380 C.2   149  GLU149      0.3649
    174  OE1      -19.0020   42.7280   27.5180 O.co2 149  GLU149     -0.2457
    175  OE2      -19.7110   44.4050   28.7420 O.co2 149  GLU149     -0.2457
    176  N        -13.7700   43.9300   26.5620 N.am  150  LYS150     -0.1966
    177  CA       -12.6100   43.2200   26.0380 C.3   150  LYS150      0.1728
    178  C        -12.1130   42.1940   27.0480 C.2   150  LYS150      0.2616
    179  O        -11.7110   42.5430   28.1570 O.2   150  LYS150     -0.2715
    180  CB       -11.4890   44.1960   25.6790 C.3   150  LYS150      0.0311
    181  CG       -10.2580   43.5250   25.0890 C.3   150  LYS150      0.0038
    182  CD        -9.2210   44.5460   24.6550 C.3   150  LYS150      0.0206
    183  CE        -8.0090   43.8690   24.0380 C.3   150  LYS150      0.1093
    184  NZ        -7.0070   44.8580   23.5540 N.3   150  LYS150     -0.1314
    185  N        -12.1470   40.9260   26.6560 N.am  151  HIS151     -0.1959
    186  CA       -11.7360   39.8380   27.5350 C.3   151  HIS151      0.1787
    187  C        -10.2700   39.4750   27.3240 C.2   151  HIS151      0.2620
    188  O         -9.9490   38.6160   26.5060 O.2   151  HIS151     -0.2715
    189  CB       -12.6200   38.6090   27.3080 C.3   151  HIS151      0.0785
    190  CG       -12.2740   37.4440   28.1810 C.ar  151  HIS151      0.0821
    191  ND1      -12.1350   37.5530   29.5490 N.ar  151  HIS151     -0.2267
    192  CD2      -12.0440   36.1430   27.8840 C.ar  151  HIS151      0.1154
    193  CE1      -11.8320   36.3720   30.0540 C.ar  151  HIS151      0.1986
    194  NE2      -11.7720   35.4980   29.0650 N.ar  151  HIS151     -0.2212
    195  N         -9.3840   40.1320   28.0660 N.am  152  VAL152     -0.1963
    196  CA        -7.9550   39.8640   27.9570 C.3   152  VAL152      0.1727
    197  C         -7.5430   38.6960   28.8460 C.2   152  VAL152      0.2616
    198  O         -7.6230   38.7770   30.0710 O.2   152  VAL152     -0.2715
    199  CB        -7.1160   41.1000   28.3330 C.3   152  VAL152      0.0290
    200  CG1       -5.6330   40.7710   28.2730 C.3   152  VAL152      0.0023
    201  CG2       -7.4450   42.2640   27.4120 C.3   152  VAL152      0.0023
    202  N         -7.1020   37.6100   28.2200 N.am  153  LEU153     -0.1977
    203  CA        -6.6930   36.4150   28.9480 C.3   153  LEU153      0.1596
    204  C         -5.4280   36.6570   29.7650 C.2   153  LEU153      0.2287
    205  O         -4.7300   37.6520   29.5700 O.2   153  LEU153     -0.2864
    206  CB        -6.4640   35.2510   27.9810 C.3   153  LEU153      0.0297
    207  CG        -7.6200   34.8550   27.0620 C.3   153  LEU153      0.0022
    208  CD1       -7.2200   33.6900   26.1710 C.3   153  LEU153      0.0001
    209  CD2       -8.8560   34.5090   27.8710 C.3   153  LEU153      0.0001
    210  N         -3.9290   32.1360   27.9460 N.3   158  LEU158     -0.1245
    211  CA        -3.5170   32.4130   26.5750 C.3   158  LEU158      0.1561
    212  C         -2.7400   31.2490   25.9760 C.2   158  LEU158      0.2260
    213  O         -2.9400   30.8980   24.8120 O.2   158  LEU158     -0.2867
    214  CB        -2.6730   33.6850   26.5060 C.3   158  LEU158      0.0270
    215  CG        -2.2020   34.0470   25.0970 C.3   158  LEU158      0.0019
    216  CD1       -3.3840   34.4050   24.2090 C.3   158  LEU158      0.0001
    217  CD2       -1.1950   35.1780   25.1410 C.3   158  LEU158      0.0001
    218  N         -5.0500   28.6400   25.2230 N.3   161  TRP161     -0.1227
    219  CA        -5.8490   29.1060   24.0960 C.3   161  TRP161      0.1737
    220  C         -5.1640   28.8150   22.7670 C.2   161  TRP161      0.2595
    221  O         -5.7690   28.2240   21.8750 O.2   161  TRP161     -0.2718
    222  CB        -6.1310   30.6040   24.2220 C.3   161  TRP161      0.0564
    223  CG        -7.0540   31.1330   23.1700 C.ar  161  TRP161      0.0003
    224  CD1       -8.4160   31.0590   23.1630 C.ar  161  TRP161      0.0946
    225  CD2       -6.6830   31.8250   21.9730 C.ar  161  TRP161      0.0152
    226  NE1       -8.9160   31.6590   22.0340 N.ar  161  TRP161     -0.2442
    227  CE2       -7.8720   32.1380   21.2860 C.ar  161  TRP161      0.0810
    228  CE3       -5.4610   32.2100   21.4140 C.ar  161  TRP161      0.0012
    229  CZ2       -7.8760   32.8160   20.0710 C.ar  161  TRP161      0.0191
    230  CZ3       -5.4670   32.8830   20.2070 C.ar  161  TRP161      0.0001
    231  CH2       -6.6660   33.1790   19.5490 C.ar  161  TRP161      0.0015
    232  N         -3.9060   29.2270   22.6370 N.am  162  TRP162     -0.1976
    233  CA        -3.1480   28.9770   21.4140 C.3   162  TRP162      0.1640
    234  C         -2.9890   27.4840   21.1560 C.2   162  TRP162      0.2290
    235  O         -3.0580   27.0310   20.0080 O.2   162  TRP162     -0.2864
    236  CB        -1.7730   29.6430   21.4790 C.3   162  TRP162      0.0576
    237  CG        -1.7760   31.0710   21.0300 C.ar  162  TRP162      0.0006
    238  CD1       -1.5440   32.1730   21.7990 C.ar  162  TRP162      0.0946
    239  CD2       -2.0280   31.5520   19.7050 C.ar  162  TRP162      0.0152
    240  NE1       -1.6320   33.3100   21.0340 N.ar  162  TRP162     -0.2442
    241  CE2       -1.9300   32.9560   19.7450 C.ar  162  TRP162      0.0810
    242  CE3       -2.3280   30.9310   18.4890 C.ar  162  TRP162      0.0012
    243  CZ2       -2.1190   33.7490   18.6160 C.ar  162  TRP162      0.0191
    244  CZ3       -2.5150   31.7200   17.3700 C.ar  162  TRP162      0.0001
    245  CH2       -2.4110   33.1140   17.4410 C.ar  162  TRP162      0.0015
    246  N         -5.1070   25.1760   22.0290 N.3   164  ARG164     -0.1245
    247  CA        -6.4050   24.7430   21.5230 C.3   164  ARG164      0.1563
    248  C         -6.6160   25.1910   20.0790 C.2   164  ARG164      0.2260
    249  O         -7.3210   24.5340   19.3140 O.2   164  ARG164     -0.2867
    250  CB        -7.5340   25.2750   22.4080 C.3   164  ARG164      0.0307
    251  CG        -7.6400   24.5910   23.7610 C.3   164  ARG164      0.0489
    252  CD        -8.7400   25.2120   24.6060 C.3   164  ARG164      0.2205
    253  NE        -8.4960   26.6290   24.8640 N.pl3 164  ARG164     -0.0865
    254  CZ        -9.3060   27.4110   25.5690 C.cat 164  ARG164      0.5346
    255  NH1       -9.0040   28.6890   25.7530 N.pl3 164  ARG164      0.1354
    256  NH2      -10.4190   26.9160   26.0920 N.pl3 164  ARG164      0.1354
@<TRIPOS>BOND
     1     4     3    2
     2     3     2    1
     3     8    10   ar
     4     8     6   ar
     5    10    11   ar
     6    15    14    2
     7    68    67    1
     8     5     2    1
     9     5     6    1
    10     1     2    1
    11    12    13    1
    12     6     7   ar
    13    65    64    2
    14    67    69    1
    15    67    66    1
    16    81    80    2
    17    11     9   ar
    18    14    13    1
    19    14    21   am
    20    16    13    1
    21    16    17    1
    22    73    72    2
    23    18    17    1
    24    18    19    1
    25    80    79    1
    26    89    90    1
    27     7     9   ar
    28    64    63    1
    29    64    70   am
    30   244   245   ar
    31   244   242   ar
    32    21    22    1
    33    72    71    1
    34    72    78   am
    35    22    25    1
    36    22    23    1
    37   245   243   ar
    38    19    20    1
    39    93    90    1
    40    93    94    1
    41    71    70    1
    42    71    74    1
    43    66    63    1
    44    77    75    1
    45    90    91    1
    46    96    94    1
    47    29    28    2
    48    63    62    1
    49    79    78    1
    50    79    82    1
    51    26    23   am
    52    26    27    1
    53    94    95    1
    54   242   239   ar
    55    23    24    2
    56    74    75    1
    57   243   241   ar
    58    59    58    2
    59    28    27    1
    60    28    34   am
    61    75    76    1
    62   158   157    2
    63    91    97   am
    64    91    92    2
    65    62    58   am
    66    27    30    1
    67    55    53    1
    68    54    53    1
    69    30    31    1
    70    82    83    1
    71    83    84    1
    72   249   248    2
    73   157   156    1
    74    58    57    1
    75    53    50    1
    76    97    98    1
    77   231   229   ar
    78   231   230   ar
    79    35    34    1
    80    35    36    1
    81    35    38    1
    82   239   241   ar
    83   239   237   ar
    84   241   240   ar
    85   235   234    2
    86   229   227   ar
    87   248   247    1
    88    36    37    2
    89   230   228   ar
    90   159   156    1
    91   159   160    1
    92    38    39    1
    93    61    60    1
    94    33    31   ar
    95    31    32   ar
    96    84    85    1
    97    85    86    2
    98   156   155    1
    99   101    98    1
   100   101   102    1
   101    98    99    1
   102    57    56    1
   103    57    60    1
   104    50    51    1
   105    50    49    1
   106    51    56   am
   107    51    52    2
   108   237   236    1
   109   237   238   ar
   110   240   238   ar
   111   234   233    1
   112   160   161   ar
   113   160   162   ar
   114    49    42   am
   115   227   225   ar
   116   227   226   ar
   117   100    99    2
   118   233   236    1
   119   233   232    1
   120   228   225   ar
   121   161   163   ar
   122   247   246    1
   123   247   250    1
   124    40    41    1
   125    99   108   am
   126   155   148   am
   127    88    86    1
   128    86    87    1
   129   221   220    2
   130   225   223   ar
   131   162   164   ar
   132   226   224   ar
   133   102   104   ar
   134   102   103   ar
   135   163   165   ar
   136   250   251    1
   137    42    41    1
   138    42    43    2
   139   104   106   ar
   140   108   109    1
   141   232   220   am
   142    41    44    1
   143   220   219    1
   144   148   149    2
   145   148   147    1
   146   103   105   ar
   147   164   165   ar
   148   165   166    1
   149   224   223   ar
   150   223   222    1
   151   109   112    1
   152   109   110    1
   153   184   183    1
   154   150   147    1
   155   150   151    1
   156   147   146    1
   157   106   107   ar
   158   251   252    1
   159    44    45    1
   160   153   152    2
   161   183   182    1
   162   105   107   ar
   163   219   222    1
   164   219   218    1
   165   216   215    1
   166   151   152    1
   167   152   154   am
   168    45    46    1
   169   113   110   am
   170   113   114    1
   171   110   111    2
   172   252   253    1
   173   182   181    1
   174   213   212    2
   175   253   254    2
   176    48    47    1
   177   181   180    1
   178   146   140   am
   179   215   217    1
   180   215   214    1
   181   116   115    2
   182    46    47    1
   183   141   140    2
   184   117   114    1
   185   117   118    1
   186   254   255    1
   187   254   256    1
   188   180   177    1
   189   114   115    1
   190   136   135    2
   191   140   139    1
   192   170   169    2
   193   212   211    1
   194   115   124   am
   195   177   176    1
   196   177   178    1
   197   171   172    1
   198   171   168    1
   199   208   207    1
   200   132   131    2
   201   169   176   am
   202   169   168    1
   203   214   211    1
   204   188   187    2
   205   119   118    1
   206   119   120    1
   207   211   210    1
   208   185   178   am
   209   185   186    1
   210   172   173    1
   211   133   134    1
   212   133   130    1
   213   122   121    1
   214   135   134    1
   215   135   137   am
   216   131   130    1
   217   131   138   am
   218   178   179    2
   219   207   209    1
   220   207   206    1
   221   129   130    1
   222   129   126   am
   223   168   167    1
   224   124   125    1
   225   139   138    1
   226   139   142    1
   227   189   186    1
   228   189   190    1
   229   187   186    1
   230   187   195   am
   231   201   199    1
   232   174   173   ar
   233   125   126    1
   234   125   128    1
   235   120   121    2
   236   173   175   ar
   237   121   123    1
   238   192   190   ar
   239   192   194   ar
   240   196   195    1
   241   196   199    1
   242   196   197    1
   243   126   127    2
   244   206   203    1
   245   142   143    1
   246   190   191   ar
   247   202   197   am
   248   202   203    1
   249   200   199    1
   250   197   198    2
   251   203   204    1
   252   194   193   ar
   253   143   145   am
   254   143   144    2
   255   191   193   ar
   256   205   204    2
