@<TRIPOS>MOLECULE
tmp/5zbbA00.pdb
 123 120 0 0 0
SMALL
GASTEIGER

@<TRIPOS>ATOM
      1  N        -11.2520   41.9850   15.4070 N.3    67  PHE67      -0.1241
      2  CA       -10.0730   41.1370   15.5400 C.3    67  PHE67       0.1605
      3  C         -9.0280   41.4530   14.4830 C.2    67  PHE67       0.2264
      4  O         -9.3580   41.9030   13.3810 O.2    67  PHE67      -0.2867
      5  CB       -10.4860   39.6640   15.4620 C.3    67  PHE67       0.0534
      6  CG        -9.3740   38.6970   15.7550 C.ar   67  PHE67      -0.0203
      7  CD1       -8.9540   38.4780   17.0520 C.ar   67  PHE67      -0.0042
      8  CD2       -8.7660   37.9890   14.7330 C.ar   67  PHE67      -0.0042
      9  CE1       -7.9420   37.5850   17.3230 C.ar   67  PHE67      -0.0003
     10  CE2       -7.7500   37.0930   14.9980 C.ar   67  PHE67      -0.0003
     11  CZ        -7.3390   36.8910   16.2950 C.ar   67  PHE67      -0.0000
     12  N         -1.3330   39.3680   17.4920 N.3    87  ALA87      -0.1231
     13  CA        -2.7620   39.1630   17.3120 C.3    87  ALA87       0.1694
     14  C         -3.5120   39.8360   18.4500 C.2    87  ALA87       0.2592
     15  O         -3.2250   39.5930   19.6200 O.2    87  ALA87      -0.2718
     16  CB        -3.0870   37.6890   17.2490 C.3    87  ALA87       0.0304
     17  N         -4.4650   40.6910   18.1070 N.am   88  ASP88      -0.1960
     18  CA        -5.1850   41.4410   19.1220 C.3    88  ASP88       0.1840
     19  C         -6.6700   41.5720   18.8030 C.2    88  ASP88       0.2622
     20  O         -7.1050   41.3120   17.6750 O.2    88  ASP88      -0.2715
     21  CB        -4.5650   42.8290   19.2850 C.3    88  ASP88       0.1450
     22  CG        -4.8030   43.4130   20.6620 C.2    88  ASP88       0.3671
     23  OD1       -4.5810   42.6910   21.6600 O.co2  88  ASP88      -0.2456
     24  OD2       -5.2160   44.5900   20.7440 O.co2  88  ASP88      -0.2456
     25  N         -7.4410   41.9770   19.8090 N.am   89  SER89      -0.1950
     26  CA        -8.8700   42.2070   19.6470 C.3    89  SER89       0.1924
     27  C         -9.2700   43.5580   20.2310 C.2    89  SER89       0.2314
     28  O         -8.5150   44.1550   20.9960 O.2    89  SER89      -0.2863
     29  CB        -9.6730   41.0830   20.3050 C.3    89  SER89       0.2116
     30  OG        -9.2090   40.8170   21.6160 O.3    89  SER89      -0.2180
     31  N        -13.0880   34.0410   17.8650 N.3   105  LEU105     -0.1245
     32  CA       -11.7170   34.4210   17.5550 C.3   105  LEU105      0.1561
     33  C        -10.8400   33.1880   17.3570 C.2   105  LEU105      0.2260
     34  O         -9.9520   33.1810   16.5000 O.2   105  LEU105     -0.2867
     35  CB       -11.1460   35.3150   18.6590 C.3   105  LEU105      0.0270
     36  CG       -11.9160   36.6080   18.9360 C.3   105  LEU105      0.0019
     37  CD1      -11.1420   37.5020   19.8880 C.3   105  LEU105      0.0001
     38  CD2      -12.2370   37.3460   17.6470 C.3   105  LEU105      0.0001
     39  N         -0.4630   40.2900   27.1520 N.3   136  GLN136     -0.1231
     40  CA        -0.3200   41.7140   27.4220 C.3   136  GLN136      0.1698
     41  C         -1.5690   42.4560   26.9610 C.2   136  GLN136      0.2592
     42  O         -2.3200   41.9610   26.1230 O.2   136  GLN136     -0.2718
     43  CB         0.9340   42.2690   26.7500 C.3   136  GLN136      0.0381
     44  CG         2.1300   42.3120   27.6860 C.3   136  GLN136      0.0905
     45  CD         3.4520   42.3820   26.9600 C.2   136  GLN136      0.2608
     46  OE1        3.5650   41.9590   25.8110 O.2   136  GLN136     -0.2717
     47  NE2        4.4650   42.9160   27.6300 N.am  136  GLN136     -0.0878
     48  N         -1.7790   43.6440   27.5180 N.am  137  ASN137     -0.1974
     49  CA        -3.0270   44.3850   27.3500 C.3   137  ASN137      0.1688
     50  C         -3.4660   44.6310   25.9070 C.2   137  ASN137      0.2292
     51  O         -4.6040   44.3360   25.5410 O.2   137  ASN137     -0.2864
     52  CB        -2.9180   45.7230   28.0730 C.3   137  ASN137      0.1181
     53  CG        -2.8710   45.5620   29.5720 C.2   137  ASN137      0.2629
     54  OD1       -3.5090   44.6680   30.1300 O.2   137  ASN137     -0.2716
     55  ND2       -2.1090   46.4230   30.2370 N.am  137  ASN137     -0.0877
     56  N         -1.9000   44.8380   21.6070 N.3   139  TYR139     -0.1241
     57  CA        -0.8020   44.6840   20.6680 C.3   139  TYR139      0.1605
     58  C         -0.9950   45.5310   19.4260 C.2   139  TYR139      0.2264
     59  O         -0.0580   46.1740   18.9530 O.2   139  TYR139     -0.2867
     60  CB        -0.6500   43.2220   20.2650 C.3   139  TYR139      0.0534
     61  CG         0.1790   42.4050   21.2180 C.ar  139  TYR139     -0.0201
     62  CD1       -0.1690   41.0990   21.5200 C.ar  139  TYR139     -0.0009
     63  CD2        1.3190   42.9320   21.8020 C.ar  139  TYR139     -0.0009
     64  CE1        0.5890   40.3420   22.3830 C.ar  139  TYR139      0.0417
     65  CE2        2.0860   42.1810   22.6690 C.ar  139  TYR139      0.0417
     66  CZ         1.7160   40.8860   22.9540 C.ar  139  TYR139      0.1957
     67  OH         2.4700   40.1290   23.8180 O.3   139  TYR139     -0.2866
     68  N        -13.4590   44.4560   26.3900 N.3   150  LYS150     -0.1231
     69  CA       -12.2780   43.7030   25.9930 C.3   150  LYS150      0.1693
     70  C        -11.7120   42.9430   27.1840 C.2   150  LYS150      0.2592
     71  O        -11.2950   43.5480   28.1700 O.2   150  LYS150     -0.2718
     72  CB       -11.2050   44.6200   25.4040 C.3   150  LYS150      0.0285
     73  CG        -9.8950   43.8970   25.1290 C.3   150  LYS150      0.0035
     74  CD        -8.9400   44.7210   24.2890 C.3   150  LYS150      0.0206
     75  CE        -7.6310   43.9790   24.0820 C.3   150  LYS150      0.1093
     76  NZ        -6.6900   44.7350   23.2120 N.3   150  LYS150     -0.1314
     77  N        -11.6980   41.6180   27.0930 N.am  151  HIS151     -0.1962
     78  CA       -11.1650   40.7930   28.1710 C.3   151  HIS151      0.1787
     79  C         -9.9130   40.0390   27.7480 C.2   151  HIS151      0.2620
     80  O         -9.9900   39.0010   27.0930 O.2   151  HIS151     -0.2715
     81  CB       -12.2240   39.8100   28.6610 C.3   151  HIS151      0.0785
     82  CG       -13.4280   40.4750   29.2490 C.ar  151  HIS151      0.0821
     83  ND1      -13.4100   41.7770   29.6990 N.ar  151  HIS151     -0.2267
     84  CD2      -14.6890   40.0230   29.4510 C.ar  151  HIS151      0.1154
     85  CE1      -14.6060   42.0980   30.1590 C.ar  151  HIS151      0.1986
     86  NE2      -15.4000   41.0520   30.0190 N.ar  151  HIS151     -0.2212
     87  N         -8.7590   40.5730   28.1310 N.am  152  VAL152     -0.1963
     88  CA        -7.4860   39.9380   27.8250 C.3   152  VAL152      0.1727
     89  C         -7.2080   38.7940   28.7880 C.2   152  VAL152      0.2616
     90  O         -7.2510   38.9680   30.0050 O.2   152  VAL152     -0.2715
     91  CB        -6.3150   40.9350   27.8950 C.3   152  VAL152      0.0290
     92  CG1       -5.0660   40.3270   27.2520 C.3   152  VAL152      0.0023
     93  CG2       -6.6880   42.2470   27.2240 C.3   152  VAL152      0.0023
     94  N         -6.9160   37.6250   28.2310 N.am  153  LEU153     -0.1977
     95  CA        -6.5870   36.4540   29.0300 C.3   153  LEU153      0.1596
     96  C         -5.2830   36.6530   29.8000 C.2   153  LEU153      0.2287
     97  O         -4.4410   37.4600   29.4100 O.2   153  LEU153     -0.2864
     98  CB        -6.4810   35.2210   28.1330 C.3   153  LEU153      0.0297
     99  CG        -7.5990   35.0770   27.1000 C.3   153  LEU153      0.0022
    100  CD1       -7.3880   33.8410   26.2410 C.3   153  LEU153      0.0001
    101  CD2       -8.9580   35.0360   27.7820 C.3   153  LEU153      0.0001
    102  N         -3.8280   32.5450   27.7840 N.3   158  LEU158     -0.1245
    103  CA        -3.3860   32.7720   26.4150 C.3   158  LEU158      0.1561
    104  C         -2.5930   31.5890   25.8650 C.2   158  LEU158      0.2260
    105  O         -2.7250   31.2440   24.6840 O.2   158  LEU158     -0.2867
    106  CB        -2.5480   34.0430   26.3280 C.3   158  LEU158      0.0270
    107  CG        -2.1690   34.4560   24.9080 C.3   158  LEU158      0.0019
    108  CD1       -3.4110   34.5740   24.0440 C.3   158  LEU158      0.0001
    109  CD2       -1.4000   35.7640   24.9140 C.3   158  LEU158      0.0001
    110  N         -5.0420   28.8960   25.1430 N.3   161  TRP161     -0.1241
    111  CA        -5.7960   29.3570   23.9840 C.3   161  TRP161      0.1605
    112  C         -5.0540   29.0700   22.6810 C.2   161  TRP161      0.2264
    113  O         -5.6240   28.4930   21.7540 O.2   161  TRP161     -0.2867
    114  CB        -6.0930   30.8520   24.1040 C.3   161  TRP161      0.0550
    115  CG        -6.9600   31.3950   23.0100 C.ar  161  TRP161      0.0003
    116  CD1       -8.3210   31.4260   22.9850 C.ar  161  TRP161      0.0946
    117  CD2       -6.5240   31.9940   21.7880 C.ar  161  TRP161      0.0152
    118  NE1       -8.7620   32.0030   21.8220 N.ar  161  TRP161     -0.2442
    119  CE2       -7.6750   32.3620   21.0690 C.ar  161  TRP161      0.0810
    120  CE3       -5.2690   32.2530   21.2300 C.ar  161  TRP161      0.0012
    121  CZ2       -7.6140   32.9750   19.8230 C.ar  161  TRP161      0.0191
    122  CZ3       -5.2080   32.8630   19.9910 C.ar  161  TRP161      0.0001
    123  CH2       -6.3730   33.2170   19.3010 C.ar  161  TRP161      0.0015
@<TRIPOS>BOND
     1     4     3    2
     2     3     2    1
     3     8    10   ar
     4     8     6   ar
     5    10    11   ar
     6     1     2    1
     7     5     2    1
     8     5     6    1
     9     6     7   ar
    10    11     9   ar
    11    34    33    2
    12     7     9   ar
    13    16    13    1
    14    13    12    1
    15    13    14    1
    16    33    32    1
    17    32    31    1
    18    32    35    1
    19    38    36    1
    20    20    19    2
    21    17    14   am
    22    17    18    1
    23    14    15    2
    24    35    36    1
    25    19    18    1
    26    19    25   am
    27    36    37    1
    28    59    58    2
    29    18    21    1
    30    21    22    1
    31   123   121   ar
    32   123   122   ar
    33    58    57    1
    34    26    25    1
    35    26    27    1
    36    26    29    1
    37   121   119   ar
    38   122   120   ar
    39    27    28    2
    40    60    57    1
    41    60    61    1
    42    29    30    1
    43    22    24   ar
    44    22    23   ar
    45    57    56    1
    46   119   117   ar
    47   119   118   ar
    48    61    62   ar
    49    61    63   ar
    50   120   117   ar
    51    62    64   ar
    52   113   112    2
    53   117   115   ar
    54    63    65   ar
    55   118   116   ar
    56    64    66   ar
    57    65    66   ar
    58   112   111    1
    59    66    67    1
    60   116   115   ar
    61   115   114    1
    62    76    75    1
    63   111   114    1
    64   111   110    1
    65   108   107    1
    66    75    74    1
    67    74    73    1
    68   105   104    2
    69   107   109    1
    70   107   106    1
    71    73    72    1
    72    72    69    1
    73    51    50    2
    74    46    45    2
    75   104   103    1
    76    50    49    1
    77    69    68    1
    78    69    70    1
    79    42    41    2
    80   100    99    1
    81   106   103    1
    82   103   102    1
    83    43    40    1
    84    43    44    1
    85    45    47   am
    86    45    44    1
    87    41    40    1
    88    41    48   am
    89    80    79    2
    90    77    70   am
    91    77    78    1
    92    99   101    1
    93    99    98    1
    94    39    40    1
    95    70    71    2
    96    93    91    1
    97    92    91    1
    98    49    48    1
    99    49    52    1
   100    79    87   am
   101    79    78    1
   102    88    91    1
   103    88    87    1
   104    88    89    1
   105    52    53    1
   106    98    95    1
   107    78    81    1
   108    94    89   am
   109    94    95    1
   110    81    82    1
   111    89    90    2
   112    95    96    1
   113    82    84   ar
   114    82    83   ar
   115    97    96    2
   116    84    86   ar
   117    53    54    2
   118    53    55   am
   119    83    85   ar
   120    86    85   ar
