@<TRIPOS>MOLECULE
tmp/5zbeA00.pdb
 147 135 0 0 0
SMALL
GASTEIGER

@<TRIPOS>ATOM
      1  N         13.7690  -21.3590  -38.1130 N.3    16  VAL16      -0.1245
      2  CA        12.9780  -21.3760  -36.8640 C.3    16  VAL16       0.1561
      3  C         13.3120  -22.6070  -36.0100 C.2    16  VAL16       0.2260
      4  O         13.1270  -23.7670  -36.4350 O.2    16  VAL16      -0.2867
      5  CB        11.4500  -21.2890  -37.1010 C.3    16  VAL16       0.0252
      6  CG1       10.6890  -21.2000  -35.7580 C.3    16  VAL16       0.0019
      7  CG2       11.0930  -20.0950  -37.9870 C.3    16  VAL16       0.0019
      8  N         12.7470  -24.2210  -32.0770 N.3    18  LEU18      -0.1245
      9  CA        11.8480  -24.1800  -30.9310 C.3    18  LEU18       0.1561
     10  C         12.3290  -25.0530  -29.7870 C.2    18  LEU18       0.2260
     11  O         12.9520  -26.0810  -30.0160 O.2    18  LEU18      -0.2867
     12  CB        10.4810  -24.7100  -31.3490 C.3    18  LEU18       0.0270
     13  CG         9.7890  -24.0280  -32.5240 C.3    18  LEU18       0.0019
     14  CD1        8.4750  -24.7250  -32.8280 C.3    18  LEU18       0.0001
     15  CD2        9.5960  -22.5580  -32.2160 C.3    18  LEU18       0.0001
     16  N          6.4940  -22.4380  -25.4560 N.3    29  GLN29      -0.1245
     17  CA         7.6970  -22.6060  -26.2420 C.3    29  GLN29       0.1566
     18  C          8.5790  -21.3860  -26.3430 C.2    29  GLN29       0.2260
     19  O          8.1060  -20.2980  -26.3980 O.2    29  GLN29      -0.2867
     20  CB         7.3520  -23.1510  -27.6010 C.3    29  GLN29       0.0367
     21  CG         6.7520  -22.1680  -28.5100 C.3    29  GLN29       0.0905
     22  CD         6.3110  -22.7880  -29.8240 C.2    29  GLN29       0.2608
     23  OE1        5.9890  -23.9700  -29.9120 O.2    29  GLN29      -0.2717
     24  NE2        6.2820  -21.9790  -30.8340 N.am   29  GLN29      -0.0878
     25  N         11.2520  -19.6620  -28.8220 N.3    31  SER31      -0.1217
     26  CA        11.4920  -19.6940  -30.2420 C.3    31  SER31       0.1889
     27  C         12.6650  -18.8130  -30.5950 C.2    31  SER31       0.2288
     28  O         12.8950  -17.7720  -29.9640 O.2    31  SER31      -0.2866
     29  CB        10.2610  -19.2080  -30.9770 C.3    31  SER31       0.2089
     30  OG         9.9570  -17.9060  -30.5330 O.3    31  SER31      -0.2183
     31  N         13.8840  -17.0870  -34.1410 N.3    33  ILE33      -0.1245
     32  CA        13.6160  -16.8290  -35.5680 C.3    33  ILE33       0.1561
     33  C         14.8240  -16.1150  -36.1650 C.2    33  ILE33       0.2260
     34  O         15.2710  -15.0820  -35.6550 O.2    33  ILE33      -0.2867
     35  CB        12.3440  -15.9840  -35.7830 C.3    33  ILE33       0.0252
     36  CG1       11.1030  -16.7910  -35.3680 C.3    33  ILE33       0.0019
     37  CG2       12.2050  -15.5560  -37.2610 C.3    33  ILE33       0.0019
     38  CD1        9.8280  -15.9910  -35.4420 C.3    33  ILE33       0.0001
     39  N          7.6510  -16.5830  -39.6910 N.3    39  LEU39      -0.1245
     40  CA         6.8900  -17.7110  -39.2460 C.3    39  LEU39       0.1561
     41  C          5.5610  -17.5420  -40.0050 C.2    39  LEU39       0.2260
     42  O          4.8200  -16.5860  -39.7820 O.2    39  LEU39      -0.2867
     43  CB         6.7520  -17.6910  -37.7300 C.3    39  LEU39       0.0270
     44  CG         6.2130  -18.9460  -37.0670 C.3    39  LEU39       0.0019
     45  CD1        7.1450  -20.1230  -37.2890 C.3    39  LEU39       0.0001
     46  CD2        5.9760  -18.7010  -35.5830 C.3    39  LEU39       0.0001
     47  N         -3.4560  -18.2960  -28.2710 N.3    48  GLN48      -0.1245
     48  CA        -2.0110  -18.0920  -28.1850 C.3    48  GLN48       0.1566
     49  C         -1.6580  -16.6990  -27.7190 C.2    48  GLN48       0.2260
     50  O         -2.2790  -15.7310  -28.1260 O.2    48  GLN48      -0.2867
     51  CB        -1.3680  -18.3600  -29.5470 C.3    48  GLN48       0.0367
     52  CG         0.1480  -18.2400  -29.5830 C.3    48  GLN48       0.0905
     53  CD         0.7130  -18.4360  -30.9820 C.2    48  GLN48       0.2608
     54  OE1        1.4200  -17.5700  -31.5160 O.2    48  GLN48      -0.2717
     55  NE2        0.3970  -19.5440  -31.5810 N.am   48  GLN48      -0.0878
     56  N          5.5260  -13.0620  -26.2730 N.3    51  MET51      -0.1230
     57  CA         6.3360  -11.8480  -26.2780 C.3    51  MET51       0.1702
     58  C          7.6820  -12.0650  -26.9060 C.2    51  MET51       0.2592
     59  O          8.2390  -13.1580  -26.8310 O.2    51  MET51      -0.2718
     60  CB         6.6310  -11.3770  -24.8620 C.3    51  MET51       0.0401
     61  CG         5.4200  -11.2390  -23.9910 C.3    51  MET51       0.0596
     62  SD         5.8970  -10.5190  -22.4180 S.3    51  MET51      -0.1393
     63  CE         6.8950   -9.0950  -22.8550 C.3    51  MET51       0.0692
     64  N          8.2210  -10.9910  -27.4570 N.am   52  VAL52      -0.1980
     65  CA         9.6120  -10.9790  -27.8840 C.3    52  VAL52       0.1595
     66  C         10.4780  -10.7640  -26.6350 C.2    52  VAL52       0.2287
     67  O         10.2000   -9.8700  -25.8270 O.2    52  VAL52      -0.2864
     68  CB         9.8650   -9.8590  -28.8830 C.3    52  VAL52       0.0276
     69  CG1       11.3420   -9.7680  -29.2470 C.3    52  VAL52       0.0022
     70  CG2        8.9910  -10.0710  -30.1230 C.3    52  VAL52       0.0022
     71  N          9.6500   -8.0180  -33.6570 N.3    57  LEU57      -0.1245
     72  CA         8.8040   -8.8350  -34.5250 C.3    57  LEU57       0.1561
     73  C          7.6480   -7.9840  -35.0580 C.2    57  LEU57       0.2260
     74  O          7.2630   -6.9920  -34.4270 O.2    57  LEU57      -0.2867
     75  CB         8.3360  -10.0410  -33.7220 C.3    57  LEU57       0.0270
     76  CG         8.0500  -11.3710  -34.3740 C.3    57  LEU57       0.0019
     77  CD1        9.2050  -11.9410  -35.1830 C.3    57  LEU57       0.0001
     78  CD2        7.6450  -12.3480  -33.2900 C.3    57  LEU57       0.0001
     79  N          5.9050   -5.6070  -32.4850 N.3    68  LEU68      -0.1245
     80  CA         6.0890   -6.1730  -31.1410 C.3    68  LEU68       0.1561
     81  C          7.4980   -5.8260  -30.6390 C.2    68  LEU68       0.2260
     82  O          8.5000   -6.2360  -31.2180 O.2    68  LEU68      -0.2867
     83  CB         5.8870   -7.6920  -31.1650 C.3    68  LEU68       0.0270
     84  CG         4.5290   -8.2300  -31.6430 C.3    68  LEU68       0.0019
     85  CD1        4.5510   -9.7540  -31.7560 C.3    68  LEU68       0.0001
     86  CD2        3.3790   -7.7520  -30.7520 C.3    68  LEU68       0.0001
     87  N          1.5130  -10.4380  -27.9700 N.3    75  HIS75      -0.1241
     88  CA         0.5420  -10.7610  -29.0000 C.3    75  HIS75       0.1621
     89  C         -0.5330  -11.6320  -28.4540 C.2    75  HIS75       0.2264
     90  O         -0.2950  -12.4260  -27.5620 O.2    75  HIS75      -0.2867
     91  CB         1.1970  -11.3680  -30.2320 C.3    75  HIS75       0.0745
     92  CG         1.6200  -12.7850  -30.0830 C.ar   75  HIS75       0.0817
     93  ND1        2.8770  -13.1310  -29.8210 N.ar   75  HIS75      -0.2268
     94  CD2        0.9290  -13.9470  -30.2290 C.ar   75  HIS75       0.1154
     95  CE1        2.9670  -14.4440  -29.7790 C.ar   75  HIS75       0.1986
     96  NE2        1.7840  -14.9490  -30.0390 N.ar   75  HIS75      -0.2212
     97  N          4.1960  -14.0170  -38.3850 N.3    85  PHE85      -0.1241
     98  CA         5.2110  -13.1020  -37.9170 C.3    85  PHE85       0.1605
     99  C          6.3180  -12.8700  -38.9340 C.2    85  PHE85       0.2264
    100  O          6.6940  -13.7810  -39.6750 O.2    85  PHE85      -0.2867
    101  CB         5.8550  -13.6870  -36.6590 C.3    85  PHE85       0.0534
    102  CG         4.8820  -13.9540  -35.5470 C.ar   85  PHE85      -0.0203
    103  CD1        4.6010  -12.9650  -34.6130 C.ar   85  PHE85      -0.0042
    104  CD2        4.2490  -15.1900  -35.4300 C.ar   85  PHE85      -0.0042
    105  CE1        3.7260  -13.2130  -33.5630 C.ar   85  PHE85      -0.0003
    106  CE2        3.3600  -15.4390  -34.3950 C.ar   85  PHE85      -0.0003
    107  CZ         3.0980  -14.4460  -33.4560 C.ar   85  PHE85      -0.0000
    108  N         15.4680  -13.1320  -33.5610 N.3    93  MET93      -0.1245
    109  CA        14.4050  -12.7900  -32.6300 C.3    93  MET93       0.1570
    110  C         14.2570  -13.9890  -31.7040 C.2    93  MET93       0.2261
    111  O         14.0390  -15.1270  -32.1620 O.2    93  MET93      -0.2867
    112  CB        13.0860  -12.4960  -33.3580 C.3    93  MET93       0.0387
    113  CG        11.9400  -11.9780  -32.4870 C.3    93  MET93       0.0595
    114  SD        11.2250  -13.1300  -31.2760 S.3    93  MET93      -0.1393
    115  CE        10.8130  -14.5570  -32.2610 C.3    93  MET93       0.0692
    116  N         11.9630  -15.3000  -28.5920 N.3    95  GLY95      -0.1210
    117  CA        10.6680  -15.0020  -27.9710 C.3    95  GLY95       0.1956
    118  C         10.0650  -16.2220  -27.3300 C.2    95  GLY95       0.2612
    119  O         10.6470  -17.3000  -27.3480 O.2    95  GLY95      -0.2717
    120  N          8.8770  -16.0430  -26.7640 N.am   96  PHE96      -0.1962
    121  CA         8.1290  -17.1690  -26.2320 C.3    96  PHE96       0.1771
    122  C          6.6910  -17.0380  -26.6150 C.2    96  PHE96       0.2619
    123  O          6.2070  -15.9360  -26.9020 O.2    96  PHE96      -0.2715
    124  CB         8.2410  -17.3150  -24.7000 C.3    96  PHE96       0.0574
    125  CG         7.4930  -16.2770  -23.9100 C.ar   96  PHE96      -0.0200
    126  CD1        6.1960  -16.5050  -23.5130 C.ar   96  PHE96      -0.0042
    127  CD2        8.0980  -15.0840  -23.5570 C.ar   96  PHE96      -0.0042
    128  CE1        5.5010  -15.5610  -22.7770 C.ar   96  PHE96      -0.0003
    129  CE2        7.4090  -14.1400  -22.8150 C.ar   96  PHE96      -0.0003
    130  CZ         6.1150  -14.3830  -22.4180 C.ar   96  PHE96      -0.0000
    131  N          6.0240  -18.1750  -26.6280 N.am   97  ASP97      -0.1971
    132  CA         4.5650  -18.1940  -26.7200 C.3    97  ASP97       0.1709
    133  C          3.9540  -19.3280  -25.9040 C.2    97  ASP97       0.2293
    134  O          4.6100  -20.3120  -25.5800 O.2    97  ASP97      -0.2864
    135  CB         4.0660  -18.1880  -28.1740 C.3    97  ASP97       0.1436
    136  CG         4.3470  -19.4620  -28.9120 C.2    97  ASP97       0.3671
    137  OD1        5.3710  -19.5300  -29.6460 O.co2  97  ASP97      -0.2456
    138  OD2        3.5180  -20.3840  -28.8060 O.co2  97  ASP97      -0.2456
    139  N          0.3280  -21.7030  -25.8150 N.3    99  LYS99      -0.1245
    140  CA        -0.8670  -22.1640  -26.5190 C.3    99  LYS99       0.1561
    141  C         -1.7330  -22.9950  -25.5600 C.2    99  LYS99       0.2260
    142  O         -1.2280  -23.8920  -24.8720 O.2    99  LYS99      -0.2867
    143  CB        -0.4950  -23.0260  -27.7330 C.3    99  LYS99       0.0271
    144  CG        -0.1130  -22.2620  -28.9870 C.3    99  LYS99       0.0035
    145  CD         0.1990  -23.2270  -30.1280 C.3    99  LYS99       0.0206
    146  CE         1.6810  -23.5870  -30.2100 C.3    99  LYS99       0.1093
    147  NZ         2.5520  -22.4940  -30.7620 N.3    99  LYS99      -0.1314
@<TRIPOS>BOND
     1    41    42    2
     2    41    40    1
     3    39    40    1
     4   100    99    2
     5    40    43    1
     6    99    98    1
     7    97    98    1
     8     1     2    1
     9     7     5    1
    10    98   101    1
    11    43    44    1
    12    45    44    1
    13    37    35    1
    14     5     2    1
    15     5     6    1
    16    44    46    1
    17     2     3    1
    18   101   102    1
    19     4     3    2
    20    33    34    2
    21    33    32    1
    22    35    32    1
    23    35    36    1
    24    32    31    1
    25   102   104   ar
    26   102   103   ar
    27    38    36    1
    28   104   106   ar
    29    77    76    1
    30    73    72    1
    31    73    74    2
    32   103   105   ar
    33    72    75    1
    34    72    71    1
    35   106   107   ar
    36    76    75    1
    37    76    78    1
    38   105   107   ar
    39   108   109    1
    40   112   109    1
    41   112   113    1
    42    14    13    1
    43   109   110    1
    44    13    15    1
    45    13    12    1
    46   113   114    1
    47    79    80    1
    48   115   114    1
    49   111   110    2
    50     8     9    1
    51    85    84    1
    52    84    83    1
    53    84    86    1
    54    55    53   am
    55    54    53    2
    56    12     9    1
    57    82    81    2
    58    83    80    1
    59    80    81    1
    60    53    52    1
    61    29    30    1
    62    29    26    1
    63     9    10    1
    64    24    22   am
    65   147   146    1
    66    27    26    1
    67    27    28    2
    68    26    25    1
    69    91    92    1
    70    91    88    1
    71    94    92   ar
    72    94    96   ar
    73   146   145    1
    74   145   144    1
    75    70    68    1
    76    92    93   ar
    77    96    95   ar
    78    11    10    2
    79    23    22    2
    80    22    21    1
    81    93    95   ar
    82   137   136   ar
    83    52    51    1
    84    51    48    1
    85    69    68    1
    86    88    89    1
    87    88    87    1
    88   144   143    1
    89   136   138   ar
    90   136   135    1
    91    68    65    1
    92   116   117    1
    93    21    20    1
    94    89    90    2
    95    47    48    1
    96    48    49    1
    97   135   132    1
    98    50    49    2
    99   117   118    1
   100    65    64    1
   101    65    66    1
   102   143   140    1
   103    20    17    1
   104    64    58   am
   105   119   118    2
   106   118   120   am
   107    58    59    2
   108    58    57    1
   109   123   122    2
   110   120   121    1
   111   132   131    1
   112   132   133    1
   113    66    67    2
   114   131   122   am
   115   122   121    1
   116   140   139    1
   117   140   141    1
   118    19    18    2
   119    18    17    1
   120    57    56    1
   121    57    60    1
   122    17    16    1
   123   121   124    1
   124   133   134    2
   125   141   142    2
   126    60    61    1
   127   124   125    1
   128    61    62    1
   129   125   127   ar
   130   125   126   ar
   131   127   129   ar
   132   126   128   ar
   133    63    62    1
   134   129   130   ar
   135   128   130   ar
