@<TRIPOS>MOLECULE
tmp/5zbfA00.pdb
 138 128 0 0 0
SMALL
GASTEIGER

@<TRIPOS>ATOM
      1  N         15.7000   -0.4160  -37.2340 N.3    12  LEU12      -0.1231
      2  CA        14.3610   -0.0930  -37.6930 C.3    12  LEU12       0.1693
      3  C         14.4540    0.7930  -38.9010 C.2    12  LEU12       0.2592
      4  O         13.6440    0.6960  -39.8230 O.2    12  LEU12      -0.2718
      5  CB        13.5720    0.5860  -36.5750 C.3    12  LEU12       0.0284
      6  CG        12.0630    0.3680  -36.5780 C.3    12  LEU12       0.0019
      7  CD1       11.7120   -1.1120  -36.6900 C.3    12  LEU12       0.0001
      8  CD2       11.4530    0.9830  -35.3270 C.3    12  LEU12       0.0001
      9  N         15.4420    1.6710  -38.8820 N.am   13  ASN13      -0.1974
     10  CA        15.7390    2.5260  -40.0090 C.3    13  ASN13       0.1688
     11  C         17.1440    3.0280  -39.7050 C.2    13  ASN13       0.2292
     12  O         17.7440    2.5930  -38.6970 O.2    13  ASN13      -0.2864
     13  CB        14.6990    3.6590  -40.1180 C.3    13  ASN13       0.1181
     14  CG        14.5210    4.4340  -38.8140 C.2    13  ASN13       0.2629
     15  OD1       15.4330    5.1240  -38.3580 O.2    13  ASN13      -0.2716
     16  ND2       13.3300    4.3400  -38.2200 N.am   13  ASN13      -0.0877
     17  N         17.3460    4.2020  -35.8710 N.3    16  VAL16      -0.1245
     18  CA        16.8550    3.5070  -34.6780 C.3    16  VAL16       0.1561
     19  C         17.3390    2.0660  -34.6070 C.2    16  VAL16       0.2260
     20  O         17.0960    1.2680  -35.5060 O.2    16  VAL16      -0.2867
     21  CB        15.3110    3.5000  -34.6180 C.3    16  VAL16       0.0252
     22  CG1       14.8270    2.7770  -33.3670 C.3    16  VAL16       0.0019
     23  CG2       14.7660    4.9180  -34.6550 C.3    16  VAL16       0.0019
     24  N         17.1700   -1.2930  -31.9870 N.3    18  LEU18      -0.1245
     25  CA        16.3820   -1.8300  -30.8860 C.3    18  LEU18       0.1561
     26  C         16.9090   -3.1880  -30.4310 C.2    18  LEU18       0.2260
     27  O         17.4470   -3.9560  -31.2360 O.2    18  LEU18      -0.2867
     28  CB        14.9260   -2.0030  -31.3090 C.3    18  LEU18       0.0270
     29  CG        14.1310   -0.7960  -31.8310 C.3    18  LEU18       0.0019
     30  CD1       12.7470   -1.2510  -32.2560 C.3    18  LEU18       0.0001
     31  CD2       14.0070    0.3000  -30.7870 C.3    18  LEU18       0.0001
     32  N         11.3090   -3.0450  -25.3450 N.3    29  GLN29      -0.1245
     33  CA        12.5060   -2.7920  -26.1440 C.3    29  GLN29       0.1566
     34  C         13.4140   -1.7250  -25.5700 C.2    29  GLN29       0.2260
     35  O         12.9570   -0.7260  -25.0370 O.2    29  GLN29      -0.2867
     36  CB        12.1320   -2.4590  -27.5970 C.3    29  GLN29       0.0367
     37  CG        11.2600   -1.2320  -27.7580 C.3    29  GLN29       0.0905
     38  CD        10.5970   -1.1360  -29.1320 C.2    29  GLN29       0.2608
     39  OE1       10.2830   -2.1430  -29.7530 O.2    29  GLN29      -0.2717
     40  NE2       10.3670    0.0790  -29.5880 N.am   29  GLN29      -0.0878
     41  N         16.0810    1.0230  -26.7980 N.3    31  SER31      -0.1217
     42  CA        16.2440    1.8150  -28.0230 C.3    31  SER31       0.1889
     43  C         17.5220    2.6360  -28.0040 C.2    31  SER31       0.2288
     44  O         17.9120    3.1490  -26.9610 O.2    31  SER31      -0.2866
     45  CB        15.0800    2.8020  -28.1590 C.3    31  SER31       0.2089
     46  OG        13.8820    2.1500  -28.5330 O.3    31  SER31      -0.2183
     47  N         18.5430    5.8320  -30.3920 N.3    33  ILE33      -0.1245
     48  CA        18.1740    6.7560  -31.4630 C.3    33  ILE33       0.1561
     49  C         19.3620    7.6690  -31.7820 C.2    33  ILE33       0.2260
     50  O         19.9240    8.3270  -30.8980 O.2    33  ILE33      -0.2867
     51  CB        16.9300    7.5940  -31.1020 C.3    33  ILE33       0.0252
     52  CG1       15.7080    6.6800  -30.9110 C.3    33  ILE33       0.0019
     53  CG2       16.6510    8.6520  -32.1680 C.3    33  ILE33       0.0019
     54  CD1       14.4400    7.4140  -30.5400 C.3    33  ILE33       0.0001
     55  N         12.2240   11.2260  -36.4170 N.3    39  LEU39      -0.1231
     56  CA        11.4530    9.9950  -36.5500 C.3    39  LEU39       0.1693
     57  C         10.0430   10.3540  -37.0040 C.2    39  LEU39       0.2591
     58  O          9.2950   10.9880  -36.2570 O.2    39  LEU39      -0.2718
     59  CB        11.3740    9.2550  -35.2110 C.3    39  LEU39       0.0284
     60  CG        12.3790    8.1620  -34.8750 C.3    39  LEU39       0.0019
     61  CD1       13.7560    8.4410  -35.4490 C.3    39  LEU39       0.0001
     62  CD2       12.4460    7.9150  -33.3820 C.3    39  LEU39       0.0001
     63  N          9.6890    9.9430  -38.2210 N.am   40  GLU40      -0.1979
     64  CA         8.3670   10.2130  -38.7660 C.3    40  GLU40       0.1602
     65  C          7.2860    9.6120  -37.8900 C.2    40  GLU40       0.2287
     66  O          7.4410    8.5080  -37.3590 O.2    40  GLU40      -0.2864
     67  CB         8.2380    9.6530  -40.1890 C.3    40  GLU40       0.0415
     68  CG         7.0500   10.2080  -40.9910 C.3    40  GLU40       0.1163
     69  CD         7.1650   11.7020  -41.2930 C.2    40  GLU40       0.3649
     70  OE1        8.1850   12.3200  -40.9260 O.co2  40  GLU40      -0.2457
     71  OE2        6.2380   12.2700  -41.9040 O.co2  40  GLU40      -0.2457
     72  N          4.1330    7.6550  -36.6350 N.3    42  HIS42      -0.1241
     73  CA         3.4640    6.4420  -37.0470 C.3    42  HIS42       0.1621
     74  C          2.3360    6.1310  -36.0880 C.2    42  HIS42       0.2264
     75  O          2.1700    6.7990  -35.0750 O.2    42  HIS42      -0.2867
     76  CB         4.4370    5.2660  -37.2090 C.3    42  HIS42       0.0745
     77  CG         5.0130    4.7410  -35.9300 C.ar   42  HIS42       0.0817
     78  ND1        5.9900    3.7710  -35.9170 N.ar   42  HIS42      -0.2268
     79  CD2        4.7530    5.0350  -34.6320 C.ar   42  HIS42       0.1154
     80  CE1        6.3090    3.4840  -34.6690 C.ar   42  HIS42       0.1986
     81  NE2        5.5620    4.2270  -33.8740 N.ar   42  HIS42      -0.2212
     82  N          0.0170    2.5230  -34.5490 N.3    44  HIS44      -0.1241
     83  CA        -0.1390    1.0840  -34.4890 C.3    44  HIS44       0.1621
     84  C         -1.1580    0.7450  -33.4230 C.2    44  HIS44       0.2264
     85  O         -1.3680    1.5340  -32.4870 O.2    44  HIS44      -0.2867
     86  CB         1.1960    0.4030  -34.1850 C.3    44  HIS44       0.0745
     87  CG         2.0570    1.1550  -33.2210 C.ar   44  HIS44       0.0817
     88  ND1        1.7440    1.2810  -31.8850 N.ar   44  HIS44      -0.2268
     89  CD2        3.2240    1.8130  -33.3990 C.ar   44  HIS44       0.1154
     90  CE1        2.6810    1.9830  -31.2790 C.ar   44  HIS44       0.1986
     91  NE2        3.5930    2.3190  -32.1760 N.ar   44  HIS44      -0.2212
     92  N          1.4870    2.2750  -26.2830 N.3    48  GLN48      -0.1245
     93  CA         2.9210    2.4230  -26.0840 C.3    48  GLN48       0.1566
     94  C          3.2290    3.4230  -24.9840 C.2    48  GLN48       0.2260
     95  O          2.5950    4.4790  -24.8800 O.2    48  GLN48      -0.2867
     96  CB         3.5610    2.8770  -27.3950 C.3    48  GLN48       0.0367
     97  CG         5.0640    3.1040  -27.3520 C.3    48  GLN48       0.0905
     98  CD         5.5940    3.6560  -28.6570 C.2    48  GLN48       0.2608
     99  OE1        6.2780    4.6830  -28.6930 O.2    48  GLN48      -0.2717
    100  NE2        5.2630    2.9810  -29.7410 N.am   48  GLN48      -0.0878
    101  N          2.1840    9.2030  -33.3070 N.3    83  HIS83      -0.1241
    102  CA         3.2910    9.7150  -32.5040 C.3    83  HIS83       0.1621
    103  C          4.5960    9.6490  -33.2640 C.2    83  HIS83       0.2264
    104  O          4.8640    8.6850  -33.9920 O.2    83  HIS83      -0.2867
    105  CB         3.3980    8.9730  -31.1800 C.3    83  HIS83       0.0745
    106  CG         3.5570    7.4930  -31.3200 C.ar   83  HIS83       0.0817
    107  ND1        2.4970    6.6530  -31.5770 N.ar   83  HIS83      -0.2268
    108  CD2        4.6470    6.6980  -31.1990 C.ar   83  HIS83       0.1154
    109  CE1        2.9310    5.4070  -31.6280 C.ar   83  HIS83       0.1986
    110  NE2        4.2330    5.4110  -31.4030 N.ar   83  HIS83      -0.2212
    111  N          8.9700   11.4630  -33.0610 N.3    85  PHE85      -0.1241
    112  CA        10.0140   11.9590  -32.1740 C.3    85  PHE85       0.1605
    113  C         11.1000   12.7200  -32.9230 C.2    85  PHE85       0.2264
    114  O         11.3680   12.4570  -34.0980 O.2    85  PHE85      -0.2867
    115  CB        10.6960   10.7970  -31.4330 C.3    85  PHE85       0.0534
    116  CG         9.7570    9.9550  -30.6100 C.ar   85  PHE85      -0.0203
    117  CD1        9.4370   10.3120  -29.3060 C.ar   85  PHE85      -0.0042
    118  CD2        9.2240    8.7780  -31.1310 C.ar   85  PHE85      -0.0042
    119  CE1        8.5820    9.5270  -28.5500 C.ar   85  PHE85      -0.0003
    120  CE2        8.3710    7.9850  -30.3800 C.ar   85  PHE85      -0.0003
    121  CZ         8.0520    8.3610  -29.0830 C.ar   85  PHE85      -0.0000
    122  N         10.8940    1.3280  -24.4510 N.3    97  ASP97      -0.1239
    123  CA         9.4440    1.3830  -24.6810 C.3    97  ASP97       0.1674
    124  C          8.8180    0.0480  -24.3190 C.2    97  ASP97       0.2266
    125  O          9.4850   -0.9880  -24.3710 O.2    97  ASP97      -0.2867
    126  CB         9.0850    1.6220  -26.1560 C.3    97  ASP97       0.1410
    127  CG         9.8720    2.7350  -26.7970 C.2    97  ASP97       0.3668
    128  OD1       10.8170    2.4250  -27.5530 O.co2  97  ASP97      -0.2456
    129  OD2        9.5210    3.9100  -26.5770 O.co2  97  ASP97      -0.2456
    130  N          5.1570   -2.0190  -25.4510 N.3    99  LYS99      -0.1245
    131  CA         4.0140   -2.0150  -26.3520 C.3    99  LYS99       0.1561
    132  C          3.1270   -3.2170  -26.0690 C.2    99  LYS99       0.2260
    133  O          3.6190   -4.3260  -25.8430 O.2    99  LYS99      -0.2867
    134  CB         4.4750   -1.9950  -27.8100 C.3    99  LYS99       0.0271
    135  CG         5.0880   -0.6650  -28.2100 C.3    99  LYS99       0.0035
    136  CD         5.9150   -0.7660  -29.4750 C.3    99  LYS99       0.0206
    137  CE         5.0640   -1.0830  -30.6820 C.3    99  LYS99       0.1093
    138  NZ         5.8580   -0.8780  -31.9270 N.3    99  LYS99      -0.1314
@<TRIPOS>BOND
     1    71    69   ar
     2    69    68    1
     3    69    70   ar
     4    68    67    1
     5    67    64    1
     6    13    10    1
     7    13    14    1
     8    10    11    1
     9    10     9    1
    10     4     3    2
    11    11    12    2
    12     3     9   am
    13     3     2    1
    14    14    15    2
    15    14    16   am
    16    64    63    1
    17    64    65    1
    18    63    57   am
    19    65    66    2
    20     2     1    1
    21     2     5    1
    22    76    73    1
    23    76    77    1
    24    73    72    1
    25    73    74    1
    26    57    56    1
    27    57    58    2
    28     7     6    1
    29     6     5    1
    30     6     8    1
    31    56    55    1
    32    56    59    1
    33    74    75    2
    34    77    78   ar
    35    77    79   ar
    36    78    80   ar
    37    17    18    1
    38    20    19    2
    39    61    60    1
    40    59    60    1
    41    60    62    1
    42    18    21    1
    43    18    19    1
    44    80    81   ar
    45    23    21    1
    46    79    81   ar
    47    21    22    1
    48    82    83    1
    49    83    86    1
    50    83    84    1
    51    86    87    1
    52   114   113    2
    53   104   103    2
    54    84    85    2
    55    89    87   ar
    56    89    91   ar
    57   101   102    1
    58   103   102    1
    59    87    88   ar
    60   111   112    1
    61   113   112    1
    62   102   105    1
    63    30    29    1
    64    91    90   ar
    65   112   115    1
    66    53    51    1
    67    24    25    1
    68   138   137    1
    69    88    90   ar
    70    29    28    1
    71    29    31    1
    72    49    48    1
    73    49    50    2
    74   109   107   ar
    75   109   110   ar
    76   107   106   ar
    77    48    51    1
    78    48    47    1
    79   115   116    1
    80   110   108   ar
    81   106   108   ar
    82   106   105    1
    83    28    25    1
    84    27    26    2
    85   118   116   ar
    86   118   120   ar
    87    51    52    1
    88    52    54    1
    89    25    26    1
    90   137   136    1
    91   116   117   ar
    92   120   121   ar
    93    39    38    2
    94   100    98   am
    95    40    38   am
    96   136   135    1
    97   117   119   ar
    98    38    37    1
    99   121   119   ar
   100    99    98    2
   101    98    97    1
   102    46    45    1
   103   135   134    1
   104    45    42    1
   105    42    43    1
   106    42    41    1
   107    43    44    2
   108   134   131    1
   109    37    36    1
   110    36    33    1
   111   128   127   ar
   112    96    97    1
   113    96    93    1
   114   127   129   ar
   115   127   126    1
   116   131   132    1
   117   131   130    1
   118    92    93    1
   119   126   123    1
   120    33    34    1
   121    33    32    1
   122    93    94    1
   123   132   133    2
   124    34    35    2
   125    94    95    2
   126   123   122    1
   127   123   124    1
   128   125   124    2
