@<TRIPOS>MOLECULE
tmp/5zbkA00.pdb
 111 103 0 0 0
SMALL
GASTEIGER

@<TRIPOS>ATOM
      1  N          3.1260   30.6770    5.4730 N.3     9  CYS9       -0.1221
      2  CA         3.9860   29.5470    5.1500 C.3     9  CYS9        0.1808
      3  C          5.4350   29.8310    5.6290 C.2     9  CYS9        0.2602
      4  O          5.8750   30.9850    5.8800 O.2     9  CYS9       -0.2717
      5  CB         3.9590   29.2700    3.6400 C.3     9  CYS9        0.0970
      6  SG         4.4170   30.7080    2.6550 S.3     9  CYS9       -0.0800
      7  N          6.1900   28.7600    5.7430 N.am   10  GLY10      -0.1942
      8  CA         7.5610   28.8920    6.1560 C.3    10  GLY10       0.2014
      9  C          8.4440   29.7750    5.3040 C.2    10  GLY10       0.2639
     10  O          8.3830   29.7170    4.0630 O.2    10  GLY10      -0.2714
     11  N          9.2950   30.5430    5.9850 N.am   11  ALA11      -0.1963
     12  CA        10.4750   31.1780    5.3880 C.3    11  ALA11       0.1728
     13  C         11.6180   30.2190    5.0640 C.2    11  ALA11       0.2616
     14  O         12.5410   30.6390    4.4060 O.2    11  ALA11      -0.2715
     15  CB        10.9940   32.3150    6.2620 C.3    11  ALA11       0.0334
     16  N         11.5220   28.9560    5.5080 N.am   12  SER12      -0.1950
     17  CA        12.3870   27.8480    5.0950 C.3    12  SER12       0.1924
     18  C         11.6720   27.0230    4.0630 C.2    12  SER12       0.2314
     19  O         10.4410   26.9960    4.0500 O.2    12  SER12      -0.2863
     20  CB        12.6910   26.9120    6.2670 C.3    12  SER12       0.2116
     21  OG        12.9760   27.6860    7.3790 O.3    12  SER12      -0.2180
     22  N          7.4400   30.9030    1.1080 N.3    47  MET47      -0.1245
     23  CA         6.9560   32.2280    0.7360 C.3    47  MET47       0.1570
     24  C          7.3500   32.5940   -0.6930 C.2    47  MET47       0.2261
     25  O          6.4980   32.8530   -1.5090 O.2    47  MET47      -0.2867
     26  CB         7.4520   33.2980    1.7220 C.3    47  MET47       0.0387
     27  CG         6.6360   33.4250    2.9900 C.3    47  MET47       0.0595
     28  SD         7.0460   34.9760    3.8720 S.3    47  MET47      -0.1393
     29  CE         8.6330   34.5000    4.5540 C.3    47  MET47       0.0692
     30  N         12.2570   43.6480    8.5510 N.3    69  LEU69      -0.1245
     31  CA        12.7840   42.4160    8.0150 C.3    69  LEU69       0.1561
     32  C         12.7360   42.3060    6.5040 C.2    69  LEU69       0.2260
     33  O         12.5720   41.2180    5.9730 O.2    69  LEU69      -0.2867
     34  CB        12.2160   41.2190    8.7890 C.3    69  LEU69       0.0270
     35  CG        10.7190   41.1300    9.0170 C.3    69  LEU69       0.0019
     36  CD1       10.1390   40.3990    7.8490 C.3    69  LEU69       0.0001
     37  CD2       10.3660   40.3880   10.2910 C.3    69  LEU69       0.0001
     38  N         14.1860   38.5120    5.0940 N.3    73  GLU73      -0.1245
     39  CA        13.4260   37.5860    4.2380 C.3    73  GLU73       0.1567
     40  C         13.3500   37.9790    2.7510 C.2    73  GLU73       0.2260
     41  O         12.6950   37.3020    1.9600 O.2    73  GLU73      -0.2867
     42  CB        12.0860   37.1260    4.8550 C.3    73  GLU73       0.0388
     43  CG        11.1770   38.1560    5.4860 C.3    73  GLU73       0.1160
     44  CD        10.2050   37.5330    6.5040 C.2    73  GLU73       0.3649
     45  OE1        8.9790   37.5070    6.2830 O.co2  73  GLU73      -0.2457
     46  OE2       10.6750   37.0870    7.5670 O.co2  73  GLU73      -0.2457
     47  N          5.3640   44.1160   13.2400 N.3    88  MET88      -0.1245
     48  CA         4.7820   42.7870   13.1300 C.3    88  MET88       0.1570
     49  C          3.2740   42.8030   13.2310 C.2    88  MET88       0.2261
     50  O          2.5950   42.1190   12.4360 O.2    88  MET88      -0.2867
     51  CB         5.3110   41.8750   14.2520 C.3    88  MET88       0.0387
     52  CG         6.8160   41.6630   14.3120 C.3    88  MET88       0.0595
     53  SD         7.4700   41.3960   12.6590 S.3    88  MET88      -0.1393
     54  CE         7.8130   39.6540   12.6520 C.3    88  MET88       0.0692
     55  N          1.6670   44.2770   10.1130 N.3    91  ARG91      -0.1231
     56  CA         1.6960   43.2940    9.0270 C.3    91  ARG91       0.1694
     57  C          0.5100   42.3530    9.0390 C.2    91  ARG91       0.2591
     58  O         -0.1550   42.1940    8.0290 O.2    91  ARG91      -0.2718
     59  CB         2.9600   42.4740    9.1080 C.3    91  ARG91       0.0321
     60  CG         3.0860   41.3880    8.0560 C.3    91  ARG91       0.0489
     61  CD         4.0320   40.2890    8.4870 C.3    91  ARG91       0.2205
     62  NE         4.8610   39.9000    7.3510 N.pl3  91  ARG91      -0.0865
     63  CZ         6.0330   39.2780    7.4310 C.cat  91  ARG91       0.5346
     64  NH1        6.5740   38.9150    8.5820 N.pl3  91  ARG91       0.1354
     65  NH2        6.6790   39.0260    6.3150 N.pl3  91  ARG91       0.1354
     66  N          0.2670   41.7150   10.1760 N.am   92  LYS92      -0.1980
     67  CA        -0.8700   40.8160   10.3120 C.3    92  LYS92       0.1596
     68  C         -2.2140   41.5180   10.2250 C.2    92  LYS92       0.2287
     69  O         -3.1350   40.9550    9.6570 O.2    92  LYS92      -0.2864
     70  CB        -0.7850   39.9960   11.5970 C.3    92  LYS92       0.0298
     71  CG         0.3960   38.9770   11.5760 C.3    92  LYS92       0.0038
     72  CD         0.8280   38.4530   12.9520 C.3    92  LYS92       0.0206
     73  CE         0.9270   39.6050   13.9620 C.3    92  LYS92       0.1093
     74  NZ         1.8240   39.3530   15.1020 N.3    92  LYS92      -0.1314
     75  N          6.9670   27.2270   10.2110 N.3   108  GLY108     -0.1210
     76  CA         7.4540   27.1730   11.5870 C.3   108  GLY108      0.1956
     77  C          6.6130   27.9760   12.5740 C.2   108  GLY108      0.2612
     78  O          5.3760   28.1010   12.4480 O.2   108  GLY108     -0.2717
     79  N          7.3100   28.5620   13.5420 N.am  109  LEU109     -0.1965
     80  CA         6.6780   29.2750   14.6330 C.3   109  LEU109      0.1728
     81  C          5.9640   30.5290   14.1600 C.2   109  LEU109      0.2617
     82  O          4.9550   30.8750   14.7360 O.2   109  LEU109     -0.2715
     83  CB         7.7040   29.6460   15.7010 C.3   109  LEU109      0.0311
     84  CG         8.5310   28.5230   16.3550 C.3   109  LEU109      0.0022
     85  CD1        9.4070   29.1050   17.4580 C.3   109  LEU109      0.0001
     86  CD2        7.6580   27.4150   16.8780 C.3   109  LEU109      0.0001
     87  N          6.5290   31.2330   13.1790 N.am  110  GLY110     -0.1940
     88  CA         5.8920   32.3880   12.5790 C.3   110  GLY110      0.2014
     89  C          4.5780   32.0360   11.8800 C.2   110  GLY110      0.2639
     90  O          3.5780   32.6980   12.0460 O.2   110  GLY110     -0.2714
     91  N          4.6010   30.9890   11.0620 N.am  111  THR111     -0.1950
     92  CA         3.3900   30.5260   10.3550 C.3   111  THR111      0.1897
     93  C          2.3390   30.2090   11.4070 C.2   111  THR111      0.2313
     94  O          1.2140   30.7000   11.3060 O.2   111  THR111     -0.2863
     95  CB         3.7320   29.2970    9.5010 C.3   111  THR111      0.1794
     96  OG1        4.7870   29.6510    8.6060 O.3   111  THR111     -0.2208
     97  CG2        2.5680   28.7830    8.7020 C.3   111  THR111      0.0378
     98  N          2.1510   31.2490   14.6870 N.3   113  GLU113     -0.1231
     99  CA         1.6580   32.3640   15.4640 C.3   113  GLU113      0.1699
    100  C          0.6530   33.1570   14.6250 C.2   113  GLU113      0.2592
    101  O         -0.3880   33.5220   15.1550 O.2   113  GLU113     -0.2718
    102  CB         2.7600   33.1560   16.1980 C.3   113  GLU113      0.0402
    103  CG         3.1720   34.4880   15.7160 C.3   113  GLU113      0.1161
    104  CD         2.0900   35.5300   15.6420 C.2   113  GLU113      0.3649
    105  OE1        1.4120   35.8890   16.6340 O.co2 113  GLU113     -0.2457
    106  OE2        1.9480   36.0190   14.5170 O.co2 113  GLU113     -0.2457
    107  N          0.9110   33.3160   13.3250 N.am  114  ALA114     -0.1980
    108  CA        -0.0300   34.0450   12.4800 C.3   114  ALA114      0.1597
    109  C         -1.3900   33.3910   12.4000 C.2   114  ALA114      0.2287
    110  O         -2.4080   34.0680   12.5530 O.2   114  ALA114     -0.2864
    111  CB         0.5250   34.2710   11.0780 C.3   114  ALA114      0.0319
@<TRIPOS>BOND
     1    25    24    2
     2    24    23    1
     3    23    22    1
     4    23    26    1
     5    26    27    1
     6    41    40    2
     7     6     5    1
     8    40    39    1
     9    27    28    1
    10     5     2    1
    11    28    29    1
    12    19    18    2
    13    10     9    2
    14    18    17    1
    15    39    42    1
    16    39    38    1
    17    14    13    2
    18    42    43    1
    19    13    12    1
    20    13    16   am
    21    17    16    1
    22    17    20    1
    23     2     1    1
    24     2     3    1
    25     9    11   am
    26     9     8    1
    27    12    11    1
    28    12    15    1
    29    43    44    1
    30     3     7   am
    31     3     4    2
    32     7     8    1
    33    33    32    2
    34    20    21    1
    35    45    44   ar
    36    65    63    1
    37    32    31    1
    38    44    46   ar
    39    62    63    2
    40    62    61    1
    41    63    64    1
    42    36    35    1
    43    31    30    1
    44    31    34    1
    45    58    57    2
    46    60    61    1
    47    60    59    1
    48    96    95    1
    49    97    95    1
    50    34    35    1
    51    35    37    1
    52    56    57    1
    53    56    59    1
    54    56    55    1
    55    57    66   am
    56    95    92    1
    57    69    68    2
    58    66    67    1
    59    75    76    1
    60    68    67    1
    61    67    70    1
    62    92    91    1
    63    92    93    1
    64    91    89   am
    65   111   108    1
    66    94    93    2
    67    71    70    1
    68    71    72    1
    69    76    77    1
    70    89    90    2
    71    89    88    1
    72   109   108    1
    73   109   110    2
    74    50    49    2
    75    78    77    2
    76   108   107    1
    77    77    79   am
    78    88    87    1
    79    54    53    1
    80    53    52    1
    81    72    73    1
    82    48    49    1
    83    48    47    1
    84    48    51    1
    85    87    81   am
    86   107   100   am
    87    79    80    1
    88    73    74    1
    89    81    80    1
    90    81    82    2
    91    51    52    1
    92   106   104   ar
    93   100   101    2
    94   100    99    1
    95    80    83    1
    96    98    99    1
    97    99   102    1
    98   104   103    1
    99   104   105   ar
   100    83    84    1
   101   103   102    1
   102    84    86    1
   103    84    85    1
