@<TRIPOS>MOLECULE
tmp/5zblD01.pdb
 108 100 0 0 0
SMALL
GASTEIGER

@<TRIPOS>ATOM
      1  N         14.2950  -15.6250  -35.2560 N.3     9  THR9       -0.1203
      2  CA        14.7640  -15.2800  -33.9320 C.3     9  THR9        0.1994
      3  C         13.7680  -15.7100  -32.8440 C.2     9  THR9        0.2618
      4  O         12.6030  -15.9990  -33.1320 O.2     9  THR9       -0.2717
      5  CB        15.0490  -13.7620  -33.8140 C.3     9  THR9        0.1784
      6  OG1       15.6740  -13.4890  -32.5560 O.3     9  THR9       -0.2211
      7  CG2       13.7560  -12.9250  -33.9250 C.3     9  THR9        0.0376
      8  N         14.2450  -15.7500  -31.5980 N.am   10  GLY10      -0.1942
      9  CA        13.4590  -16.2450  -30.4540 C.3    10  GLY10       0.2014
     10  C         12.1970  -15.4560  -30.1090 C.2    10  GLY10       0.2640
     11  O         12.1020  -14.2560  -30.3670 O.2    10  GLY10      -0.2714
     12  N         11.2170  -16.1530  -29.5580 N.am   11  SER11      -0.1935
     13  CA        10.0230  -15.5270  -29.0450 C.3    11  SER11       0.2055
     14  C         10.1660  -15.2210  -27.5560 C.2    11  SER11       0.2642
     15  O          9.2770  -14.5870  -26.9790 O.2    11  SER11      -0.2714
     16  CB         8.8170  -16.4400  -29.2710 C.3    11  SER11       0.2130
     17  OG         8.9830  -17.6400  -28.5330 O.3    11  SER11      -0.2179
     18  N         11.2350  -15.7200  -26.9300 N.am   12  ALA12      -0.1977
     19  CA        11.7240  -15.1610  -25.6770 C.3    12  ALA12       0.1597
     20  C         12.8550  -14.1350  -25.9680 C.2    12  ALA12       0.2287
     21  O         13.4260  -14.0770  -27.0860 O.2    12  ALA12      -0.2864
     22  CB        12.2250  -16.2880  -24.7570 C.3    12  ALA12       0.0319
     23  N          8.2140  -13.3200  -38.6600 N.3    40  GLY40      -0.1225
     24  CA         6.9920  -14.0590  -38.3050 C.3    40  GLY40       0.1811
     25  C          5.8400  -13.2710  -37.7250 C.2    40  GLY40       0.2280
     26  O          4.8340  -13.8470  -37.2900 O.2    40  GLY40      -0.2866
     27  N         11.6440  -11.1720  -31.5490 N.3    47  MET47      -0.1245
     28  CA        10.8580  -10.8970  -32.7600 C.3    47  MET47       0.1570
     29  C         10.2900   -9.4920  -32.6800 C.2    47  MET47       0.2261
     30  O         10.4950   -8.6820  -33.6090 O.2    47  MET47      -0.2867
     31  CB         9.7080  -11.9260  -32.9560 C.3    47  MET47       0.0387
     32  CG        10.1660  -13.2820  -33.4930 C.3    47  MET47       0.0595
     33  SD         8.8980  -14.5770  -33.5310 S.3    47  MET47      -0.1393
     34  CE         7.9730  -14.0090  -34.9680 C.3    47  MET47       0.0692
     35  N         -2.3990  -18.2430  -34.2250 N.3    69  LEU69      -0.1245
     36  CA        -1.4970  -17.2710  -33.5810 C.3    69  LEU69       0.1561
     37  C         -2.1220  -15.8560  -33.5730 C.2    69  LEU69       0.2260
     38  O         -1.9120  -15.0800  -32.6410 O.2    69  LEU69      -0.2867
     39  CB        -0.1210  -17.2630  -34.2600 C.3    69  LEU69       0.0270
     40  CG         0.7220  -18.5220  -34.0700 C.3    69  LEU69       0.0019
     41  CD1        1.8590  -18.6490  -35.0930 C.3    69  LEU69       0.0001
     42  CD2        1.2740  -18.5500  -32.6480 C.3    69  LEU69       0.0001
     43  N          1.1730  -23.1070  -40.7450 N.3    87  MET87      -0.1245
     44  CA         2.6420  -22.9630  -40.6380 C.3    87  MET87       0.1570
     45  C          3.4110  -23.1760  -41.9090 C.2    87  MET87       0.2261
     46  O          4.4150  -22.4900  -42.1480 O.2    87  MET87      -0.2867
     47  CB         3.2060  -23.9480  -39.6110 C.3    87  MET87       0.0387
     48  CG         2.8010  -23.6350  -38.1970 C.3    87  MET87       0.0595
     49  SD         3.7320  -22.2260  -37.5950 S.3    87  MET87      -0.1393
     50  CE         3.9350  -22.7230  -35.8820 C.3    87  MET87       0.0692
     51  N          3.0970  -20.1950  -44.0980 N.3    90  ARG90      -0.1231
     52  CA         3.8260  -19.1390  -43.3690 C.3    90  ARG90       0.1694
     53  C          5.2950  -19.1150  -43.7030 C.2    90  ARG90       0.2591
     54  O          5.8420  -18.0830  -44.0230 O.2    90  ARG90      -0.2718
     55  CB         3.6750  -19.2850  -41.8630 C.3    90  ARG90       0.0321
     56  CG         4.2050  -18.0880  -41.0910 C.3    90  ARG90       0.0489
     57  CD         4.8090  -18.4960  -39.7510 C.3    90  ARG90       0.2205
     58  NE         4.7890  -17.3820  -38.8210 N.pl3  90  ARG90      -0.0865
     59  CZ         5.1280  -17.4320  -37.5300 C.cat  90  ARG90       0.5346
     60  NH1        5.5680  -18.5460  -36.9490 N.pl3  90  ARG90       0.1354
     61  NH2        5.0390  -16.3340  -36.8150 N.pl3  90  ARG90       0.1354
     62  N          5.9100  -20.2790  -43.6460 N.am   91  LYS91      -0.1980
     63  CA         7.3080  -20.4090  -43.9730 C.3    91  LYS91       0.1596
     64  C          7.5830  -20.2460  -45.4470 C.2    91  LYS91       0.2287
     65  O          8.6670  -19.7650  -45.8100 O.2    91  LYS91      -0.2864
     66  CB         7.8740  -21.7510  -43.4710 C.3    91  LYS91       0.0298
     67  CG         7.9700  -21.8290  -41.9570 C.3    91  LYS91       0.0038
     68  CD         8.7300  -23.0740  -41.4940 C.3    91  LYS91       0.0206
     69  CE         7.8340  -24.3080  -41.4930 C.3    91  LYS91       0.1093
     70  NZ         8.4360  -25.4440  -40.7410 N.3    91  LYS91      -0.1314
     71  N         15.3120  -20.1480  -30.0590 N.3   107  GLY107     -0.1210
     72  CA        15.0890  -21.5130  -29.5700 C.3   107  GLY107      0.1956
     73  C         14.9780  -22.6210  -30.6260 C.2   107  GLY107      0.2612
     74  O         15.6050  -22.5730  -31.6860 O.2   107  GLY107     -0.2717
     75  N         14.1790  -23.6360  -30.3200 N.am  108  ALA108     -0.1965
     76  CA        13.9810  -24.7520  -31.2420 C.3   108  ALA108      0.1728
     77  C         13.2910  -24.3420  -32.5420 C.2   108  ALA108      0.2617
     78  O         13.6140  -24.8900  -33.6240 O.2   108  ALA108     -0.2715
     79  CB        13.2030  -25.8670  -30.5580 C.3   108  ALA108      0.0334
     80  N         12.3690  -23.3820  -32.4300 N.am  109  GLY109     -0.1940
     81  CA        11.6190  -22.8340  -33.5580 C.3   109  GLY109      0.2014
     82  C         12.5250  -22.1180  -34.5420 C.2   109  GLY109      0.2639
     83  O         12.4350  -22.2860  -35.7800 O.2   109  GLY109     -0.2714
     84  N         13.3920  -21.2900  -33.9830 N.am  110  THR110     -0.1950
     85  CA        14.4130  -20.6560  -34.7580 C.3   110  THR110      0.1897
     86  C         15.2910  -21.6820  -35.4470 C.2   110  THR110      0.2313
     87  O         15.5950  -21.5160  -36.6440 O.2   110  THR110     -0.2863
     88  CB        15.2560  -19.7320  -33.8730 C.3   110  THR110      0.1794
     89  OG1       14.3890  -18.7540  -33.2990 O.3   110  THR110     -0.2208
     90  CG2       16.3110  -19.0290  -34.6600 C.3   110  THR110      0.0378
     91  N         14.6160  -24.8840  -36.2510 N.3   112  GLU112     -0.1231
     92  CA        13.7990  -25.5160  -37.2970 C.3   112  GLU112      0.1699
     93  C         13.7570  -24.5980  -38.5100 C.2   112  GLU112      0.2592
     94  O         14.1950  -24.9900  -39.5800 O.2   112  GLU112     -0.2718
     95  CB        12.3970  -25.8230  -36.7790 C.3   112  GLU112      0.0402
     96  CG        11.5770  -26.7420  -37.6520 C.3   112  GLU112      0.1161
     97  CD        11.0530  -26.1140  -38.9460 C.2   112  GLU112      0.3649
     98  OE1       11.1730  -26.7930  -40.0020 O.co2 112  GLU112     -0.2457
     99  OE2       10.5020  -24.9750  -38.9200 O.co2 112  GLU112     -0.2457
    100  N         13.3270  -23.3540  -38.3230 N.am  113  GLU113     -0.1979
    101  CA        13.2530  -22.4000  -39.4670 C.3   113  GLU113      0.1602
    102  C         14.5700  -22.3730  -40.2160 C.2   113  GLU113      0.2287
    103  O         14.6140  -22.5780  -41.4320 O.2   113  GLU113     -0.2864
    104  CB        12.8600  -20.9870  -39.0190 C.3   113  GLU113      0.0415
    105  CG        11.4040  -20.8490  -38.5800 C.3   113  GLU113      0.1163
    106  CD        11.0920  -19.6270  -37.7050 C.2   113  GLU113      0.3649
    107  OE1       11.9920  -19.0500  -37.0000 O.co2 113  GLU113     -0.2457
    108  OE2        9.8970  -19.2620  -37.7160 O.co2 113  GLU113     -0.2457
@<TRIPOS>BOND
     1    65    64    2
     2    64    63    1
     3    51    52    1
     4    54    53    2
     5    63    62    1
     6    63    66    1
     7    53    62   am
     8    53    52    1
     9    66    67    1
    10    52    55    1
    11    46    45    2
    12    67    68    1
    13    45    44    1
    14    55    56    1
    15    68    69    1
    16    69    70    1
    17   103   102    2
    18    56    57    1
    19    43    44    1
    20    44    47    1
    21   102   101    1
    22    98    97   ar
    23    57    58    1
    24    47    48    1
    25    94    93    2
    26   101   104    1
    27   101   100    1
    28   104   105    1
    29    97    99   ar
    30    97    96    1
    31    58    59    2
    32    23    24    1
    33   105   106    1
    34    93   100   am
    35    93    92    1
    36    24    25    1
    37    48    49    1
    38    25    26    2
    39   108   106   ar
    40   106   107   ar
    41    96    95    1
    42    49    50    1
    43    59    60    1
    44    59    61    1
    45    92    95    1
    46    92    91    1
    47    87    86    2
    48    83    82    2
    49    86    85    1
    50     1     2    1
    51    41    40    1
    52    34    33    1
    53    85    84    1
    54    85    88    1
    55    90    88    1
    56    82    84   am
    57    82    81    1
    58    39    40    1
    59    39    36    1
    60    35    36    1
    61    40    42    1
    62     2     5    1
    63     2     3    1
    64     7     5    1
    65    88    89    1
    66     5     6    1
    67    78    77    2
    68    30    29    2
    69    36    37    1
    70    37    38    2
    71    81    80    1
    72    33    32    1
    73    32    31    1
    74     4     3    2
    75    31    28    1
    76     3     8   am
    77    28    29    1
    78    28    27    1
    79    77    80   am
    80    77    76    1
    81    74    73    2
    82     8     9    1
    83    76    79    1
    84    76    75    1
    85    73    75   am
    86    73    72    1
    87     9    10    1
    88    11    10    2
    89    10    12   am
    90    71    72    1
    91    12    13    1
    92    16    13    1
    93    16    17    1
    94    13    14    1
    95    14    15    2
    96    14    18   am
    97    21    20    2
    98    18    19    1
    99    20    19    1
   100    19    22    1
