@<TRIPOS>MOLECULE
tmp/5zbmB00.pdb
 212 206 0 0 0
SMALL
GASTEIGER

@<TRIPOS>ATOM
      1  N         51.4330  -56.8580  -33.5240 N.3    23  TYR23      -0.1227
      2  CA        50.5690  -56.2530  -34.5400 C.3    23  TYR23       0.1736
      3  C         51.3930  -55.6060  -35.6460 C.2    23  TYR23       0.2595
      4  O         51.1200  -55.8100  -36.8200 O.2    23  TYR23      -0.2718
      5  CB        49.6100  -55.2100  -33.9560 C.3    23  TYR23       0.0548
      6  CG        48.7660  -54.5900  -35.0410 C.ar   23  TYR23      -0.0200
      7  CD1       47.7400  -55.3120  -35.6340 C.ar   23  TYR23      -0.0009
      8  CD2       49.0330  -53.3120  -35.5230 C.ar   23  TYR23      -0.0009
      9  CE1       46.9770  -54.7690  -36.6550 C.ar   23  TYR23       0.0417
     10  CE2       48.2680  -52.7550  -36.5350 C.ar   23  TYR23       0.0417
     11  CZ        47.2470  -53.4910  -37.1040 C.ar   23  TYR23       0.1957
     12  OH        46.4850  -52.9520  -38.1130 O.3    23  TYR23      -0.2866
     13  N         52.4010  -54.8360  -35.2510 N.am   24  TYR24      -0.1976
     14  CA        53.2640  -54.1320  -36.1980 C.3    24  TYR24       0.1639
     15  C         54.2690  -55.0430  -36.8920 C.2    24  TYR24       0.2290
     16  O         54.4190  -54.9940  -38.1110 O.2    24  TYR24      -0.2864
     17  CB        54.0120  -52.9970  -35.4860 C.3    24  TYR24       0.0560
     18  CG        53.1070  -51.9030  -34.9520 C.ar   24  TYR24      -0.0198
     19  CD1       52.1650  -51.2910  -35.7780 C.ar   24  TYR24      -0.0009
     20  CD2       53.2030  -51.4630  -33.6320 C.ar   24  TYR24      -0.0009
     21  CE1       51.3430  -50.2890  -35.3130 C.ar   24  TYR24       0.0417
     22  CE2       52.3760  -50.4560  -33.1570 C.ar   24  TYR24       0.0417
     23  CZ        51.4550  -49.8770  -34.0080 C.ar   24  TYR24       0.1957
     24  OH        50.6430  -48.8800  -33.5690 O.3    24  TYR24      -0.2866
     25  N         61.7590  -60.2790  -47.4360 N.3    37  ASN37      -0.1240
     26  CA        61.8260  -58.8320  -47.7060 C.3    37  ASN37       0.1653
     27  C         63.1570  -58.2120  -47.2750 C.2    37  ASN37       0.2266
     28  O         63.6810  -57.3480  -47.9700 O.2    37  ASN37      -0.2867
     29  CB        60.6630  -58.0820  -47.0310 C.3    37  ASN37       0.1155
     30  CG        59.3860  -58.1000  -47.8540 C.2    37  ASN37       0.2627
     31  OD1       59.3570  -58.5880  -48.9740 O.2    37  ASN37      -0.2716
     32  ND2       58.3180  -57.5500  -47.2920 N.am   37  ASN37      -0.0877
     33  N         55.6240  -45.1980  -45.4740 N.3    75  ALA75      -0.1231
     34  CA        54.5380  -46.0560  -45.9220 C.3    75  ALA75       0.1679
     35  C         53.3940  -45.9500  -44.9260 C.2    75  ALA75       0.2434
     36  O         53.6050  -45.5400  -43.7830 O.2    75  ALA75      -0.2733
     37  CB        55.0040  -47.4990  -46.0360 C.3    75  ALA75       0.0304
     38  N         52.1790  -46.3250  -45.3490 N.am   76  PRO76      -0.2718
     39  CA        51.0610  -46.3220  -44.4220 C.3    76  PRO76       0.1535
     40  C         51.0820  -47.5430  -43.4970 C.2    76  PRO76       0.2599
     41  O         51.2970  -48.6640  -43.9570 O.2    76  PRO76      -0.2715
     42  CB        49.8470  -46.3470  -45.3490 C.3    76  PRO76       0.0310
     43  CG        50.3160  -47.0650  -46.5670 C.3    76  PRO76       0.0237
     44  CD        51.7800  -46.7790  -46.6970 C.3    76  PRO76       0.0939
     45  N         50.8840  -47.3000  -42.2020 N.am   77  THR77      -0.1937
     46  CA        50.7500  -48.3460  -41.1940 C.3    77  THR77       0.2028
     47  C         49.6410  -47.9230  -40.2490 C.2    77  THR77       0.2642
     48  O         49.5950  -46.7700  -39.8150 O.2    77  THR77      -0.2714
     49  CB        52.0350  -48.4920  -40.3680 C.3    77  THR77       0.1808
     50  OG1       52.3510  -47.2320  -39.7620 O.3    77  THR77      -0.2208
     51  CG2       53.2040  -48.9450  -41.2400 C.3    77  THR77       0.0379
     52  N         48.7590  -48.8480  -39.9150 N.am   78  ALA78      -0.1977
     53  CA        47.6320  -48.5630  -39.0370 C.3    78  ALA78       0.1597
     54  C         47.9910  -48.1300  -37.6110 C.2    78  ALA78       0.2287
     55  O         49.0630  -48.4320  -37.0970 O.2    78  ALA78      -0.2864
     56  CB        46.7270  -49.7780  -38.9680 C.3    78  ALA78       0.0319
     57  N         47.6230  -44.0290  -43.1150 N.3   105  SER105     -0.1217
     58  CA        46.7420  -45.1890  -43.2000 C.3   105  SER105      0.1889
     59  C         45.2750  -44.8010  -43.0080 C.2   105  SER105      0.2288
     60  O         44.9450  -44.0430  -42.0930 O.2   105  SER105     -0.2866
     61  CB        47.1310  -46.2350  -42.1480 C.3   105  SER105      0.2089
     62  OG        46.0820  -47.1640  -41.9270 O.3   105  SER105     -0.2183
     63  N         43.3800  -46.7260  -41.6360 N.3   107  TRP107     -0.1241
     64  CA        43.2410  -47.1660  -40.2450 C.3   107  TRP107      0.1605
     65  C         44.1860  -46.4180  -39.3020 C.2   107  TRP107      0.2264
     66  O         44.6320  -46.9800  -38.3090 O.2   107  TRP107     -0.2867
     67  CB        43.5170  -48.6730  -40.1100 C.3   107  TRP107      0.0550
     68  CG        42.8410  -49.5570  -41.1100 C.ar  107  TRP107      0.0003
     69  CD1       41.7080  -49.2970  -41.8110 C.ar  107  TRP107      0.0946
     70  CD2       43.2540  -50.8680  -41.4870 C.ar  107  TRP107      0.0152
     71  NE1       41.3950  -50.3570  -42.6180 N.ar  107  TRP107     -0.2442
     72  CE2       42.3310  -51.3370  -42.4400 C.ar  107  TRP107      0.0810
     73  CE3       44.3270  -51.6930  -41.1180 C.ar  107  TRP107      0.0012
     74  CZ2       42.4430  -52.5920  -43.0300 C.ar  107  TRP107      0.0191
     75  CZ3       44.4410  -52.9340  -41.6980 C.ar  107  TRP107      0.0001
     76  CH2       43.5030  -53.3760  -42.6420 C.ar  107  TRP107      0.0015
     77  N         46.4450  -43.6780  -47.7370 N.3   126  GLN126     -0.1245
     78  CA        46.2030  -45.0800  -48.0070 C.3   126  GLN126      0.1566
     79  C         44.7180  -45.3470  -47.8410 C.2   126  GLN126      0.2260
     80  O         44.0780  -44.7930  -46.9450 O.2   126  GLN126     -0.2867
     81  CB        47.0400  -45.9390  -47.0730 C.3   126  GLN126      0.0367
     82  CG        46.9060  -47.4410  -47.2450 C.3   126  GLN126      0.0905
     83  CD        45.6300  -47.9910  -46.6420 C.2   126  GLN126      0.2608
     84  OE1       45.2380  -47.6260  -45.5340 O.2   126  GLN126     -0.2717
     85  NE2       44.9560  -48.8500  -47.3840 N.am  126  GLN126     -0.0878
     86  N         41.3370  -48.4220  -48.8690 N.3   128  TYR128     -0.1241
     87  CA        40.7250  -49.5610  -49.5150 C.3   128  TYR128      0.1605
     88  C         39.5060  -49.0380  -50.2560 C.2   128  TYR128      0.2264
     89  O         38.9010  -48.0500  -49.8310 O.2   128  TYR128     -0.2867
     90  CB        40.2730  -50.5620  -48.4660 C.3   128  TYR128      0.0534
     91  CG        41.4020  -51.1800  -47.6920 C.ar  128  TYR128     -0.0201
     92  CD1       41.9740  -50.5260  -46.6100 C.ar  128  TYR128     -0.0009
     93  CD2       41.8940  -52.4330  -48.0380 C.ar  128  TYR128     -0.0009
     94  CE1       43.0170  -51.0990  -45.8930 C.ar  128  TYR128      0.0417
     95  CE2       42.9310  -53.0130  -47.3290 C.ar  128  TYR128      0.0417
     96  CZ        43.4920  -52.3480  -46.2620 C.ar  128  TYR128      0.1957
     97  OH        44.5160  -52.9620  -45.5820 O.3   128  TYR128     -0.2866
     98  N         45.2050  -49.7900  -51.7230 N.3   154  THR154     -0.1218
     99  CA        45.6110  -51.1550  -51.4300 C.3   154  THR154      0.1862
    100  C         44.9210  -52.1100  -52.3910 C.2   154  THR154      0.2287
    101  O         43.7170  -52.3180  -52.2880 O.2   154  THR154     -0.2866
    102  CB        45.2360  -51.5190  -49.9850 C.3   154  THR154      0.1770
    103  OG1       45.8300  -50.5570  -49.1060 O.3   154  THR154     -0.2211
    104  CG2       45.7150  -52.9260  -49.6200 C.3   154  THR154      0.0375
    105  N         48.8020  -49.8380  -54.8890 N.3   224  LYS224     -0.1245
    106  CA        49.7230  -50.4290  -53.9170 C.3   224  LYS224      0.1561
    107  C         49.4180  -51.9040  -53.7200 C.2   224  LYS224      0.2260
    108  O         48.3660  -52.2590  -53.1790 O.2   224  LYS224     -0.2867
    109  CB        49.6310  -49.6970  -52.5730 C.3   224  LYS224      0.0271
    110  CG        50.7670  -50.0290  -51.6180 C.3   224  LYS224      0.0035
    111  CD        50.4700  -49.6110  -50.1860 C.3   224  LYS224      0.0206
    112  CE        51.1360  -50.5570  -49.1920 C.3   224  LYS224      0.1093
    113  NZ        50.6420  -51.9700  -49.2780 N.3   224  LYS224     -0.1314
    114  N         54.6120  -53.6600  -53.6340 N.3   246  SER246     -0.1217
    115  CA        54.4280  -53.8770  -52.2230 C.3   246  SER246      0.1889
    116  C         53.8320  -55.2630  -52.0570 C.2   246  SER246      0.2288
    117  O         53.0160  -55.6980  -52.8770 O.2   246  SER246     -0.2866
    118  CB        53.4740  -52.8230  -51.6740 C.3   246  SER246      0.2089
    119  OG        53.3740  -52.8950  -50.2670 O.3   246  SER246     -0.2183
    120  N         52.4190  -55.6810  -49.0440 N.3   248  HIS248     -0.1226
    121  CA        51.7120  -55.2520  -47.8430 C.3   248  HIS248      0.1752
    122  C         52.5740  -55.3430  -46.5830 C.2   248  HIS248      0.2596
    123  O         52.0490  -55.3870  -45.4940 O.2   248  HIS248     -0.2718
    124  CB        50.4260  -56.0810  -47.6940 C.3   248  HIS248      0.0759
    125  CG        49.3400  -55.4190  -46.9020 C.ar  248  HIS248      0.0818
    126  ND1       48.1430  -55.0420  -47.4670 N.ar  248  HIS248     -0.2268
    127  CD2       49.2380  -55.1320  -45.5840 C.ar  248  HIS248      0.1154
    128  CE1       47.3620  -54.5310  -46.5340 C.ar  248  HIS248      0.1986
    129  NE2       48.0040  -54.5750  -45.3820 N.ar  248  HIS248     -0.2212
    130  N         53.8970  -55.3250  -46.7190 N.am  249  GLY249     -0.1957
    131  CA        54.7840  -55.6080  -45.5890 C.3   249  GLY249      0.1869
    132  C         54.7730  -57.0730  -45.2210 C.2   249  GLY249      0.2309
    133  O         54.8950  -57.4290  -44.0480 O.2   249  GLY249     -0.2863
    134  N         52.4700  -59.2280  -44.9930 N.3   251  ARG251     -0.1245
    135  CA        51.4380  -59.5820  -44.0100 C.3   251  ARG251      0.1563
    136  C         50.0890  -59.9680  -44.6600 C.2   251  ARG251      0.2260
    137  O         49.0920  -60.1790  -43.9590 O.2   251  ARG251     -0.2867
    138  CB        51.2820  -58.4810  -42.9400 C.3   251  ARG251      0.0307
    139  CG        51.4660  -57.0580  -43.3970 C.3   251  ARG251      0.0489
    140  CD        51.8620  -56.0940  -42.2980 C.3   251  ARG251      0.2205
    141  NE        50.8140  -55.9020  -41.2930 N.pl3 251  ARG251     -0.0865
    142  CZ        50.9590  -56.0150  -39.9700 C.cat 251  ARG251      0.5346
    143  NH1       52.1260  -56.3320  -39.4040 N.pl3 251  ARG251      0.1354
    144  NH2       49.9080  -55.7950  -39.1850 N.pl3 251  ARG251      0.1354
    145  N         58.3070  -50.9370  -51.3650 N.3   279  ASP279     -0.1225
    146  CA        58.4520  -50.9640  -49.9170 C.3   279  ASP279      0.1805
    147  C         58.6120  -52.4080  -49.4640 C.2   279  ASP279      0.2598
    148  O         58.6130  -53.3100  -50.2920 O.2   279  ASP279     -0.2718
    149  CB        57.2840  -50.2330  -49.2430 C.3   279  ASP279      0.1424
    150  CG        55.9390  -50.8760  -49.4960 C.2   279  ASP279      0.3668
    151  OD1       55.8600  -52.0920  -49.7650 O.co2 279  ASP279     -0.2456
    152  OD2       54.9350  -50.1500  -49.3930 O.co2 279  ASP279     -0.2456
    153  N         58.7700  -52.6300  -48.1670 N.am  280  GLY280     -0.1942
    154  CA        58.8890  -53.9930  -47.6420 C.3   280  GLY280      0.2014
    155  C         60.3360  -54.4160  -47.5500 C.2   280  GLY280      0.2639
    156  O         60.9330  -54.8160  -48.5490 O.2   280  GLY280     -0.2714
    157  N         60.8920  -54.3030  -46.3460 N.am  281  GLY281     -0.1939
    158  CA        62.2550  -54.7230  -46.0570 C.3   281  GLY281      0.2014
    159  C         63.3180  -53.6470  -46.1230 C.2   281  GLY281      0.2639
    160  O         64.4860  -53.9310  -45.8520 O.2   281  GLY281     -0.2714
    161  N         62.9470  -52.4220  -46.4890 N.am  282  VAL282     -0.1963
    162  CA        63.9260  -51.3350  -46.5730 C.3   282  VAL282      0.1727
    163  C         64.2530  -50.8630  -45.1560 C.2   282  VAL282      0.2616
    164  O         63.4030  -50.2910  -44.4600 O.2   282  VAL282     -0.2715
    165  CB        63.4530  -50.1560  -47.4540 C.3   282  VAL282      0.0290
    166  CG1       64.5040  -49.0540  -47.4540 C.3   282  VAL282      0.0023
    167  CG2       63.1860  -50.6400  -48.8740 C.3   282  VAL282      0.0023
    168  N         65.4730  -51.1800  -44.7280 N.am  283  ARG283     -0.1977
    169  CA        66.0140  -50.7530  -43.4420 C.3   283  ARG283      0.1597
    170  C         67.3620  -50.0280  -43.5710 C.2   283  ARG283      0.2287
    171  O         67.8430  -49.4420  -42.6030 O.2   283  ARG283     -0.2864
    172  CB        66.1830  -51.9820  -42.5520 C.3   283  ARG283      0.0334
    173  CG        64.9180  -52.8100  -42.3580 C.3   283  ARG283      0.0492
    174  CD        63.9390  -52.1160  -41.4340 C.3   283  ARG283      0.2205
    175  NE        62.7430  -52.9230  -41.1950 N.pl3 283  ARG283     -0.0865
    176  CZ        61.6890  -53.0130  -42.0140 C.cat 283  ARG283      0.5346
    177  NH1       61.6480  -52.3410  -43.1660 N.pl3 283  ARG283      0.1354
    178  NH2       60.6560  -53.7820  -41.6760 N.pl3 283  ARG283      0.1354
    179  N         59.0990  -46.6450  -49.9480 N.3   300  PHE300     -0.1227
    180  CA        58.4490  -46.3390  -48.6880 C.3   300  PHE300      0.1736
    181  C         58.9600  -47.2580  -47.5740 C.2   300  PHE300      0.2595
    182  O         59.4000  -48.3830  -47.8300 O.2   300  PHE300     -0.2718
    183  CB        56.9320  -46.4520  -48.7980 C.3   300  PHE300      0.0547
    184  CG        56.3230  -45.5940  -49.8650 C.ar  300  PHE300     -0.0202
    185  CD1       56.1750  -46.0700  -51.1630 C.ar  300  PHE300     -0.0042
    186  CD2       55.8510  -44.3200  -49.5610 C.ar  300  PHE300     -0.0042
    187  CE1       55.5910  -45.2790  -52.1430 C.ar  300  PHE300     -0.0003
    188  CE2       55.2730  -43.5220  -50.5370 C.ar  300  PHE300     -0.0003
    189  CZ        55.1420  -44.0050  -51.8290 C.ar  300  PHE300     -0.0000
    190  N         58.8880  -46.7620  -46.3410 N.am  301  ILE301     -0.1966
    191  CA        59.2120  -47.5390  -45.1370 C.3   301  ILE301      0.1727
    192  C         57.9980  -47.5500  -44.2130 C.2   301  ILE301      0.2617
    193  O         57.3920  -46.5060  -43.9730 O.2   301  ILE301     -0.2715
    194  CB        60.4480  -46.9920  -44.3820 C.3   301  ILE301      0.0290
    195  CG1       60.3870  -45.4700  -44.1930 C.3   301  ILE301      0.0022
    196  CG2       61.7300  -47.3610  -45.1270 C.3   301  ILE301      0.0023
    197  CD1       61.2210  -44.9720  -43.0350 C.3   301  ILE301      0.0001
    198  N         57.6190  -48.7250  -43.7230 N.am  302  GLY302     -0.1940
    199  CA        56.4710  -48.8550  -42.8320 C.3   302  GLY302      0.2014
    200  C         56.9350  -49.0410  -41.4040 C.2   302  GLY302      0.2638
    201  O         57.0920  -48.0810  -40.6550 O.2   302  GLY302     -0.2714
    202  N         57.1870  -50.2960  -41.0530 N.am  303  ARG303     -0.1977
    203  CA        57.5190  -50.6920  -39.6900 C.3   303  ARG303      0.1597
    204  C         58.5550  -49.8320  -38.9630 C.2   303  ARG303      0.2287
    205  O         58.3410  -49.5030  -37.7980 O.2   303  ARG303     -0.2864
    206  CB        57.9530  -52.1550  -39.6600 C.3   303  ARG303      0.0334
    207  CG        56.8020  -53.1410  -39.7030 C.3   303  ARG303      0.0492
    208  CD        57.3290  -54.5600  -39.6960 C.3   303  ARG303      0.2205
    209  NE        56.3130  -55.5320  -40.0890 N.pl3 303  ARG303     -0.0865
    210  CZ        56.0990  -55.9880  -41.3290 C.cat 303  ARG303      0.5346
    211  NH1       56.8140  -55.5710  -42.3810 N.pl3 303  ARG303      0.1354
    212  NH2       55.1430  -56.8910  -41.5220 N.pl3 303  ARG303      0.1354
@<TRIPOS>BOND
     1   105   106    1
     2   106   107    1
     3   106   109    1
     4   107   108    2
     5   114   115    1
     6   117   116    2
     7   109   110    1
     8   100   101    2
     9   100    99    1
    10   115   116    1
    11   115   118    1
    12   187   189   ar
    13   187   185   ar
    14   189   188   ar
    15    98    99    1
    16   118   119    1
    17   110   111    1
    18    99   102    1
    19   145   146    1
    20   185   184   ar
    21   188   186   ar
    22   148   147    2
    23    88    89    2
    24    88    87    1
    25   111   112    1
    26   102   104    1
    27   102   103    1
    28   179   180    1
    29   146   147    1
    30   146   149    1
    31   184   186   ar
    32   184   183    1
    33   151   150   ar
    34    87    86    1
    35    87    90    1
    36   150   152   ar
    37   150   149    1
    38   147   153   am
    39   113   112    1
    40   120   121    1
    41    31    30    2
    42   167   165    1
    43   183   180    1
    44   180   181    1
    45   156   155    2
    46    90    91    1
    47   153   154    1
    48    93    91   ar
    49    93    95   ar
    50    78    79    1
    51    78    77    1
    52    78    81    1
    53    28    27    2
    54    30    32   am
    55    30    29    1
    56   121   124    1
    57   121   122    1
    58    79    80    2
    59   182   181    2
    60    26    25    1
    61    26    27    1
    62    26    29    1
    63   124   125    1
    64    91    92   ar
    65   154   155    1
    66   181   190   am
    67   155   157   am
    68   126   125   ar
    69   126   128   ar
    70   166   165    1
    71   165   162    1
    72    85    83   am
    73    95    96   ar
    74    82    81    1
    75    82    83    1
    76   125   127   ar
    77   130   122   am
    78   130   131    1
    79    44    43    1
    80    44    38    1
    81    83    84    2
    82    92    94   ar
    83   122   123    2
    84   162   161    1
    85   162   163    1
    86    43    42    1
    87   128   129   ar
    88   161   159   am
    89   157   158    1
    90   190   191    1
    91    96    94   ar
    92    96    97    1
    93   159   158    1
    94   159   160    2
    95    37    34    1
    96    34    33    1
    97    34    35    1
    98   131   132    1
    99   127   129   ar
   100    38    35   am
   101    38    39    1
   102    42    39    1
   103   132   133    2
   104   163   168   am
   105   163   164    2
   106   191   194    1
   107   191   192    1
   108   196   194    1
   109   134   135    1
   110    35    36    2
   111   168   169    1
   112   136   135    1
   113   136   137    2
   114    39    40    1
   115   194   195    1
   116   192   193    2
   117   192   198   am
   118   195   197    1
   119   135   138    1
   120    41    40    2
   121   198   199    1
   122   170   169    1
   123   170   171    2
   124    40    45   am
   125   169   172    1
   126   139   138    1
   127   139   140    1
   128    58    57    1
   129    58    59    1
   130    58    61    1
   131   177   176    1
   132    74    76   ar
   133    74    72   ar
   134    59    60    2
   135   199   200    1
   136    76    75   ar
   137    71    72   ar
   138    71    69   ar
   139   172   173    1
   140    72    70   ar
   141   211   210    1
   142   173   174    1
   143   140   141    1
   144    45    46    1
   145    61    62    1
   146   176   178    1
   147   176   175    2
   148    69    68   ar
   149    75    73   ar
   150    63    64    1
   151   212   210    1
   152    70    73   ar
   153    70    68   ar
   154   174   175    1
   155   200   202   am
   156   200   201    2
   157   210   209    2
   158   141   142    2
   159    51    49    1
   160    46    49    1
   161    46    47    1
   162    68    67    1
   163   202   203    1
   164    49    50    1
   165    47    52   am
   166    47    48    2
   167    64    67    1
   168    64    65    1
   169   209   208    1
   170   142   143    1
   171   142   144    1
   172    52    53    1
   173   207   208    1
   174   207   206    1
   175   203   206    1
   176   203   204    1
   177    65    66    2
   178    53    56    1
   179    53    54    1
   180   204   205    2
   181    12    11    1
   182    16    15    2
   183    54    55    2
   184    11     9   ar
   185    11    10   ar
   186    15    14    1
   187     4     3    2
   188     9     7   ar
   189    10     8   ar
   190    14    17    1
   191    14    13    1
   192    19    21   ar
   193    19    18   ar
   194     3    13   am
   195     3     2    1
   196     7     6   ar
   197     8     6   ar
   198    17    18    1
   199    21    23   ar
   200     6     5    1
   201    18    20   ar
   202     2     5    1
   203     2     1    1
   204    23    24    1
   205    23    22   ar
   206    20    22   ar
