@<TRIPOS>MOLECULE
tmp/5zbrB00.pdb
 150 144 0 0 0
SMALL
GASTEIGER

@<TRIPOS>ATOM
      1  N        -60.9490   40.5280   36.9100 N.3     8  ARG8       -0.1245
      2  CA       -60.5590   39.2100   36.4200 C.3     8  ARG8        0.1563
      3  C        -60.2080   38.3020   37.5870 C.2     8  ARG8        0.2260
      4  O        -59.3600   38.6620   38.4170 O.2     8  ARG8       -0.2867
      5  CB       -59.3650   39.2880   35.4740 C.3     8  ARG8        0.0307
      6  CG       -58.9870   37.9430   34.8710 C.3     8  ARG8        0.0489
      7  CD       -57.8410   38.1060   33.8510 C.3     8  ARG8        0.2205
      8  NE       -57.7820   37.0170   32.8840 N.pl3   8  ARG8       -0.0865
      9  CZ       -56.7540   36.8280   32.0520 C.cat   8  ARG8        0.5346
     10  NH1      -55.7190   37.6520   32.0790 N.pl3   8  ARG8        0.1354
     11  NH2      -56.7630   35.8280   31.1800 N.pl3   8  ARG8        0.1354
     12  N        -58.6300   34.7250   38.8320 N.3    10  ARG10      -0.1231
     13  CA       -57.6930   33.6830   38.4300 C.3    10  ARG10       0.1679
     14  C        -58.1770   32.3110   38.8990 C.2    10  ARG10       0.2434
     15  O        -59.0060   32.2170   39.8060 O.2    10  ARG10      -0.2733
     16  CB       -56.3120   33.9950   38.9960 C.3    10  ARG10       0.0321
     17  CG       -56.1810   33.8770   40.5120 C.3    10  ARG10       0.0489
     18  CD       -54.7440   33.4260   40.8710 C.3    10  ARG10       0.2205
     19  NE       -54.4650   33.5060   42.3100 N.pl3  10  ARG10      -0.0865
     20  CZ       -54.8150   32.5850   43.1990 C.cat  10  ARG10       0.5346
     21  NH1      -55.4570   31.4850   42.8020 N.pl3  10  ARG10       0.1354
     22  NH2      -54.5220   32.7660   44.4890 N.pl3  10  ARG10       0.1354
     23  N        -57.6990   31.2290   38.2770 N.am   11  PRO11      -0.2729
     24  CA       -58.1130   29.8910   38.7100 C.3    11  PRO11       0.1401
     25  C        -57.6660   29.6270   40.1380 C.2    11  PRO11       0.2269
     26  O        -56.7320   30.2560   40.6450 O.2    11  PRO11      -0.2865
     27  CB       -57.3920   28.9460   37.7290 C.3    11  PRO11       0.0296
     28  CG       -56.8670   29.8140   36.6490 C.3    11  PRO11       0.0237
     29  CD       -56.6620   31.1640   37.2350 C.3    11  PRO11       0.0939
     30  N        -61.7360   33.5730   34.6850 N.3    51  SER51      -0.1217
     31  CA       -60.6150   32.9070   34.0550 C.3    51  SER51       0.1889
     32  C        -60.2440   31.6620   34.8440 C.2    51  SER51       0.2288
     33  O        -59.0720   31.3490   35.0310 O.2    51  SER51      -0.2866
     34  CB       -59.4490   33.8820   33.8930 C.3    51  SER51       0.2089
     35  OG       -59.7710   34.8810   32.9100 O.3    51  SER51      -0.2183
     36  N        -65.6660   30.9920   30.3080 N.3    60  TYR60      -0.1241
     37  CA       -64.2450   31.2170   30.5110 C.3    60  TYR60       0.1605
     38  C        -63.7080   32.3500   29.6390 C.2    60  TYR60       0.2264
     39  O        -64.0340   32.4580   28.4530 O.2    60  TYR60      -0.2867
     40  CB       -63.4930   29.9250   30.2010 C.3    60  TYR60       0.0534
     41  CG       -62.0000   30.0960   30.2250 C.ar   60  TYR60      -0.0201
     42  CD1      -61.3050   30.0010   31.4250 C.ar   60  TYR60      -0.0009
     43  CD2      -61.2810   30.3540   29.0600 C.ar   60  TYR60      -0.0009
     44  CE1      -59.9340   30.1530   31.4730 C.ar   60  TYR60       0.0417
     45  CE2      -59.9050   30.5240   29.0940 C.ar   60  TYR60       0.0417
     46  CZ       -59.2380   30.4170   30.3080 C.ar   60  TYR60       0.1957
     47  OH       -57.8820   30.5630   30.3810 O.3    60  TYR60      -0.2866
     48  N        -53.9900   42.1630   44.5250 N.3    91  GLN91      -0.1231
     49  CA       -53.0480   41.6410   45.5030 C.3    91  GLN91       0.1698
     50  C        -52.0190   40.7530   44.8160 C.2    91  GLN91       0.2593
     51  O        -52.2410   40.2370   43.7150 O.2    91  GLN91      -0.2718
     52  CB       -53.7960   40.8870   46.6100 C.3    91  GLN91       0.0381
     53  CG       -54.1580   39.4590   46.2580 C.3    91  GLN91       0.0905
     54  CD       -54.7770   38.7190   47.4350 C.2    91  GLN91       0.2608
     55  OE1      -55.9500   38.3660   47.4010 O.2    91  GLN91      -0.2717
     56  NE2      -53.9870   38.4990   48.4900 N.am   91  GLN91      -0.0878
     57  N        -50.8560   40.6250   45.4530 N.am   92  THR92      -0.1939
     58  CA       -49.8200   39.7260   44.9550 C.3    92  THR92       0.2028
     59  C        -50.3920   38.3300   44.7430 C.2    92  THR92       0.2643
     60  O        -51.1080   37.8050   45.5940 O.2    92  THR92      -0.2714
     61  CB       -48.6480   39.6820   45.9330 C.3    92  THR92       0.1808
     62  OG1      -48.0180   40.9610   45.9470 O.3    92  THR92      -0.2208
     63  CG2      -47.6160   38.6380   45.5080 C.3    92  THR92       0.0379
     64  N        -50.1120   37.7570   43.5750 N.am   93  GLY93      -0.1939
     65  CA       -50.5890   36.4450   43.2150 C.3    93  GLY93       0.2014
     66  C        -51.9610   36.3950   42.5620 C.2    93  GLY93       0.2640
     67  O        -52.4490   35.2950   42.2970 O.2    93  GLY93      -0.2714
     68  N        -52.6040   37.5400   42.2890 N.am   94  SER94      -0.1935
     69  CA       -53.9720   37.5180   41.7700 C.3    94  SER94       0.2055
     70  C        -54.0560   37.5480   40.2450 C.2    94  SER94       0.2644
     71  O        -55.1190   37.2300   39.7000 O.2    94  SER94      -0.2714
     72  CB       -54.7850   38.6920   42.3120 C.3    94  SER94       0.2130
     73  OG       -54.2280   39.9460   41.9270 O.3    94  SER94      -0.2179
     74  N        -52.9960   37.9640   39.5510 N.am   95  GLY95      -0.1939
     75  CA       -52.9770   37.9580   38.0910 C.3    95  GLY95       0.2014
     76  C        -52.5830   39.2390   37.3640 C.2    95  GLY95       0.2639
     77  O        -52.8260   39.3370   36.1570 O.2    95  GLY95      -0.2714
     78  N        -51.9620   40.2150   38.0440 N.am   96  LYS96      -0.1963
     79  CA       -51.5870   41.4590   37.3630 C.3    96  LYS96       0.1728
     80  C        -50.6060   41.2010   36.2180 C.2    96  LYS96       0.2617
     81  O        -50.8340   41.6390   35.0890 O.2    96  LYS96      -0.2715
     82  CB       -50.9880   42.4630   38.3550 C.3    96  LYS96       0.0311
     83  CG       -52.0270   42.9710   39.4040 C.3    96  LYS96       0.0038
     84  CD       -51.4100   43.9330   40.4330 C.3    96  LYS96       0.0206
     85  CE       -50.1820   43.3320   41.1500 C.3    96  LYS96       0.1093
     86  NZ       -50.5290   42.0960   41.9660 N.3    96  LYS96      -0.1314
     87  N        -49.4960   40.5140   36.4970 N.am   97  SER97      -0.1936
     88  CA       -48.4840   40.3110   35.4600 C.3    97  SER97       0.2055
     89  C        -48.9670   39.3430   34.3990 C.2    97  SER97       0.2643
     90  O        -48.6300   39.4800   33.2120 O.2    97  SER97      -0.2714
     91  CB       -47.1930   39.7890   36.0800 C.3    97  SER97       0.2130
     92  OG       -46.6690   40.7770   36.9360 O.3    97  SER97      -0.2179
     93  N        -49.7420   38.3400   34.8100 N.am   98  TYR98      -0.1959
     94  CA       -50.3380   37.4400   33.8310 C.3    98  TYR98       0.1771
     95  C        -51.2440   38.2060   32.8670 C.2    98  TYR98       0.2620
     96  O        -51.2490   37.9480   31.6580 O.2    98  TYR98      -0.2715
     97  CB       -51.1010   36.3310   34.5530 C.3    98  TYR98       0.0574
     98  CG       -51.6210   35.2700   33.6260 C.ar   98  TYR98      -0.0198
     99  CD1      -50.8000   34.2060   33.2150 C.ar   98  TYR98      -0.0009
    100  CD2      -52.9160   35.3390   33.1330 C.ar   98  TYR98      -0.0009
    101  CE1      -51.2640   33.2370   32.3500 C.ar   98  TYR98       0.0417
    102  CE2      -53.3970   34.3630   32.2500 C.ar   98  TYR98       0.0417
    103  CZ       -52.5630   33.3130   31.8800 C.ar   98  TYR98       0.1957
    104  OH       -53.0280   32.3480   31.0290 O.3    98  TYR98      -0.2866
    105  N        -51.9740   39.1970   33.3680 N.am   99  THR99      -0.1951
    106  CA       -52.8710   39.9300   32.4760 C.3    99  THR99       0.1897
    107  C        -52.0920   40.8740   31.5720 C.2    99  THR99       0.2313
    108  O        -52.4060   41.0080   30.3760 O.2    99  THR99      -0.2863
    109  CB       -53.9050   40.7070   33.2970 C.3    99  THR99       0.1794
    110  OG1      -54.7060   39.7820   34.0560 O.3    99  THR99      -0.2208
    111  CG2      -54.8010   41.5500   32.3760 C.3    99  THR99       0.0378
    112  N        -47.3330   34.9700   29.8140 N.3   103  THR103     -0.1218
    113  CA       -46.2190   34.0400   29.7520 C.3   103  THR103      0.1862
    114  C        -45.8640   33.7920   28.2910 C.2   103  THR103      0.2287
    115  O        -46.5550   34.2540   27.3850 O.2   103  THR103     -0.2866
    116  CB       -46.5890   32.7160   30.4260 C.3   103  THR103      0.1770
    117  OG1      -47.6680   32.1180   29.6810 O.3   103  THR103     -0.2211
    118  CG2      -47.0540   32.9730   31.8660 C.3   103  THR103      0.0375
    119  N        -39.3600   41.5030   43.5960 N.3   196  SER196     -0.1202
    120  CA       -40.1580   42.2560   44.5570 C.3   196  SER196      0.2020
    121  C        -41.5650   42.5320   44.0400 C.2   196  SER196      0.2619
    122  O        -41.7560   42.9160   42.8850 O.2   196  SER196     -0.2717
    123  CB       -39.4840   43.5850   44.9000 C.3   196  SER196      0.2103
    124  OG       -40.3070   44.3350   45.7800 O.3   196  SER196     -0.2182
    125  N        -42.5430   42.3610   44.9250 N.am  197  SER197     -0.1951
    126  CA       -43.9420   42.6780   44.6580 C.3   197  SER197      0.1924
    127  C        -44.3170   44.0980   45.0670 C.2   197  SER197      0.2314
    128  O        -45.4860   44.4730   44.9400 O.2   197  SER197     -0.2863
    129  CB       -44.8500   41.6900   45.4000 C.3   197  SER197      0.2116
    130  OG       -44.4830   41.6330   46.7770 O.3   197  SER197     -0.2180
    131  N        -48.3580   47.7680   35.4060 N.3   230  ASP230     -0.1225
    132  CA       -48.4280   46.5730   36.2450 C.3   230  ASP230      0.1805
    133  C        -48.0480   47.0290   37.6720 C.2   230  ASP230      0.2597
    134  O        -46.8760   47.2720   37.9600 O.2   230  ASP230     -0.2718
    135  CB       -47.4770   45.5090   35.6780 C.3   230  ASP230      0.1424
    136  CG       -47.5440   44.1770   36.4180 C.2   230  ASP230      0.3668
    137  OD1      -48.2400   44.1310   37.4450 O.co2 230  ASP230     -0.2456
    138  OD2      -46.8940   43.1950   36.0150 O.co2 230  ASP230     -0.2456
    139  N        -49.0430   47.2260   38.5320 N.am  231  LEU231     -0.1979
    140  CA       -48.8270   47.8720   39.8330 C.3   231  LEU231      0.1596
    141  C        -48.1650   46.9230   40.8430 C.2   231  LEU231      0.2287
    142  O        -48.1440   45.7040   40.6700 O.2   231  LEU231     -0.2864
    143  CB       -50.1600   48.3800   40.4130 C.3   231  LEU231      0.0297
    144  CG       -50.9430   49.4680   39.6760 C.3   231  LEU231      0.0022
    145  CD1      -52.2640   49.7650   40.3610 C.3   231  LEU231      0.0001
    146  CD2      -50.0960   50.7090   39.6180 C.3   231  LEU231      0.0001
    147  N        -48.2990   44.9880   44.4480 N.3   233  GLY233     -0.1225
    148  CA       -49.4360   44.2490   44.9840 C.3   233  GLY233      0.1811
    149  C        -50.1650   45.0440   46.0530 C.2   233  GLY233      0.2280
    150  O        -49.5520   45.6620   46.9230 O.2   233  GLY233     -0.2866
@<TRIPOS>BOND
     1   115   114    2
     2   114   113    1
     3    39    38    2
     4    43    45   ar
     5    43    41   ar
     6    45    46   ar
     7    38    37    1
     8   117   116    1
     9   113   112    1
    10   113   116    1
    11    40    41    1
    12    40    37    1
    13    41    42   ar
    14    36    37    1
    15    46    47    1
    16    46    44   ar
    17   108   107    2
    18   116   118    1
    19   104   103    1
    20    11     9    1
    21    42    44   ar
    22   107   106    1
    23    96    95    2
    24   103   102   ar
    25   103   101   ar
    26     9    10    1
    27     9     8    2
    28   102   100   ar
    29   101    99   ar
    30   111   109    1
    31   106   109    1
    32   106   105    1
    33    95   105   am
    34    95    94    1
    35     8     7    1
    36    35    34    1
    37   100    98   ar
    38    90    89    2
    39    99    98   ar
    40   109   110    1
    41    98    97    1
    42    94    97    1
    43    94    93    1
    44     7     6    1
    45    34    31    1
    46    31    30    1
    47    31    32    1
    48    89    93   am
    49    89    88    1
    50    32    33    2
    51     6     5    1
    52    81    80    2
    53   131   132    1
    54    88    91    1
    55    88    87    1
    56     5     2    1
    57   135   132    1
    58   135   136    1
    59   138   136   ar
    60    91    92    1
    61    77    76    2
    62    80    87   am
    63    80    79    1
    64   132   133    1
    65   136   137   ar
    66     2     1    1
    67     2     3    1
    68    28    29    1
    69    28    27    1
    70    29    23    1
    71    79    78    1
    72    79    82    1
    73    76    78   am
    74    76    75    1
    75     3     4    2
    76   133   134    2
    77   133   139   am
    78    27    24    1
    79    75    74    1
    80    23    24    1
    81    23    14   am
    82    82    83    1
    83    13    12    1
    84    13    14    1
    85    13    16    1
    86   139   140    1
    87    24    25    1
    88    14    15    2
    89    16    17    1
    90    83    84    1
    91    74    70   am
    92   146   144    1
    93   144   145    1
    94   144   143    1
    95    71    70    2
    96   140   143    1
    97   140   141    1
    98    25    26    2
    99    70    69    1
   100    84    85    1
   101    17    18    1
   102   142   141    2
   103    18    19    1
   104    85    86    1
   105    69    68    1
   106    69    72    1
   107    73    72    1
   108    68    66   am
   109    67    66    2
   110    19    20    2
   111    66    65    1
   112    21    20    1
   113   122   121    2
   114    20    22    1
   115    65    64    1
   116    64    59   am
   117   119   120    1
   118    51    50    2
   119   121   120    1
   120   121   125   am
   121   147   148    1
   122    48    49    1
   123   120   123    1
   124   126   125    1
   125   126   127    1
   126   126   129    1
   127    59    58    1
   128    59    60    2
   129    50    57   am
   130    50    49    1
   131   123   124    1
   132   128   127    2
   133    58    57    1
   134    58    61    1
   135   148   149    1
   136   129   130    1
   137    49    52    1
   138    63    61    1
   139    61    62    1
   140   149   150    2
   141    53    52    1
   142    53    54    1
   143    55    54    2
   144    54    56   am
