@<TRIPOS>MOLECULE
tmp/5zbyA00.pdb
 143 138 0 0 0
SMALL
GASTEIGER

@<TRIPOS>ATOM
      1  N         22.2990   45.5750   57.9720 N.3    18  ILE18      -0.1231
      2  CA        22.5770   44.4480   57.1160 C.3    18  ILE18       0.1692
      3  C         23.1290   44.9990   55.8320 C.2    18  ILE18       0.2592
      4  O         22.6030   45.9620   55.2840 O.2    18  ILE18      -0.2718
      5  CB        21.2780   43.6110   56.7990 C.3    18  ILE18       0.0266
      6  CG1       20.6930   43.0740   58.1210 C.3    18  ILE18       0.0019
      7  CG2       21.5830   42.4110   55.8900 C.3    18  ILE18       0.0020
      8  CD1       19.3170   42.4670   57.8860 C.3    18  ILE18       0.0001
      9  N         24.2000   44.3940   55.3100 N.am   19  GLY19      -0.1957
     10  CA        24.6430   44.8210   53.9840 C.3    19  GLY19       0.1869
     11  C         26.0910   44.4490   53.7460 C.2    19  GLY19       0.2309
     12  O         26.6540   43.6670   54.5070 O.2    19  GLY19      -0.2863
     13  N         29.7540   46.3540   48.0160 N.3    23  ARG23      -0.1245
     14  CA        28.7960   45.9370   47.0050 C.3    23  ARG23       0.1563
     15  C         27.8550   47.0580   46.5670 C.2    23  ARG23       0.2260
     16  O         26.6560   46.8750   46.5180 O.2    23  ARG23      -0.2867
     17  CB        28.0190   44.6940   47.4200 C.3    23  ARG23       0.0307
     18  CG        27.6710   43.8050   46.2420 C.3    23  ARG23       0.0489
     19  CD        27.2860   42.4050   46.6710 C.3    23  ARG23       0.2205
     20  NE        26.0760   42.4050   47.4790 N.pl3  23  ARG23      -0.0865
     21  CZ        25.8390   41.5380   48.4550 C.cat  23  ARG23       0.5346
     22  NH1       26.7320   40.6050   48.7410 N.pl3  23  ARG23       0.1354
     23  NH2       24.7120   41.6090   49.1440 N.pl3  23  ARG23       0.1354
     24  N         24.3530   48.2610   48.1240 N.3    26  ASP26      -0.1239
     25  CA        24.1370   47.2730   49.2180 C.3    26  ASP26       0.1674
     26  C         24.9090   47.6220   50.4790 C.2    26  ASP26       0.2266
     27  O         24.7000   46.9780   51.5270 O.2    26  ASP26      -0.2867
     28  CB        24.5300   45.8620   48.7510 C.3    26  ASP26       0.1410
     29  CG        23.3690   45.1020   48.1620 C.2    26  ASP26       0.3668
     30  OD1       22.2350   45.6210   48.2150 O.co2  26  ASP26      -0.2456
     31  OD2       23.5770   43.9710   47.6580 O.co2  26  ASP26      -0.2456
     32  N         26.2710   40.5290   56.1660 N.3    52  GLU52      -0.1245
     33  CA        25.2550   39.7370   55.5430 C.3    52  GLU52       0.1567
     34  C         24.7710   38.5730   56.3620 C.2    52  GLU52       0.2260
     35  O         24.0530   37.7040   55.8670 O.2    52  GLU52      -0.2867
     36  CB        25.7810   39.2400   54.1760 C.3    52  GLU52       0.0388
     37  CG        26.0310   40.3830   53.1910 C.3    52  GLU52       0.1160
     38  CD        26.7190   39.8490   51.9520 C.2    52  GLU52       0.3649
     39  OE1       26.0400   39.2270   51.1160 O.co2  52  GLU52      -0.2457
     40  OE2       27.9480   40.0230   51.8440 O.co2  52  GLU52      -0.2457
     41  N         18.2540   47.5630   55.8120 N.3    73  ASP73      -0.1225
     42  CA        18.8920   46.8740   54.6660 C.3    73  ASP73       0.1805
     43  C         18.5210   47.6270   53.3550 C.2    73  ASP73       0.2598
     44  O         17.5130   48.3170   53.2740 O.2    73  ASP73      -0.2718
     45  CB        18.4070   45.4050   54.5910 C.3    73  ASP73       0.1424
     46  CG        19.2760   44.5150   53.6930 C.2    73  ASP73       0.3668
     47  OD1       20.3840   44.9460   53.3080 O.co2  73  ASP73      -0.2456
     48  OD2       18.8620   43.3770   53.4400 O.co2  73  ASP73      -0.2456
     49  N         19.3810   47.5240   52.3530 N.am   74  ALA74      -0.1966
     50  CA        18.9630   47.8420   51.0030 C.3    74  ALA74       0.1728
     51  C         17.9980   46.7820   50.4730 C.2    74  ALA74       0.2616
     52  O         18.3510   45.6200   50.3780 O.2    74  ALA74      -0.2715
     53  CB        20.2070   47.9090   50.0830 C.3    74  ALA74       0.0334
     54  N         16.8010   47.1860   50.0570 N.am   75  ILE75      -0.1963
     55  CA        15.7660   46.2550   49.6790 C.3    75  ILE75       0.1727
     56  C         15.2470   46.6520   48.3150 C.2    75  ILE75       0.2616
     57  O         14.8870   47.8210   48.1320 O.2    75  ILE75      -0.2715
     58  CB        14.5740   46.2910   50.6970 C.3    75  ILE75       0.0290
     59  CG1       15.0220   45.8590   52.0930 C.3    75  ILE75       0.0022
     60  CG2       13.4220   45.4530   50.1820 C.3    75  ILE75       0.0023
     61  CD1       15.5130   44.4500   52.1610 C.3    75  ILE75       0.0001
     62  N         15.2640   45.7000   47.3850 N.am   76  HIS76      -0.1973
     63  CA        14.6450   45.9130   46.0600 C.3    76  HIS76       0.1656
     64  C         13.1410   45.6980   46.2030 C.2    76  HIS76       0.2291
     65  O         12.6910   44.5800   46.3740 O.2    76  HIS76      -0.2864
     66  CB        15.2440   44.9650   45.0230 C.3    76  HIS76       0.0771
     67  CG        14.7020   45.2140   43.6420 C.ar   76  HIS76       0.0820
     68  ND1       14.4320   46.4840   43.1860 N.ar   76  HIS76      -0.2267
     69  CD2       14.3170   44.3740   42.6520 C.ar   76  HIS76       0.1154
     70  CE1       13.9390   46.4240   41.9610 C.ar   76  HIS76       0.1986
     71  NE2       13.8630   45.1510   41.6090 N.ar   76  HIS76      -0.2212
     72  N          5.5200   36.0650   52.3800 N.3    93  LEU93      -0.1245
     73  CA         5.1890   36.7780   51.1430 C.3    93  LEU93       0.1561
     74  C          4.7050   35.8570   50.0350 C.2    93  LEU93       0.2260
     75  O          4.0760   36.3250   49.0800 O.2    93  LEU93      -0.2867
     76  CB         6.3980   37.5920   50.6500 C.3    93  LEU93       0.0270
     77  CG         6.8690   38.5270   51.7830 C.3    93  LEU93       0.0019
     78  CD1        8.1090   39.3000   51.3540 C.3    93  LEU93       0.0001
     79  CD2        5.7510   39.4750   52.2110 C.3    93  LEU93       0.0001
     80  N          8.2420   36.0030   45.8480 N.3    97  VAL97      -0.1231
     81  CA         9.5630   36.4450   46.2400 C.3    97  VAL97       0.1692
     82  C         10.4860   35.2520   46.4390 C.2    97  VAL97       0.2593
     83  O         10.1090   34.2250   46.9970 O.2    97  VAL97      -0.2718
     84  CB         9.5240   37.2990   47.5270 C.3    97  VAL97       0.0266
     85  CG1        8.6110   38.5010   47.3170 C.3    97  VAL97       0.0020
     86  CG2        9.1000   36.4670   48.7280 C.3    97  VAL97       0.0020
     87  N         11.7020   35.3880   45.9330 N.am   98  SER98      -0.1938
     88  CA        12.5450   34.2930   46.3610 C.3    98  SER98       0.2055
     89  C         13.6730   34.8960   47.1620 C.2    98  SER98       0.2644
     90  O         14.2050   35.9640   46.8500 O.2    98  SER98      -0.2714
     91  CB        13.0540   33.4760   45.1620 C.3    98  SER98       0.2130
     92  OG        13.4080   32.1650   45.5720 O.3    98  SER98      -0.2179
     93  N         14.0900   33.9930   48.0220 N.am   99  THR99      -0.1936
     94  CA        14.8250   34.4040   49.1960 C.3    99  THR99       0.2028
     95  C         16.3110   34.0960   49.0370 C.2    99  THR99       0.2642
     96  O         16.6960   32.9900   48.6310 O.2    99  THR99      -0.2714
     97  CB        14.2290   33.7270   50.4360 C.3    99  THR99       0.1808
     98  OG1       14.1720   32.3070   50.2320 O.3    99  THR99      -0.2208
     99  CG2       12.8170   34.2320   50.6530 C.3    99  THR99       0.0379
    100  N         17.1460   35.0930   49.3100 N.am  100  HIS100     -0.1973
    101  CA        18.5850   34.9100   49.1910 C.3   100  HIS100      0.1656
    102  C         19.1430   34.4350   50.5260 C.2   100  HIS100      0.2291
    103  O         19.1100   35.1700   51.5200 O.2   100  HIS100     -0.2864
    104  CB        19.2730   36.2030   48.7390 C.3   100  HIS100      0.0771
    105  CG        18.8940   36.6200   47.3590 C.ar  100  HIS100      0.0820
    106  ND1       19.0760   35.7910   46.2660 N.ar  100  HIS100     -0.2267
    107  CD2       18.3840   37.7850   46.9180 C.ar  100  HIS100      0.1154
    108  CE1       18.6650   36.4630   45.1940 C.ar  100  HIS100      0.1986
    109  NE2       18.2470   37.6860   45.5500 N.ar  100  HIS100     -0.2212
    110  N         19.4250   32.5380   54.0310 N.3   102  LEU102     -0.1231
    111  CA        18.4960   32.3210   55.1230 C.3   102  LEU102      0.1678
    112  C         17.6160   33.5380   55.1600 C.2   102  LEU102      0.2434
    113  O         18.0980   34.6330   55.3190 O.2   102  LEU102     -0.2733
    114  CB        19.2320   32.1790   56.4400 C.3   102  LEU102      0.0284
    115  CG        18.4740   31.5400   57.5900 C.3   102  LEU102      0.0019
    116  CD1       18.1270   30.1270   57.2300 C.3   102  LEU102      0.0001
    117  CD2       19.3250   31.5210   58.8260 C.3   102  LEU102      0.0001
    118  N         16.2550   33.3550   54.8810 N.am  103  PRO103     -0.2718
    119  CA        15.5020   34.6060   54.8740 C.3   103  PRO103      0.1535
    120  C         15.4050   35.2860   56.2220 C.2   103  PRO103      0.2598
    121  O         15.4520   34.6770   57.2510 O.2   103  PRO103     -0.2715
    122  CB        14.1410   34.2310   54.3310 C.3   103  PRO103      0.0310
    123  CG        13.9630   32.8410   54.6310 C.3   103  PRO103      0.0237
    124  CD        15.2860   32.2420   54.4230 C.3   103  PRO103      0.0939
    125  N         15.2830   36.5880   56.1520 N.am  104  LEU104     -0.1964
    126  CA        15.1750   37.4150   57.3140 C.3   104  LEU104      0.1728
    127  C         13.9220   37.0450   58.0930 C.2   104  LEU104      0.2616
    128  O         13.8810   37.1670   59.2820 O.2   104  LEU104     -0.2715
    129  CB        15.1970   38.8750   56.9130 C.3   104  LEU104      0.0311
    130  CG        15.2050   39.8700   58.0570 C.3   104  LEU104      0.0022
    131  CD1       16.4310   39.7240   58.9170 C.3   104  LEU104      0.0001
    132  CD2       15.0520   41.3030   57.6060 C.3   104  LEU104      0.0001
    133  N         12.8870   36.6190   57.4000 N.am  105  ARG105     -0.1977
    134  CA        11.6870   36.1570   58.1100 C.3   105  ARG105      0.1597
    135  C         11.9690   35.0950   59.1760 C.2   105  ARG105      0.2287
    136  O         11.3740   35.1040   60.2650 O.2   105  ARG105     -0.2864
    137  CB        10.6580   35.5900   57.1060 C.3   105  ARG105      0.0334
    138  CG         9.3600   35.1110   57.7700 C.3   105  ARG105      0.0492
    139  CD         8.2800   34.7300   56.6900 C.3   105  ARG105      0.2205
    140  NE         8.6790   33.5370   55.9740 N.pl3 105  ARG105     -0.0865
    141  CZ         8.2820   32.2950   56.2530 C.cat 105  ARG105      0.5346
    142  NH1        7.4270   32.0410   57.2490 N.pl3 105  ARG105      0.1354
    143  NH2        8.7430   31.2950   55.5220 N.pl3 105  ARG105      0.1354
@<TRIPOS>BOND
     1    71    70   ar
     2    71    69   ar
     3    70    68   ar
     4    69    67   ar
     5    68    67   ar
     6    67    66    1
     7    66    63    1
     8    91    92    1
     9    91    88    1
    10   108   109   ar
    11   108   106   ar
    12   109   107   ar
    13    80    81    1
    14    87    88    1
    15    87    82   am
    16    63    64    1
    17    63    62    1
    18    64    65    2
    19    81    82    1
    20    81    84    1
    21    18    19    1
    22    18    17    1
    23   106   105   ar
    24    88    89    1
    25    82    83    2
    26    16    15    2
    27    15    14    1
    28    19    20    1
    29    90    89    2
    30   107   105   ar
    31    14    17    1
    32    14    13    1
    33    89    93   am
    34    85    84    1
    35   105   104    1
    36    62    56   am
    37    20    21    2
    38    84    86    1
    39    31    29   ar
    40    93    94    1
    41    24    25    1
    42    57    56    2
    43    29    30   ar
    44    29    28    1
    45    56    55    1
    46    21    22    1
    47    21    23    1
    48    96    95    2
    49   104   101    1
    50    28    25    1
    51    95    94    1
    52    95   100   am
    53    75    74    2
    54   101   100    1
    55   101   102    1
    56    94    97    1
    57    25    26    1
    58    55    54    1
    59    55    58    1
    60    74    73    1
    61    54    51   am
    62    53    50    1
    63    60    58    1
    64    98    97    1
    65    52    51    2
    66    97    99    1
    67    51    50    1
    68    26    27    2
    69   102   103    2
    70    76    73    1
    71    76    77    1
    72    58    59    1
    73    50    49    1
    74    39    38   ar
    75    73    72    1
    76    78    77    1
    77    77    79    1
    78    40    38   ar
    79    38    37    1
    80    59    61    1
    81    49    43   am
    82    37    36    1
    83    44    43    2
    84    47    46   ar
    85    43    42    1
    86    48    46   ar
    87    46    45    1
    88    11    10    1
    89    11    12    2
    90    10     9    1
    91   110   111    1
    92    36    33    1
    93   122   123    1
    94   122   119    1
    95   124   123    1
    96   124   118    1
    97    45    42    1
    98    42    41    1
    99   119   118    1
   100   119   120    1
   101   118   112   am
   102   111   112    1
   103   111   114    1
   104   112   113    2
   105     4     3    2
   106     9     3   am
   107   143   141    1
   108    33    32    1
   109    33    34    1
   110     3     2    1
   111    35    34    2
   112     7     5    1
   113   140   141    2
   114   140   139    1
   115   125   120   am
   116   125   126    1
   117   120   121    2
   118   141   142    1
   119   114   115    1
   120   139   138    1
   121     5     2    1
   122     5     6    1
   123   129   126    1
   124   129   130    1
   125   137   138    1
   126   137   134    1
   127     2     1    1
   128   116   115    1
   129   126   127    1
   130   133   127   am
   131   133   134    1
   132   115   117    1
   133   132   130    1
   134     8     6    1
   135   130   131    1
   136   127   128    2
   137   134   135    1
   138   135   136    2
