@<TRIPOS>MOLECULE
tmp/5zbzA01.pdb
 68 63 0 0 0
SMALL
GASTEIGER

@<TRIPOS>ATOM
      1  N        -10.7720  -13.1820   20.9980 N.3    55  GLN55      -0.1231
      2  CA       -12.1530  -13.2570   21.4310 C.3    55  GLN55       0.1698
      3  C        -12.5360  -12.0000   22.2080 C.2    55  GLN55       0.2593
      4  O        -11.7150  -11.1260   22.4930 O.2    55  GLN55      -0.2718
      5  CB       -12.3350  -14.4930   22.3010 C.3    55  GLN55       0.0381
      6  CG       -11.8430  -15.7650   21.6240 C.3    55  GLN55       0.0905
      7  CD       -12.5230  -15.9970   20.2820 C.2    55  GLN55       0.2608
      8  OE1      -13.7470  -15.9970   20.2010 O.2    55  GLN55      -0.2717
      9  NE2      -11.7360  -16.1620   19.2270 N.am   55  GLN55      -0.0878
     10  N        -13.8160  -11.9110   22.5600 N.am   56  SER56      -0.1938
     11  CA       -14.2790  -10.8700   23.4620 C.3    56  SER56       0.2055
     12  C        -13.6280  -11.0270   24.8290 C.2    56  SER56       0.2644
     13  O        -13.2440  -12.1280   25.2450 O.2    56  SER56      -0.2714
     14  CB       -15.7990  -10.9700   23.6230 C.3    56  SER56       0.2130
     15  OG       -16.1690  -12.1450   24.3270 O.3    56  SER56      -0.2179
     16  N        -13.5110   -9.9140   25.5440 N.am   57  GLY57      -0.1939
     17  CA       -12.9560   -9.9190   26.8880 C.3    57  GLY57       0.2014
     18  C        -11.4550   -9.9920   26.9560 C.2    57  GLY57       0.2640
     19  O        -10.8920  -10.2180   28.0380 O.2    57  GLY57      -0.2714
     20  N        -10.7850   -9.8000   25.8450 N.am   58  THR58      -0.1936
     21  CA        -9.3380   -9.9030   25.7990 C.3    58  THR58       0.2028
     22  C         -8.6110   -8.5750   25.9740 C.2    58  THR58       0.2642
     23  O         -7.3760   -8.5850   26.1010 O.2    58  THR58      -0.2714
     24  CB        -8.9170  -10.5220   24.4600 C.3    58  THR58       0.1808
     25  OG1       -9.4990   -9.7960   23.3850 O.3    58  THR58      -0.2208
     26  CG2       -9.3490  -11.9620   24.4040 C.3    58  THR58       0.0379
     27  N         -9.3000   -7.4360   25.9120 N.am   59  GLY59      -0.1954
     28  CA        -8.6830   -6.1180   25.8800 C.3    59  GLY59       0.1869
     29  C         -8.2920   -5.7030   24.4730 C.2    59  GLY59       0.2309
     30  O         -7.4370   -4.8200   24.2890 O.2    59  GLY59      -0.2863
     31  N        -10.0890   -4.0530   22.2480 N.3    60  THR60      -0.1203
     32  CA       -10.5000   -2.6900   21.9420 C.3    60  THR60       0.1994
     33  C         -9.4130   -1.7130   22.3520 C.2    60  THR60       0.2617
     34  O         -9.0180   -0.8350   21.5620 O.2    60  THR60      -0.2717
     35  CB       -11.8270   -2.3100   22.6530 C.3    60  THR60       0.1784
     36  OG1      -12.7960   -3.3460   22.4680 O.3    60  THR60      -0.2211
     37  CG2      -12.3750   -1.0020   22.0560 C.3    60  THR60       0.0376
     38  N         -8.9320   -1.8330   23.5950 N.am   61  ALA61      -0.1979
     39  CA        -7.8900   -0.9270   24.0540 C.3    61  ALA61       0.1597
     40  C         -6.6240   -1.0820   23.2470 C.2    61  ALA61       0.2287
     41  O         -5.8580   -0.1310   23.1130 O.2    61  ALA61      -0.2864
     42  CB        -7.5860   -1.1890   25.5220 C.3    61  ALA61       0.0319
     43  N        -21.1960   -1.3040   19.0820 N.3    88  LEU88      -0.1245
     44  CA       -19.7460   -1.4640   19.1360 C.3    88  LEU88       0.1561
     45  C        -19.0340   -0.1770   18.7330 C.2    88  LEU88       0.2260
     46  O        -18.0160    0.1720   19.3190 O.2    88  LEU88      -0.2867
     47  CB       -19.2740   -2.6820   18.3340 C.3    88  LEU88       0.0270
     48  CG       -17.7800   -2.9870   18.4200 C.3    88  LEU88       0.0019
     49  CD1      -17.2990   -3.1480   19.8100 C.3    88  LEU88       0.0001
     50  CD2      -17.4800   -4.2420   17.6060 C.3    88  LEU88       0.0001
     51  N        -19.1020    1.8490   21.8320 N.3    91  GLN91      -0.1245
     52  CA       -18.1460    1.2850   22.7830 C.3    91  GLN91       0.1566
     53  C        -16.7420    1.7410   22.4680 C.2    91  GLN91       0.2260
     54  O        -16.0110    2.1960   23.3560 O.2    91  GLN91      -0.2867
     55  CB       -18.1950   -0.2230   22.7120 C.3    91  GLN91       0.0367
     56  CG       -17.1130   -0.9390   23.5100 C.3    91  GLN91       0.0905
     57  CD       -17.1580   -2.4460   23.3430 C.2    91  GLN91       0.2608
     58  OE1      -18.1950   -3.0540   23.2020 O.2    91  GLN91      -0.2717
     59  NE2      -15.9690   -3.0590   23.3930 N.am   91  GLN91      -0.0878
     60  N        -14.1340   -6.6050   14.4930 N.3   155  GLU155     -0.1245
     61  CA       -15.1650   -7.6230   14.3160 C.3   155  GLU155      0.1567
     62  C        -15.4730   -7.8580   12.8470 C.2   155  GLU155      0.2260
     63  O        -16.6250   -7.8050   12.3880 O.2   155  GLU155     -0.2867
     64  CB       -16.4130   -7.3060   15.1310 C.3   155  GLU155      0.0388
     65  CG       -16.1660   -7.4570   16.6400 C.3   155  GLU155      0.1160
     66  CD       -17.4440   -7.5620   17.4540 C.2   155  GLU155      0.3649
     67  OE1      -18.5310   -7.7310   16.8610 O.co2 155  GLU155     -0.2457
     68  OE2      -17.3530   -7.4760   18.7000 O.co2 155  GLU155     -0.2457
@<TRIPOS>BOND
     1    63    62    2
     2    62    61    1
     3    61    60    1
     4    61    64    1
     5    64    65    1
     6    65    66    1
     7    67    66   ar
     8    66    68   ar
     9    50    48    1
    10    47    48    1
    11    47    44    1
    12    48    49    1
    13    45    44    1
    14    45    46    2
    15    43    44    1
    16     9     7   am
    17     8     7    2
    18     7     6    1
    19     1     2    1
    20     2     3    1
    21     2     5    1
    22    34    33    2
    23     6     5    1
    24    51    52    1
    25    32    31    1
    26    32    33    1
    27    32    35    1
    28    37    35    1
    29     3     4    2
    30     3    10   am
    31    33    38   am
    32    53    52    1
    33    53    54    2
    34    36    35    1
    35    10    11    1
    36    55    52    1
    37    55    56    1
    38    41    40    2
    39    58    57    2
    40    40    39    1
    41    57    59   am
    42    57    56    1
    43    25    24    1
    44    11    14    1
    45    11    12    1
    46    38    39    1
    47    14    15    1
    48    39    42    1
    49    30    29    2
    50    26    24    1
    51    24    21    1
    52    29    28    1
    53    12    13    2
    54    12    16   am
    55    16    17    1
    56    21    20    1
    57    21    22    1
    58    20    18   am
    59    28    27    1
    60    27    22   am
    61    22    23    2
    62    17    18    1
    63    18    19    2
