@<TRIPOS>MOLECULE
tmp/5zbzA00.pdb
 87 81 0 0 0
SMALL
GASTEIGER

@<TRIPOS>ATOM
      1  N         -7.6840    4.2010   33.2390 N.3    30  TYR30      -0.1241
      2  CA        -8.7900    3.3780   32.7540 C.3    30  TYR30       0.1605
      3  C         -9.0100    2.1230   33.5960 C.2    30  TYR30       0.2264
      4  O        -10.0850    1.5280   33.5660 O.2    30  TYR30      -0.2867
      5  CB        -8.5470    3.0030   31.2750 C.3    30  TYR30       0.0534
      6  CG        -9.7270    2.3830   30.5810 C.ar   30  TYR30      -0.0201
      7  CD1      -10.6970    3.1770   30.0520 C.ar   30  TYR30      -0.0009
      8  CD2       -9.8900    1.0100   30.4850 C.ar   30  TYR30      -0.0009
      9  CE1      -11.8240    2.6170   29.4280 C.ar   30  TYR30       0.0417
     10  CE2      -10.9920    0.4570   29.8630 C.ar   30  TYR30       0.0417
     11  CZ       -11.9250    1.2730   29.3330 C.ar   30  TYR30       0.1957
     12  OH       -13.0320    0.6980   28.7180 O.3    30  TYR30      -0.2866
     13  N         -6.2480   -0.3820   33.7320 N.3    32  PHE32      -0.1241
     14  CA        -5.2630   -1.3840   33.3720 C.3    32  PHE32       0.1605
     15  C         -4.0510   -1.3190   34.2850 C.2    32  PHE32       0.2264
     16  O         -3.6590   -0.2500   34.7370 O.2    32  PHE32      -0.2867
     17  CB        -4.8070   -1.1900   31.9140 C.3    32  PHE32       0.0534
     18  CG        -5.8700   -1.5210   30.8920 C.ar   32  PHE32      -0.0203
     19  CD1       -6.2720   -2.8320   30.7130 C.ar   32  PHE32      -0.0042
     20  CD2       -6.4510   -0.5240   30.1240 C.ar   32  PHE32      -0.0042
     21  CE1       -7.2800   -3.1550   29.7790 C.ar   32  PHE32      -0.0003
     22  CE2       -7.4270   -0.8280   29.1860 C.ar   32  PHE32      -0.0003
     23  CZ        -7.8530   -2.1400   29.0220 C.ar   32  PHE32      -0.0000
     24  N         -2.8470   -7.2340   28.8400 N.3    35  SER35      -0.1217
     25  CA        -3.3940   -8.5350   28.5250 C.3    35  SER35       0.1889
     26  C         -2.5710   -9.1970   27.4340 C.2    35  SER35       0.2288
     27  O         -1.6900   -8.5990   26.8290 O.2    35  SER35      -0.2866
     28  CB        -4.8340   -8.4080   28.0380 C.3    35  SER35       0.2089
     29  OG        -4.8630   -7.6810   26.8220 O.3    35  SER35      -0.2183
     30  N        -13.8160  -11.9110   22.5600 N.3    56  SER56      -0.1202
     31  CA       -14.2790  -10.8700   23.4620 C.3    56  SER56       0.2020
     32  C        -13.6280  -11.0270   24.8290 C.2    56  SER56       0.2619
     33  O        -13.2440  -12.1280   25.2450 O.2    56  SER56      -0.2717
     34  CB       -15.7990  -10.9700   23.6230 C.3    56  SER56       0.2103
     35  OG       -16.1690  -12.1450   24.3270 O.3    56  SER56      -0.2182
     36  N        -13.5110   -9.9140   25.5440 N.am   57  GLY57      -0.1942
     37  CA       -12.9560   -9.9190   26.8880 C.3    57  GLY57       0.2014
     38  C        -11.4550   -9.9920   26.9560 C.2    57  GLY57       0.2640
     39  O        -10.8920  -10.2180   28.0380 O.2    57  GLY57      -0.2714
     40  N        -10.7850   -9.8000   25.8450 N.am   58  THR58      -0.1936
     41  CA        -9.3380   -9.9030   25.7990 C.3    58  THR58       0.2028
     42  C         -8.6110   -8.5750   25.9740 C.2    58  THR58       0.2642
     43  O         -7.3760   -8.5850   26.1010 O.2    58  THR58      -0.2714
     44  CB        -8.9170  -10.5220   24.4600 C.3    58  THR58       0.1808
     45  OG1       -9.4990   -9.7960   23.3850 O.3    58  THR58      -0.2208
     46  CG2       -9.3490  -11.9620   24.4040 C.3    58  THR58       0.0379
     47  N         -9.3000   -7.4360   25.9120 N.am   59  GLY59      -0.1954
     48  CA        -8.6830   -6.1180   25.8800 C.3    59  GLY59       0.1869
     49  C         -8.2920   -5.7030   24.4730 C.2    59  GLY59       0.2309
     50  O         -7.4370   -4.8200   24.2890 O.2    59  GLY59      -0.2863
     51  N        -10.0890   -4.0530   22.2480 N.3    60  THR60      -0.1203
     52  CA       -10.5000   -2.6900   21.9420 C.3    60  THR60       0.1994
     53  C         -9.4130   -1.7130   22.3520 C.2    60  THR60       0.2617
     54  O         -9.0180   -0.8350   21.5620 O.2    60  THR60      -0.2717
     55  CB       -11.8270   -2.3100   22.6530 C.3    60  THR60       0.1784
     56  OG1      -12.7960   -3.3460   22.4680 O.3    60  THR60      -0.2211
     57  CG2      -12.3750   -1.0020   22.0560 C.3    60  THR60       0.0376
     58  N         -8.9320   -1.8330   23.5950 N.am   61  ALA61      -0.1979
     59  CA        -7.8900   -0.9270   24.0540 C.3    61  ALA61       0.1597
     60  C         -6.6240   -1.0820   23.2470 C.2    61  ALA61       0.2287
     61  O         -5.8580   -0.1310   23.1130 O.2    61  ALA61      -0.2864
     62  CB        -7.5860   -1.1890   25.5220 C.3    61  ALA61       0.0319
     63  N        -23.6850   -0.1460   18.4260 N.3    87  GLU87      -0.1245
     64  CA       -23.3020   -0.2950   19.8220 C.3    87  GLU87       0.1567
     65  C        -21.8030   -0.4780   19.9450 C.2    87  GLU87       0.2260
     66  O        -21.1880    0.1520   20.8020 O.2    87  GLU87      -0.2867
     67  CB       -24.0760   -1.4090   20.5280 C.3    87  GLU87       0.0388
     68  CG       -24.0100   -2.7270   19.9140 C.3    87  GLU87       0.1160
     69  CD       -25.2270   -3.0320   19.0240 C.2    87  GLU87       0.3649
     70  OE1      -25.6410   -4.2150   19.0180 O.co2  87  GLU87      -0.2457
     71  OE2      -25.7710   -2.1170   18.3350 O.co2  87  GLU87      -0.2457
     72  N        -19.1020    1.8490   21.8320 N.3    91  GLN91      -0.1245
     73  CA       -18.1460    1.2850   22.7830 C.3    91  GLN91       0.1566
     74  C        -16.7420    1.7410   22.4680 C.2    91  GLN91       0.2260
     75  O        -16.0110    2.1960   23.3560 O.2    91  GLN91      -0.2867
     76  CB       -18.1950   -0.2230   22.7120 C.3    91  GLN91       0.0367
     77  CG       -17.1130   -0.9390   23.5100 C.3    91  GLN91       0.0905
     78  CD       -17.1580   -2.4460   23.3430 C.2    91  GLN91       0.2608
     79  OE1      -18.1950   -3.0540   23.2020 O.2    91  GLN91      -0.2717
     80  NE2      -15.9690   -3.0590   23.3930 N.am   91  GLN91      -0.0878
     81  N        -14.0450    4.0940   24.7140 N.3    94  VAL94      -0.1245
     82  CA       -12.7130    3.5940   25.0620 C.3    94  VAL94       0.1561
     83  C        -11.6330    4.5580   24.6130 C.2    94  VAL94       0.2260
     84  O        -10.7280    4.8970   25.3670 O.2    94  VAL94      -0.2867
     85  CB       -12.4610    2.1590   24.5090 C.3    94  VAL94       0.0252
     86  CG1      -10.9700    1.7910   24.6720 C.3    94  VAL94       0.0019
     87  CG2      -13.3340    1.1240   25.2340 C.3    94  VAL94       0.0019
@<TRIPOS>BOND
     1    71    69   ar
     2    63    64    1
     3    70    69   ar
     4    69    68    1
     5    64    65    1
     6    64    67    1
     7    68    67    1
     8    65    66    2
     9    54    53    2
    10    72    73    1
    11    52    51    1
    12    52    53    1
    13    52    55    1
    14    57    55    1
    15    53    58   am
    16    74    73    1
    17    74    75    2
    18    56    55    1
    19    30    31    1
    20    76    73    1
    21    76    77    1
    22    61    60    2
    23    79    78    2
    24    60    59    1
    25    78    80   am
    26    78    77    1
    27    45    44    1
    28    31    34    1
    29    31    32    1
    30    58    59    1
    31    34    35    1
    32    59    62    1
    33    50    49    2
    34    46    44    1
    35    44    41    1
    36    49    48    1
    37    85    86    1
    38    85    82    1
    39    85    87    1
    40    83    82    1
    41    83    84    2
    42    81    82    1
    43    32    33    2
    44    32    36   am
    45    36    37    1
    46    41    40    1
    47    41    42    1
    48    40    38   am
    49    48    47    1
    50    47    42   am
    51    42    43    2
    52    29    28    1
    53    27    26    2
    54    37    38    1
    55    38    39    2
    56    26    25    1
    57    28    25    1
    58    25    24    1
    59    12    11    1
    60    23    22   ar
    61    23    21   ar
    62    22    20   ar
    63    11     9   ar
    64    11    10   ar
    65     9     7   ar
    66    21    19   ar
    67    10     8   ar
    68     7     6   ar
    69    20    18   ar
    70     8     6   ar
    71     6     5    1
    72    19    18   ar
    73    18    17    1
    74     5     2    1
    75    17    14    1
    76     2     1    1
    77     2     3    1
    78    14    13    1
    79    14    15    1
    80     4     3    2
    81    15    16    2
