@<TRIPOS>MOLECULE
tmp/5zc2A00.pdb
 193 189 0 0 0
SMALL
GASTEIGER

@<TRIPOS>ATOM
      1  N         35.1190  114.8160  202.7380 N.3    17  VAL17      -0.1245
      2  CA        34.2750  114.7650  203.9250 C.3    17  VAL17       0.1561
      3  C         34.1300  113.3100  204.3390 C.2    17  VAL17       0.2260
      4  O         33.6850  112.4730  203.5440 O.2    17  VAL17      -0.2867
      5  CB        32.8990  115.4050  203.6790 C.3    17  VAL17       0.0252
      6  CG1       32.0580  115.3530  204.9450 C.3    17  VAL17       0.0019
      7  CG2       33.0590  116.8380  203.2020 C.3    17  VAL17       0.0019
      8  N         30.6940  110.8960  213.8510 N.3    31  VAL31      -0.1231
      9  CA        31.3020  112.2220  213.8320 C.3    31  VAL31       0.1692
     10  C         31.7760  112.5140  212.4150 C.2    31  VAL31       0.2593
     11  O         32.5900  111.7640  211.8610 O.2    31  VAL31      -0.2718
     12  CB        32.4640  112.3290  214.8320 C.3    31  VAL31       0.0266
     13  CG1       33.1890  113.6540  214.6700 C.3    31  VAL31       0.0020
     14  CG2       31.9510  112.1700  216.2530 C.3    31  VAL31       0.0020
     15  N         31.2660  113.5970  211.8310 N.am   32  THR32      -0.1939
     16  CA        31.7750  114.0720  210.5510 C.3    32  THR32       0.2028
     17  C         33.1440  114.7120  210.7500 C.2    32  THR32       0.2642
     18  O         33.3110  115.5840  211.6070 O.2    32  THR32      -0.2714
     19  CB        30.8030  115.0770  209.9300 C.3    32  THR32       0.1808
     20  OG1       29.5660  114.4230  209.6170 O.3    32  THR32      -0.2208
     21  CG2       31.3870  115.6800  208.6610 C.3    32  THR32       0.0379
     22  N         34.1250  114.2840  209.9570 N.am   33  ALA33      -0.1963
     23  CA        35.4960  114.7330  210.1460 C.3    33  ALA33       0.1728
     24  C         36.1950  114.9080  208.8060 C.2    33  ALA33       0.2616
     25  O         36.0550  114.0720  207.9100 O.2    33  ALA33      -0.2715
     26  CB        36.2840  113.7460  211.0170 C.3    33  ALA33       0.0334
     27  N         36.9570  115.9950  208.6810 N.am   34  ASN34      -0.1958
     28  CA        37.8030  116.2180  207.5170 C.3    34  ASN34       0.1819
     29  C         39.2850  116.2450  207.8640 C.2    34  ASN34       0.2622
     30  O         40.1140  116.4420  206.9680 O.2    34  ASN34      -0.2715
     31  CB        37.4130  117.5200  206.7990 C.3    34  ASN34       0.1195
     32  CG        37.8320  118.7600  207.5600 C.2    34  ASN34       0.2630
     33  OD1       37.8570  118.7750  208.7900 O.2    34  ASN34      -0.2716
     34  ND2       38.1580  119.8170  206.8260 N.am   34  ASN34      -0.0877
     35  N         39.6430  116.0550  209.1340 N.am   35  SER35      -0.1950
     36  CA        41.0370  115.9400  209.5420 C.3    35  SER35       0.1924
     37  C         41.6290  114.5760  209.2150 C.2    35  SER35       0.2314
     38  O         42.7820  114.3170  209.5760 O.2    35  SER35      -0.2863
     39  CB        41.1760  116.2130  211.0420 C.3    35  SER35       0.2116
     40  OG        40.4500  115.2650  211.8070 O.3    35  SER35      -0.2180
     41  N         43.1210  110.6780  212.3260 N.3    48  TRP48      -0.1227
     42  CA        42.2180  111.8180  212.2970 C.3    48  TRP48       0.1737
     43  C         42.1890  112.4180  213.6930 C.2    48  TRP48       0.2596
     44  O         42.5430  111.7620  214.6760 O.2    48  TRP48      -0.2718
     45  CB        40.8120  111.4230  211.8370 C.3    48  TRP48       0.0564
     46  CG        40.0660  110.5590  212.8120 C.ar   48  TRP48       0.0003
     47  CD1       40.3560  109.2690  213.1530 C.ar   48  TRP48       0.0946
     48  CD2       38.8920  110.9140  213.5530 C.ar   48  TRP48       0.0152
     49  NE1       39.4440  108.8050  214.0680 N.ar   48  TRP48      -0.2442
     50  CE2       38.5330  109.7950  214.3290 C.ar   48  TRP48       0.0810
     51  CE3       38.1130  112.0720  213.6400 C.ar   48  TRP48       0.0012
     52  CZ2       37.4300  109.7980  215.1790 C.ar   48  TRP48       0.0191
     53  CZ3       37.0180  112.0720  214.4840 C.ar   48  TRP48       0.0001
     54  CH2       36.6870  110.9430  215.2430 C.ar   48  TRP48       0.0015
     55  N         41.7780  113.6780  213.7660 N.am   49  SER49      -0.1938
     56  CA        41.7860  114.4410  215.0070 C.3    49  SER49       0.2055
     57  C         40.3520  114.6730  215.4600 C.2    49  SER49       0.2643
     58  O         39.5500  115.2550  214.7200 O.2    49  SER49      -0.2714
     59  CB        42.5200  115.7690  214.8250 C.3    49  SER49       0.2130
     60  OG        43.8530  115.5530  214.3950 O.3    49  SER49      -0.2179
     61  N         40.0300  114.2110  216.6650 N.am   50  ILE50      -0.1963
     62  CA        38.7210  114.4180  217.2720 C.3    50  ILE50       0.1727
     63  C         38.8700  115.4200  218.4100 C.2    50  ILE50       0.2616
     64  O         39.8800  115.4210  219.1230 O.2    50  ILE50      -0.2715
     65  CB        38.1130  113.0890  217.7680 C.3    50  ILE50       0.0290
     66  CG1       36.6840  113.2930  218.2790 C.3    50  ILE50       0.0022
     67  CG2       38.9870  112.4500  218.8360 C.3    50  ILE50       0.0023
     68  CD1       36.0170  112.0150  218.7350 C.3    50  ILE50       0.0001
     69  N         37.8650  116.2760  218.5740 N.am   51  ASP51      -0.1971
     70  CA        37.9130  117.3100  219.5970 C.3    51  ASP51       0.1709
     71  C         37.8740  116.6930  220.9900 C.2    51  ASP51       0.2293
     72  O         37.2210  115.6750  221.2240 O.2    51  ASP51      -0.2864
     73  CB        36.7490  118.2860  219.4170 C.3    51  ASP51       0.1436
     74  CG        36.9610  119.6040  220.1480 C.2    51  ASP51       0.3671
     75  OD1       37.4840  119.5950  221.2830 O.co2  51  ASP51      -0.2456
     76  OD2       36.6080  120.6590  219.5820 O.co2  51  ASP51      -0.2456
     77  N         34.4320  116.6460  222.4760 N.3    54  SER54      -0.1202
     78  CA        33.4500  115.8110  221.8000 C.3    54  SER54       0.2020
     79  C         32.8830  114.7650  222.7500 C.2    54  SER54       0.2619
     80  O         33.6300  114.0540  223.4290 O.2    54  SER54      -0.2717
     81  CB        34.0880  115.1340  220.5880 C.3    54  SER54       0.2103
     82  OG        33.2610  114.0990  220.0890 O.3    54  SER54      -0.2182
     83  N         31.5540  114.6700  222.7920 N.am   55  SER55      -0.1937
     84  CA        30.8910  113.6540  223.6000 C.3    55  SER55       0.2055
     85  C         30.9770  112.2650  222.9870 C.2    55  SER55       0.2643
     86  O         30.3750  111.3330  223.5300 O.2    55  SER55      -0.2714
     87  CB        29.4240  114.0240  223.8120 C.3    55  SER55       0.2130
     88  OG        28.7260  114.0450  222.5800 O.3    55  SER55      -0.2179
     89  N         31.6910  112.1070  221.8740 N.am   56  SER56      -0.1949
     90  CA        31.8220  110.8230  221.2040 C.3    56  SER56       0.1924
     91  C         33.1780  110.1590  221.4110 C.2    56  SER56       0.2314
     92  O         33.3120  108.9700  221.1050 O.2    56  SER56      -0.2863
     93  CB        31.5700  110.9860  219.6990 C.3    56  SER56       0.2116
     94  OG        30.2930  111.5500  219.4550 O.3    56  SER56      -0.2180
     95  N         25.3830  114.3040  210.8860 N.3    82  PHE82      -0.1227
     96  CA        26.4420  113.9120  211.8030 C.3    82  PHE82       0.1736
     97  C         27.4330  115.0370  212.0620 C.2    82  PHE82       0.2595
     98  O         28.5850  114.7680  212.4240 O.2    82  PHE82      -0.2718
     99  CB        27.1680  112.6750  211.2740 C.3    82  PHE82       0.0547
    100  CG        26.3110  111.4440  211.2400 C.ar   82  PHE82      -0.0202
    101  CD1       26.2030  110.6310  212.3560 C.ar   82  PHE82      -0.0042
    102  CD2       25.6080  111.1030  210.0970 C.ar   82  PHE82      -0.0042
    103  CE1       25.4150  109.4990  212.3340 C.ar   82  PHE82      -0.0003
    104  CE2       24.8160  109.9710  210.0680 C.ar   82  PHE82      -0.0003
    105  CZ        24.7200  109.1680  211.1900 C.ar   82  PHE82      -0.0000
    106  N         27.0090  116.2890  211.8870 N.am   83  ALA83      -0.1966
    107  CA        27.8540  117.4430  212.1450 C.3    83  ALA83       0.1728
    108  C         27.4530  118.2200  213.3880 C.2    83  ALA83       0.2616
    109  O         28.1620  119.1620  213.7620 O.2    83  ALA83      -0.2715
    110  CB        27.8530  118.3920  210.9360 C.3    83  ALA83       0.0334
    111  N         26.3500  117.8530  214.0380 N.am   84  ARG84      -0.1963
    112  CA        25.8790  118.5280  215.2360 C.3    84  ARG84       0.1729
    113  C         25.5940  117.4950  216.3140 C.2    84  ARG84       0.2616
    114  O         25.1110  116.3980  216.0200 O.2    84  ARG84      -0.2715
    115  CB        24.6260  119.3590  214.9470 C.3    84  ARG84       0.0348
    116  CG        24.8820  120.5650  214.0570 C.3    84  ARG84       0.0492
    117  CD        23.5870  121.2590  213.6670 C.3    84  ARG84       0.2205
    118  NE        22.8090  121.6640  214.8330 N.pl3  84  ARG84      -0.0865
    119  CZ        22.9910  122.8030  215.4920 C.cat  84  ARG84       0.5346
    120  NH1       23.9310  123.6510  215.0990 N.pl3  84  ARG84       0.1354
    121  NH2       22.2370  123.0920  216.5450 N.pl3  84  ARG84       0.1354
    122  N         25.8980  117.8510  217.5600 N.am   85  ARG85      -0.1977
    123  CA        25.7400  116.9260  218.6750 C.3    85  ARG85       0.1597
    124  C         24.2680  116.5830  218.8680 C.2    85  ARG85       0.2287
    125  O         23.4460  117.4650  219.1350 O.2    85  ARG85      -0.2864
    126  CB        26.3210  117.5320  219.9490 C.3    85  ARG85       0.0334
    127  CG        26.2690  116.6040  221.1530 C.3    85  ARG85       0.0492
    128  CD        26.8190  117.2750  222.4030 C.3    85  ARG85       0.2205
    129  NE        28.2230  117.6480  222.2540 N.pl3  85  ARG85      -0.0865
    130  CZ        28.9440  118.2370  223.2030 C.cat  85  ARG85       0.5346
    131  NH1       28.3940  118.5210  224.3760 N.pl3  85  ARG85       0.1354
    132  NH2       30.2160  118.5420  222.9810 N.pl3  85  ARG85       0.1354
    133  N         21.6990  110.4110  216.4090 N.3    89  LYS89      -0.1245
    134  CA        22.0570  110.8390  215.0600 C.3    89  LYS89       0.1561
    135  C         21.6470  109.8100  214.0150 C.2    89  LYS89       0.2260
    136  O         21.3760  110.1730  212.8640 O.2    89  LYS89      -0.2867
    137  CB        23.5620  111.0940  214.9660 C.3    89  LYS89       0.0271
    138  CG        24.0960  112.1580  215.9070 C.3    89  LYS89       0.0035
    139  CD        25.5920  112.3470  215.7020 C.3    89  LYS89       0.0206
    140  CE        26.1660  113.3670  216.6690 C.3    89  LYS89       0.1093
    141  NZ        27.6250  113.5660  216.4550 N.3    89  LYS89      -0.1314
    142  N         42.8680  118.4440  220.5920 N.3   125  HIS125     -0.1241
    143  CA        42.2430  117.3220  219.9100 C.3   125  HIS125      0.1621
    144  C         42.9570  116.0330  220.2900 C.2   125  HIS125      0.2264
    145  O         44.0840  116.0470  220.7910 O.2   125  HIS125     -0.2867
    146  CB        42.2680  117.4880  218.3810 C.3   125  HIS125      0.0745
    147  CG        41.2190  118.4140  217.8490 C.ar  125  HIS125      0.0817
    148  ND1       41.2050  119.7650  218.1250 N.ar  125  HIS125     -0.2268
    149  CD2       40.1530  118.1840  217.0470 C.ar  125  HIS125      0.1154
    150  CE1       40.1730  120.3250  217.5200 C.ar  125  HIS125      0.1986
    151  NE2       39.5170  119.3880  216.8600 N.ar  125  HIS125     -0.2212
    152  N         35.1300  119.9000  200.8210 N.3   145  TYR145     -0.1241
    153  CA        34.9520  120.9010  201.8690 C.3   145  TYR145      0.1605
    154  C         36.1310  121.8590  201.7880 C.2   145  TYR145      0.2264
    155  O         37.2580  121.4920  202.1370 O.2   145  TYR145     -0.2867
    156  CB        34.8500  120.2560  203.2520 C.3   145  TYR145      0.0534
    157  CG        34.6200  121.2410  204.3760 C.ar  145  TYR145     -0.0201
    158  CD1       33.3970  121.8770  204.5290 C.ar  145  TYR145     -0.0009
    159  CD2       35.6240  121.5260  205.2920 C.ar  145  TYR145     -0.0009
    160  CE1       33.1830  122.7760  205.5560 C.ar  145  TYR145      0.0417
    161  CE2       35.4210  122.4220  206.3220 C.ar  145  TYR145      0.0417
    162  CZ        34.1990  123.0440  206.4510 C.ar  145  TYR145      0.1957
    163  OH        33.9940  123.9380  207.4800 O.3   145  TYR145     -0.2866
    164  N         30.6600  123.3490  201.0960 N.3   150  TYR150     -0.1241
    165  CA        30.6610  122.1190  200.3180 C.3   150  TYR150      0.1605
    166  C         30.7600  122.4350  198.8310 C.2   150  TYR150      0.2264
    167  O         30.1390  123.3820  198.3390 O.2   150  TYR150     -0.2867
    168  CB        29.3950  121.3060  200.5900 C.3   150  TYR150      0.0534
    169  CG        29.2390  120.8470  202.0220 C.ar  150  TYR150     -0.0201
    170  CD1       30.1370  119.9550  202.5920 C.ar  150  TYR150     -0.0009
    171  CD2       28.1810  121.2970  202.7990 C.ar  150  TYR150     -0.0009
    172  CE1       29.9890  119.5340  203.8990 C.ar  150  TYR150      0.0417
    173  CE2       28.0240  120.8820  204.1040 C.ar  150  TYR150      0.0417
    174  CZ        28.9300  120.0010  204.6500 C.ar  150  TYR150      0.1957
    175  OH        28.7700  119.5880  205.9520 O.3   150  TYR150     -0.2866
    176  N         27.7120  123.9680  206.3650 N.3   231  PRO231     -0.2116
    177  CA        27.2480  123.4940  207.6730 C.3   231  PRO231      0.1372
    178  C         26.8400  124.6520  208.5730 C.2   231  PRO231      0.2244
    179  O         27.1840  125.8130  208.3410 O.2   231  PRO231     -0.2868
    180  CB        28.4630  122.7490  208.2380 C.3   231  PRO231      0.0268
    181  CG        29.6340  123.3280  207.5160 C.3   231  PRO231      0.0207
    182  CD        29.1380  123.6740  206.1400 C.3   231  PRO231      0.0892
    183  N         27.8020  125.3860  211.5180 N.3   233  ARG233     -0.1245
    184  CA        28.9270  126.0330  212.1880 C.3   233  ARG233      0.1563
    185  C         29.5430  127.1220  211.3180 C.2   233  ARG233      0.2260
    186  O         29.9270  128.1850  211.8220 O.2   233  ARG233     -0.2867
    187  CB        29.9790  124.9900  212.5670 C.3   233  ARG233      0.0307
    188  CG        31.1460  125.5410  213.3760 C.3   233  ARG233      0.0489
    189  CD        31.3640  124.7260  214.6420 C.3   233  ARG233      0.2205
    190  NE        30.2710  124.8980  215.5970 N.pl3 233  ARG233     -0.0865
    191  CZ        30.1180  124.1730  216.7020 C.cat 233  ARG233      0.5346
    192  NH1       29.0930  124.4050  217.5140 N.pl3 233  ARG233      0.1354
    193  NH2       30.9850  123.2120  216.9930 N.pl3 233  ARG233      0.1354
@<TRIPOS>BOND
     1   167   166    2
     2   166   165    1
     3   165   168    1
     4   165   164    1
     5   168   169    1
     6   152   153    1
     7   154   153    1
     8   154   155    2
     9   153   156    1
    10   169   170   ar
    11   169   171   ar
    12   170   172   ar
    13     1     2    1
    14   171   173   ar
    15     7     5    1
    16   156   157    1
    17     4     3    2
    18     5     2    1
    19     5     6    1
    20   172   174   ar
    21     2     3    1
    22   173   174   ar
    23   157   158   ar
    24   157   159   ar
    25   158   160   ar
    26   174   175    1
    27   159   161   ar
    28   160   162   ar
    29   182   176    1
    30   182   181    1
    31   161   162   ar
    32   176   177    1
    33   162   163    1
    34    31    28    1
    35    31    32    1
    36    34    32   am
    37    30    29    2
    38   181   180    1
    39    28    29    1
    40    28    27    1
    41    32    33    2
    42   177   180    1
    43   177   178    1
    44    29    35   am
    45    25    24    2
    46   179   178    2
    47    21    19    1
    48    27    24   am
    49    24    23    1
    50    35    36    1
    51    37    36    1
    52    37    38    2
    53    36    39    1
    54    20    19    1
    55    19    16    1
    56    22    23    1
    57    22    17   am
    58   104   102   ar
    59   104   105   ar
    60   102   100   ar
    61    23    26    1
    62    16    17    1
    63    16    15    1
    64    17    18    2
    65    95    96    1
    66   110   107    1
    67    39    40    1
    68   105   103   ar
    69   100    99    1
    70   100   101   ar
    71    99    96    1
    72   185   186    2
    73   185   184    1
    74   183   184    1
    75    96    97    1
    76    15    10   am
    77    45    42    1
    78    45    46    1
    79    11    10    2
    80   106    97   am
    81   106   107    1
    82    97    98    2
    83   107   108    1
    84   184   187    1
    85    42    41    1
    86    42    43    1
    87   103   101   ar
    88    10     9    1
    89   187   188    1
    90    46    47   ar
    91    46    48   ar
    92   136   135    2
    93    47    49   ar
    94   188   189    1
    95   108   109    2
    96   108   111   am
    97    48    51   ar
    98    48    50   ar
    99    51    53   ar
   100   117   116    1
   101   117   118    1
   102    43    55   am
   103    43    44    2
   104    55    56    1
   105     9     8    1
   106     9    12    1
   107   135   134    1
   108   111   112    1
   109   116   115    1
   110    49    50   ar
   111    50    52   ar
   112    60    59    1
   113    53    54   ar
   114   189   190    1
   115    13    12    1
   116    58    57    2
   117    59    56    1
   118    12    14    1
   119   118   119    2
   120   115   112    1
   121   137   134    1
   122   137   138    1
   123    56    57    1
   124   134   133    1
   125   120   119    1
   126    52    54   ar
   127   112   113    1
   128    57    61   am
   129   119   121    1
   130   190   191    2
   131   139   138    1
   132   139   140    1
   133   114   113    2
   134   113   122   am
   135   141   140    1
   136    61    62    1
   137   191   193    1
   138   191   192    1
   139   151   149   ar
   140   151   150   ar
   141   149   147   ar
   142    62    65    1
   143    62    63    1
   144   150   148   ar
   145   122   123    1
   146    65    66    1
   147    65    67    1
   148   147   148   ar
   149   147   146    1
   150    66    68    1
   151   146   143    1
   152    63    69   am
   153    63    64    2
   154    69    70    1
   155   123   124    1
   156   123   126    1
   157   124   125    2
   158    73    70    1
   159    73    74    1
   160    94    93    1
   161    76    74   ar
   162    70    71    1
   163    93    90    1
   164   143   144    1
   165   143   142    1
   166   126   127    1
   167    82    81    1
   168    74    75   ar
   169   144   145    2
   170    81    78    1
   171    71    72    2
   172    92    91    2
   173   127   128    1
   174    90    91    1
   175    90    89    1
   176    78    77    1
   177    78    79    1
   178    89    85   am
   179   129   128    1
   180   129   130    2
   181    88    87    1
   182    79    83   am
   183    79    80    2
   184    83    84    1
   185   132   130    1
   186    85    86    2
   187    85    84    1
   188   130   131    1
   189    84    87    1
