@<TRIPOS>MOLECULE
tmp/5zc7A00.pdb
 95 90 0 0 0
SMALL
GASTEIGER

@<TRIPOS>ATOM
      1  N         33.2800  -22.1740   15.4230 N.3    21  PRO21      -0.2116
      2  CA        31.9920  -22.7340   15.8890 C.3    21  PRO21       0.1372
      3  C         31.7530  -22.5350   17.3730 C.2    21  PRO21       0.2244
      4  O         30.7050  -22.9230   17.8510 O.2    21  PRO21      -0.2868
      5  CB        32.1380  -24.2510   15.6530 C.3    21  PRO21       0.0268
      6  CG        33.6170  -24.5280   15.5110 C.3    21  PRO21       0.0207
      7  CD        34.2950  -23.2020   15.1300 C.3    21  PRO21       0.0892
      8  N         37.2740  -18.7820   18.7600 N.3    25  ILE25      -0.1231
      9  CA        37.8870  -19.2090   17.5030 C.3    25  ILE25       0.1692
     10  C         37.6480  -18.0910   16.4850 C.2    25  ILE25       0.2592
     11  O         36.5300  -17.5480   16.4120 O.2    25  ILE25      -0.2718
     12  CB        37.2610  -20.5170   16.9460 C.3    25  ILE25       0.0266
     13  CG1       37.5020  -21.7410   17.8820 C.3    25  ILE25       0.0019
     14  CG2       37.7700  -20.8190   15.5730 C.3    25  ILE25       0.0020
     15  CD1       38.8680  -21.8020   18.5510 C.3    25  ILE25       0.0001
     16  N         38.6450  -17.7480   15.6940 N.am   26  LEU26      -0.1966
     17  CA        38.5390  -16.7520   14.6190 C.3    26  LEU26       0.1728
     18  C         38.3890  -17.5590   13.3480 C.2    26  LEU26       0.2616
     19  O         39.3780  -18.0220   12.7650 O.2    26  LEU26      -0.2715
     20  CB        39.7730  -15.8380   14.5440 C.3    26  LEU26       0.0311
     21  CG        39.9100  -14.9320   15.7500 C.3    26  LEU26       0.0022
     22  CD1       41.2160  -14.2030   15.7880 C.3    26  LEU26       0.0001
     23  CD2       38.7460  -13.9640   15.9250 C.3    26  LEU26       0.0001
     24  N         37.1630  -17.8650   12.9580 N.am   27  PHE27      -0.1960
     25  CA        36.9560  -18.8070   11.8920 C.3    27  PHE27       0.1771
     26  C         37.3150  -18.1910   10.5360 C.2    27  PHE27       0.2619
     27  O         36.8770  -17.0450   10.1970 O.2    27  PHE27      -0.2715
     28  CB        35.4970  -19.2660   11.8560 C.3    27  PHE27       0.0574
     29  CG        35.2290  -20.4640   11.0020 C.ar   27  PHE27      -0.0200
     30  CD1       35.5430  -21.7740   11.5070 C.ar   27  PHE27      -0.0042
     31  CD2       34.7440  -20.3060    9.7200 C.ar   27  PHE27      -0.0042
     32  CE1       35.3590  -22.8970   10.7130 C.ar   27  PHE27      -0.0003
     33  CE2       34.5640  -21.4170    8.8890 C.ar   27  PHE27      -0.0003
     34  CZ        34.8550  -22.7010    9.4000 C.ar   27  PHE27      -0.0000
     35  N         38.0740  -18.9400    9.7660 N.am   28  ARG28      -0.1977
     36  CA        38.4560  -18.5060    8.4130 C.3    28  ARG28       0.1597
     37  C         37.4860  -19.0770    7.4030 C.2    28  ARG28       0.2287
     38  O         37.4760  -20.3130    7.2300 O.2    28  ARG28      -0.2864
     39  CB        39.9080  -18.8890    8.0880 C.3    28  ARG28       0.0334
     40  CG        40.8620  -18.7100    9.2250 C.3    28  ARG28       0.0492
     41  CD        41.0080  -17.2580    9.7150 C.3    28  ARG28       0.2205
     42  NE        41.8990  -17.1170   10.8590 N.pl3  28  ARG28      -0.0865
     43  CZ        42.1430  -15.9680   11.5120 C.cat  28  ARG28       0.5346
     44  NH1       42.9340  -15.9750   12.5530 N.pl3  28  ARG28       0.1354
     45  NH2       41.5980  -14.7970   11.1430 N.pl3  28  ARG28       0.1354
     46  N         34.4000  -29.5200    1.1610 N.3    65  ARG65      -0.1245
     47  CA        35.0060  -28.2730    0.7070 C.3    65  ARG65       0.1563
     48  C         36.2190  -28.5310   -0.1550 C.2    65  ARG65       0.2260
     49  O         36.4810  -27.7820   -1.1000 O.2    65  ARG65      -0.2867
     50  CB        35.2590  -27.2240    1.8340 C.3    65  ARG65       0.0307
     51  CG        33.9780  -26.4950    2.2980 C.3    65  ARG65       0.0489
     52  CD        34.1860  -25.3370    3.3300 C.3    65  ARG65       0.2205
     53  NE        34.9890  -25.8960    4.4210 N.pl3  65  ARG65      -0.0865
     54  CZ        34.6270  -26.0010    5.7000 C.cat  65  ARG65       0.5346
     55  NH1       33.4960  -25.4850    6.1810 N.pl3  65  ARG65       0.1354
     56  NH2       35.4500  -26.6200    6.5290 N.pl3  65  ARG65       0.1354
     57  N         41.6420  -26.1590    3.5320 N.3   127  LEU127     -0.1245
     58  CA        42.1490  -25.5470    4.7640 C.3   127  LEU127      0.1561
     59  C         42.9200  -26.6170    5.5410 C.2   127  LEU127      0.2260
     60  O         42.3900  -27.6930    5.8330 O.2   127  LEU127     -0.2867
     61  CB        41.0130  -24.9390    5.6160 C.3   127  LEU127      0.0270
     62  CG        41.5610  -24.2040    6.8460 C.3   127  LEU127      0.0019
     63  CD1       40.7600  -22.9560    7.2520 C.3   127  LEU127      0.0001
     64  CD2       41.7190  -25.0510    8.1110 C.3   127  LEU127      0.0001
     65  N         44.3650  -27.6210    9.0040 N.3   129  ALA129     -0.1245
     66  CA        44.2730  -27.2990   10.4230 C.3   129  ALA129      0.1562
     67  C         45.1560  -28.3420   11.1110 C.2   129  ALA129      0.2260
     68  O         46.3690  -28.2380   11.1420 O.2   129  ALA129     -0.2867
     69  CB        42.7710  -27.3700   10.9130 C.3   129  ALA129      0.0290
     70  N         46.6840  -23.1030    8.6970 N.3   157  LEU157     -0.1245
     71  CA        46.7680  -22.6860   10.0570 C.3   157  LEU157      0.1561
     72  C         47.9620  -23.4050   10.7310 C.2   157  LEU157      0.2260
     73  O         47.8100  -24.4180   11.4050 O.2   157  LEU157     -0.2867
     74  CB        45.4990  -22.9520   10.7900 C.3   157  LEU157      0.0270
     75  CG        44.2640  -22.3840   10.0520 C.3   157  LEU157      0.0019
     76  CD1       43.0060  -22.7040   10.8630 C.3   157  LEU157      0.0001
     77  CD2       44.2700  -20.9010    9.7080 C.3   157  LEU157      0.0001
     78  N         48.2010  -25.0570   14.2250 N.3   160  LEU160     -0.1245
     79  CA        47.5240  -26.2900   14.5970 C.3   160  LEU160      0.1561
     80  C         48.3290  -27.5600   14.3010 C.2   160  LEU160      0.2260
     81  O         47.7730  -28.6300   14.5120 O.2   160  LEU160     -0.2867
     82  CB        46.1200  -26.4020   13.9870 C.3   160  LEU160      0.0270
     83  CG        45.1470  -25.4120   14.6250 C.3   160  LEU160      0.0019
     84  CD1       43.8460  -25.3210   13.8180 C.3   160  LEU160      0.0001
     85  CD2       44.8620  -25.8360   16.1250 C.3   160  LEU160      0.0001
     86  N         44.2420  -20.4260   16.2290 N.3   182  HIS182     -0.1241
     87  CA        43.7070  -21.7830   16.2690 C.3   182  HIS182      0.1621
     88  C         42.4330  -21.8930   15.3950 C.2   182  HIS182      0.2264
     89  O         42.0330  -20.9530   14.6600 O.2   182  HIS182     -0.2867
     90  CB        43.5280  -22.2140   17.7610 C.3   182  HIS182      0.0745
     91  CG        44.8280  -22.5480   18.4590 C.ar  182  HIS182      0.0817
     92  ND1       44.8870  -23.2670   19.6460 N.ar  182  HIS182     -0.2268
     93  CD2       46.1240  -22.3130   18.1080 C.ar  182  HIS182      0.1154
     94  CE1       46.1550  -23.4630   19.9910 C.ar  182  HIS182      0.1986
     95  NE2       46.9220  -22.9100   19.0640 N.ar  182  HIS182     -0.2212
@<TRIPOS>BOND
     1    49    48    2
     2    48    47    1
     3    47    46    1
     4    47    50    1
     5    50    51    1
     6    51    52    1
     7    52    53    1
     8    57    58    1
     9    53    54    2
    10    58    59    1
    11    58    61    1
    12    59    60    2
    13    61    62    1
    14    54    55    1
    15    54    56    1
    16    62    63    1
    17    62    64    1
    18    38    37    2
    19    37    36    1
    20    39    36    1
    21    39    40    1
    22    36    35    1
    23    70    71    1
    24    33    34   ar
    25    33    31   ar
    26    65    66    1
    27    40    41    1
    28    34    32   ar
    29    77    75    1
    30    41    42    1
    31    31    29   ar
    32    35    26   am
    33    75    74    1
    34    75    76    1
    35    71    72    1
    36    71    74    1
    37    27    26    2
    38    66    69    1
    39    66    67    1
    40    26    25    1
    41    32    30   ar
    42    72    73    2
    43    42    43    2
    44    29    30   ar
    45    29    28    1
    46    67    68    2
    47    45    43    1
    48    43    44    1
    49    28    25    1
    50    25    24    1
    51    19    18    2
    52    24    18   am
    53    18    17    1
    54    84    83    1
    55    82    79    1
    56    82    83    1
    57    78    79    1
    58    80    81    2
    59    80    79    1
    60    20    17    1
    61    20    21    1
    62    17    16    1
    63    83    85    1
    64    89    88    2
    65     7     1    1
    66     7     6    1
    67    88    87    1
    68     1     2    1
    69     6     5    1
    70    14    12    1
    71     5     2    1
    72    16    10   am
    73    21    22    1
    74    21    23    1
    75     2     3    1
    76    86    87    1
    77    87    90    1
    78    11    10    2
    79    10     9    1
    80    12     9    1
    81    12    13    1
    82     3     4    2
    83     9     8    1
    84    90    91    1
    85    13    15    1
    86    93    91   ar
    87    93    95   ar
    88    91    92   ar
    89    95    94   ar
    90    92    94   ar
