@<TRIPOS>MOLECULE
tmp/5zc9A00.pdb
 226 215 0 0 0
SMALL
GASTEIGER

@<TRIPOS>ATOM
      1  N         53.2360   21.7810   79.3830 N.3     6  PHE6       -0.1241
      2  CA        53.7120   20.4930   78.8920 C.3     6  PHE6        0.1605
      3  C         54.2780   19.6410   80.0190 C.2     6  PHE6        0.2264
      4  O         54.2470   18.4080   79.9410 O.2     6  PHE6       -0.2867
      5  CB        54.7740   20.6910   77.8090 C.3     6  PHE6        0.0534
      6  CG        54.2460   21.2700   76.5270 C.ar    6  PHE6       -0.0203
      7  CD1       53.3160   20.5800   75.7670 C.ar    6  PHE6       -0.0042
      8  CD2       54.7020   22.4960   76.0670 C.ar    6  PHE6       -0.0042
      9  CE1       52.8390   21.1090   74.5830 C.ar    6  PHE6       -0.0003
     10  CE2       54.2290   23.0310   74.8840 C.ar    6  PHE6       -0.0003
     11  CZ        53.2990   22.3350   74.1400 C.ar    6  PHE6       -0.0000
     12  N         62.4180   22.2460   70.3130 N.3    22  TYR22      -0.1227
     13  CA        61.7870   22.7210   69.0920 C.3    22  TYR22       0.1736
     14  C         61.3740   24.1840   69.1760 C.2    22  TYR22       0.2596
     15  O         61.1150   24.8020   68.1380 O.2    22  TYR22      -0.2718
     16  CB        60.5720   21.8470   68.7680 C.3    22  TYR22       0.0548
     17  CG        60.0670   21.9980   67.3540 C.ar   22  TYR22      -0.0200
     18  CD1       60.9300   21.8780   66.2730 C.ar   22  TYR22      -0.0009
     19  CD2       58.7260   22.2440   67.0990 C.ar   22  TYR22      -0.0009
     20  CE1       60.4730   22.0130   64.9770 C.ar   22  TYR22       0.0417
     21  CE2       58.2590   22.3790   65.8080 C.ar   22  TYR22       0.0417
     22  CZ        59.1360   22.2640   64.7510 C.ar   22  TYR22       0.1957
     23  OH        58.6750   22.3970   63.4620 O.3    22  TYR22      -0.2866
     24  N         61.3060   24.7510   70.3800 N.am   23  GLY23      -0.1942
     25  CA        60.9560   26.1450   70.5620 C.3    23  GLY23       0.2014
     26  C         59.6430   26.3860   71.2690 C.2    23  GLY23       0.2639
     27  O         59.2920   27.5480   71.5020 O.2    23  GLY23      -0.2714
     28  N         58.9030   25.3370   71.6140 N.am   24  PHE24      -0.1959
     29  CA        57.6430   25.5070   72.3230 C.3    24  PHE24       0.1771
     30  C         57.9110   25.7850   73.7960 C.2    24  PHE24       0.2619
     31  O         58.8000   25.1850   74.4060 O.2    24  PHE24      -0.2715
     32  CB        56.7630   24.2620   72.1850 C.3    24  PHE24       0.0574
     33  CG        56.3500   23.9480   70.7700 C.ar   24  PHE24      -0.0200
     34  CD1       56.6070   24.8310   69.7340 C.ar   24  PHE24      -0.0042
     35  CD2       55.6850   22.7670   70.4820 C.ar   24  PHE24      -0.0042
     36  CE1       56.2250   24.5380   68.4410 C.ar   24  PHE24      -0.0003
     37  CE2       55.2970   22.4680   69.1910 C.ar   24  PHE24      -0.0003
     38  CZ        55.5650   23.3540   68.1690 C.ar   24  PHE24      -0.0000
     39  N         57.1380   26.6990   74.3650 N.am   25  GLU25      -0.1963
     40  CA        57.2420   27.0230   75.7820 C.3    25  GLU25       0.1733
     41  C         55.9880   26.6740   76.5640 C.2    25  GLU25       0.2616
     42  O         56.0860   26.1110   77.6570 O.2    25  GLU25      -0.2715
     43  CB        57.5560   28.5150   75.9600 C.3    25  GLU25       0.0429
     44  CG        58.8470   28.9550   75.2880 C.3    25  GLU25       0.1163
     45  CD        59.2650   30.3580   75.6880 C.2    25  GLU25       0.3649
     46  OE1       58.4070   31.1150   76.1920 O.co2  25  GLU25      -0.2457
     47  OE2       60.4530   30.6980   75.5070 O.co2  25  GLU25      -0.2457
     48  N         54.8140   26.9900   76.0300 N.am   26  LYS26      -0.1977
     49  CA        53.5260   26.7010   76.6370 C.3    26  LYS26       0.1596
     50  C         52.6090   26.0590   75.6080 C.2    26  LYS26       0.2287
     51  O         52.6730   26.3930   74.4200 O.2    26  LYS26      -0.2864
     52  CB        52.8600   27.9770   77.1710 C.3    26  LYS26       0.0298
     53  CG        53.6520   28.7240   78.2280 C.3    26  LYS26       0.0038
     54  CD        53.1970   30.1780   78.3250 C.3    26  LYS26       0.0206
     55  CE        51.6780   30.3020   78.2530 C.3    26  LYS26       0.1093
     56  NZ        50.9810   29.5460   79.3340 N.3    26  LYS26      -0.1314
     57  N         49.4330   25.6030   73.3700 N.3    28  SER28      -0.1217
     58  CA        48.3660   26.4400   72.8490 C.3    28  SER28       0.1889
     59  C         47.0230   25.9760   73.4090 C.2    28  SER28       0.2288
     60  O         46.9300   24.9940   74.1480 O.2    28  SER28      -0.2866
     61  CB        48.3590   26.4020   71.3240 C.3    28  SER28       0.2089
     62  OG        47.9690   25.1210   70.8550 O.3    28  SER28      -0.2183
     63  N         46.1050   22.4640   72.2800 N.3    31  GLN31      -0.1245
     64  CA        46.9990   21.5130   72.9300 C.3    31  GLN31       0.1566
     65  C         46.6140   21.3210   74.3920 C.2    31  GLN31       0.2260
     66  O         46.6970   20.2060   74.9230 O.2    31  GLN31      -0.2867
     67  CB        48.4480   21.9850   72.7840 C.3    31  GLN31       0.0367
     68  CG        48.9700   21.8300   71.3570 C.3    31  GLN31       0.0905
     69  CD        50.1280   22.7560   71.0140 C.2    31  GLN31       0.2608
     70  OE1       50.6930   23.4240   71.8800 O.2    31  GLN31      -0.2717
     71  NE2       50.4830   22.7980   69.7340 N.am   31  GLN31      -0.0878
     72  N         42.8490   28.3740   62.6520 N.3    50  SER50      -0.1202
     73  CA        44.0310   28.2190   61.8110 C.3    50  SER50       0.2020
     74  C         45.2970   28.6310   62.5510 C.2    50  SER50       0.2619
     75  O         45.3380   29.6710   63.2160 O.2    50  SER50      -0.2717
     76  CB        43.8870   29.0640   60.5410 C.3    50  SER50       0.2103
     77  OG        42.6650   28.8100   59.8760 O.3    50  SER50      -0.2182
     78  N         46.3290   27.8020   62.4280 N.am   51  GLY51      -0.1942
     79  CA        47.6470   28.1500   62.9150 C.3    51  GLY51       0.2014
     80  C         47.8390   28.1140   64.4120 C.2    51  GLY51       0.2640
     81  O         48.7730   28.7460   64.9120 O.2    51  GLY51      -0.2714
     82  N         47.0030   27.3850   65.1510 N.am   52  THR52      -0.1936
     83  CA        47.0940   27.3670   66.6050 C.3    52  THR52       0.2028
     84  C         47.7060   26.0820   67.1480 C.2    52  THR52       0.2643
     85  O         47.6100   25.8290   68.3510 O.2    52  THR52      -0.2714
     86  CB        45.7170   27.6010   67.2290 C.3    52  THR52       0.1808
     87  OG1       44.8070   26.5810   66.8030 O.3    52  THR52      -0.2208
     88  CG2       45.1790   28.9690   66.8190 C.3    52  THR52       0.0379
     89  N         48.3320   25.2720   66.3020 N.am   53  GLY53      -0.1939
     90  CA        49.0990   24.1330   66.7490 C.3    53  GLY53       0.2014
     91  C         48.4100   22.7860   66.7310 C.2    53  GLY53       0.2639
     92  O         48.6610   21.9770   67.6310 O.2    53  GLY53      -0.2714
     93  N         47.5630   22.5110   65.7360 N.am   54  LYS54      -0.1963
     94  CA        46.9010   21.2100   65.6810 C.3    54  LYS54       0.1728
     95  C         47.8660   20.0860   65.3140 C.2    54  LYS54       0.2617
     96  O         47.6390   18.9370   65.7060 O.2    54  LYS54      -0.2715
     97  CB        45.7320   21.2590   64.6960 C.3    54  LYS54       0.0311
     98  CG        44.5500   22.0860   65.1870 C.3    54  LYS54       0.0038
     99  CD        43.3700   22.0500   64.2120 C.3    54  LYS54       0.0206
    100  CE        43.6880   22.7940   62.9190 C.3    54  LYS54       0.1093
    101  NZ        43.8280   24.2780   63.1170 N.3    54  LYS54      -0.1314
    102  N         48.9420   20.3830   64.5750 N.am   55  THR55      -0.1937
    103  CA        49.8870   19.3290   64.2100 C.3    55  THR55       0.2028
    104  C         50.5420   18.7320   65.4470 C.2    55  THR55       0.2642
    105  O         50.5080   17.5130   65.6560 O.2    55  THR55      -0.2714
    106  CB        50.9620   19.8530   63.2550 C.3    55  THR55       0.1808
    107  OG1       50.3490   20.4610   62.1130 O.3    55  THR55      -0.2208
    108  CG2       51.8430   18.7010   62.7880 C.3    55  THR55       0.0379
    109  N         51.1460   19.5810   66.2840 N.am   56  ALA56      -0.1977
    110  CA        51.7800   19.0810   67.4970 C.3    56  ALA56       0.1597
    111  C         50.7700   18.4890   68.4670 C.2    56  ALA56       0.2287
    112  O         51.1530   17.6830   69.3200 O.2    56  ALA56      -0.2864
    113  CB        52.5820   20.1880   68.1820 C.3    56  ALA56       0.0319
    114  N         55.3490   18.0720   55.4060 N.3    87  GLN87      -0.1245
    115  CA        55.4970   19.0170   56.5050 C.3    87  GLN87       0.1566
    116  C         55.2260   18.3520   57.8490 C.2    87  GLN87       0.2260
    117  O         55.9530   18.5820   58.8230 O.2    87  GLN87      -0.2867
    118  CB        54.5550   20.2000   56.2780 C.3    87  GLN87       0.0367
    119  CG        54.5910   21.2790   57.3310 C.3    87  GLN87       0.0905
    120  CD        53.5730   22.3670   57.0360 C.2    87  GLN87       0.2608
    121  OE1       53.7520   23.1660   56.1140 O.2    87  GLN87      -0.2717
    122  NE2       52.4850   22.3830   57.7970 N.am   87  GLN87      -0.0878
    123  N         57.6500   17.6950   61.3600 N.3    91  VAL91      -0.1245
    124  CA        57.3060   18.0960   62.7230 C.3    91  VAL91       0.1561
    125  C         57.4100   16.9110   63.6740 C.2    91  VAL91       0.2260
    126  O         57.9530   17.0320   64.7800 O.2    91  VAL91      -0.2867
    127  CB        55.9020   18.7260   62.7690 C.3    91  VAL91       0.0252
    128  CG1       55.4420   18.8840   64.2130 C.3    91  VAL91       0.0019
    129  CG2       55.9000   20.0700   62.0610 C.3    91  VAL91       0.0019
    130  N         44.1920   14.3780   59.5740 N.3   154  ASP154     -0.1225
    131  CA        44.3420   15.8240   59.5700 C.3   154  ASP154      0.1805
    132  C         43.5310   16.4020   58.4160 C.2   154  ASP154      0.2597
    133  O         43.2640   15.7270   57.4170 O.2   154  ASP154     -0.2718
    134  CB        45.8140   16.2170   59.4490 C.3   154  ASP154      0.1424
    135  CG        46.0600   17.6850   59.7680 C.2   154  ASP154      0.3668
    136  OD1       45.1500   18.3460   60.3170 O.co2 154  ASP154     -0.2456
    137  OD2       47.1680   18.1730   59.4620 O.co2 154  ASP154     -0.2456
    138  N         43.1290   17.6660   58.5630 N.am  155  GLU155     -0.1979
    139  CA        42.1890   18.2880   57.6300 C.3   155  GLU155      0.1602
    140  C         41.0050   17.3540   57.3940 C.2   155  GLU155      0.2287
    141  O         40.6370   17.0390   56.2600 O.2   155  GLU155     -0.2864
    142  CB        42.8770   18.6540   56.3130 C.3   155  GLU155      0.0415
    143  CG        44.1650   19.4550   56.4740 C.3   155  GLU155      0.1163
    144  CD        43.9280   20.8710   56.9960 C.2   155  GLU155      0.3649
    145  OE1       42.7650   21.3330   56.9860 O.co2 155  GLU155     -0.2457
    146  OE2       44.9120   21.5220   57.4170 O.co2 155  GLU155     -0.2457
    147  N         40.4370   22.9710   61.1100 N.3   186  ALA186     -0.1245
    148  CA        39.8860   24.2800   61.4460 C.3   186  ALA186      0.1562
    149  C         38.3820   24.3260   61.2130 C.2   186  ALA186      0.2260
    150  O         37.6650   25.0360   61.9290 O.2   186  ALA186     -0.2867
    151  CB        40.5840   25.3680   60.6330 C.3   186  ALA186      0.0290
    152  N         46.6600   23.7550   55.7570 N.3   307  GLY307     -0.1225
    153  CA        47.7030   23.1810   56.5860 C.3   307  GLY307      0.1811
    154  C         49.1100   23.7060   56.3950 C.2   307  GLY307      0.2280
    155  O         49.9140   23.6470   57.3290 O.2   307  GLY307     -0.2866
    156  N         52.3450   25.5760   56.5080 N.3   309  ASP309     -0.1239
    157  CA        52.8060   26.5030   57.5380 C.3   309  ASP309      0.1674
    158  C         54.1130   27.1490   57.0930 C.2   309  ASP309      0.2266
    159  O         55.1610   26.4940   57.0760 O.2   309  ASP309     -0.2867
    160  CB        52.9880   25.7870   58.8750 C.3   309  ASP309      0.1410
    161  CG        53.4910   26.7120   59.9620 C.2   309  ASP309      0.3668
    162  OD1       52.7360   27.6230   60.3660 O.co2 309  ASP309     -0.2456
    163  OD2       54.6430   26.5320   60.4070 O.co2 309  ASP309     -0.2456
    164  N         55.8160   30.5960   58.3320 N.3   311  GLN311     -0.1245
    165  CA        55.6360   31.6850   59.2920 C.3   311  GLN311      0.1566
    166  C         55.7490   33.0590   58.6490 C.2   311  GLN311      0.2260
    167  O         55.0690   33.9990   59.0750 O.2   311  GLN311     -0.2867
    168  CB        56.6600   31.5680   60.4220 C.3   311  GLN311      0.0367
    169  CG        56.4250   30.4100   61.3720 C.3   311  GLN311      0.0905
    170  CD        57.7210   29.8770   61.9610 C.2   311  GLN311      0.2608
    171  OE1       58.5570   30.6420   62.4490 O.2   311  GLN311     -0.2717
    172  NE2       57.9010   28.5590   61.9010 N.am  311  GLN311     -0.0878
    173  N         40.5300   28.4810   55.5290 N.3   330  HIS330     -0.1241
    174  CA        41.8270   27.8300   55.3710 C.3   330  HIS330      0.1621
    175  C         42.7740   28.6900   54.5410 C.2   330  HIS330      0.2264
    176  O         43.9500   28.8530   54.8890 O.2   330  HIS330     -0.2867
    177  CB        41.6360   26.4470   54.7480 C.3   330  HIS330      0.0745
    178  CG        40.9650   25.4700   55.6640 C.ar  330  HIS330      0.0817
    179  ND1       41.6400   24.8110   56.6680 N.ar  330  HIS330     -0.2268
    180  CD2       39.6770   25.0590   55.7440 C.ar  330  HIS330      0.1154
    181  CE1       40.8010   24.0230   57.3180 C.ar  330  HIS330      0.1986
    182  NE2       39.6020   24.1570   56.7780 N.ar  330  HIS330     -0.2212
    183  N         46.5830   30.8990   55.8360 N.3   334  ARG334     -0.1245
    184  CA        47.9920   30.7270   55.4860 C.3   334  ARG334      0.1563
    185  C         48.8380   31.8700   56.0370 C.2   334  ARG334      0.2260
    186  O         50.0380   31.6940   56.2740 O.2   334  ARG334     -0.2867
    187  CB        48.1720   30.6170   53.9680 C.3   334  ARG334      0.0307
    188  CG        47.6240   29.3340   53.3120 C.3   334  ARG334      0.0489
    189  CD        47.7670   28.1020   54.1920 C.3   334  ARG334      0.2205
    190  NE        46.6140   27.9480   55.0730 N.pl3 334  ARG334     -0.0865
    191  CZ        46.6060   27.2210   56.1850 C.cat 334  ARG334      0.5346
    192  NH1       45.5010   27.1540   56.9190 N.pl3 334  ARG334      0.1354
    193  NH2       47.6960   26.5570   56.5590 N.pl3 334  ARG334      0.1354
    194  N         50.1930   33.0630   61.1910 N.3   337  ARG337     -0.1231
    195  CA        50.4480   31.8090   61.8850 C.3   337  ARG337      0.1694
    196  C         50.8130   32.0580   63.3450 C.2   337  ARG337      0.2592
    197  O         51.5900   32.9640   63.6640 O.2   337  ARG337     -0.2718
    198  CB        51.5680   31.0370   61.1880 C.3   337  ARG337      0.0321
    199  CG        51.3200   30.7870   59.7070 C.3   337  ARG337      0.0489
    200  CD        50.0220   30.0280   59.4880 C.3   337  ARG337      0.2205
    201  NE        50.1690   28.5910   59.7330 N.pl3 337  ARG337     -0.0865
    202  CZ        49.1830   27.7090   59.6000 C.cat 337  ARG337      0.5346
    203  NH1       49.4000   26.4170   59.8380 N.pl3 337  ARG337      0.1354
    204  NH2       47.9770   28.1230   59.2260 N.pl3 337  ARG337      0.1354
    205  N         50.2480   31.2330   64.2230 N.am  338  PHE338     -0.1976
    206  CA        50.4510   31.2780   65.6740 C.3   338  PHE338      0.1639
    207  C         50.4370   32.7090   66.2150 C.2   338  PHE338      0.2290
    208  O         51.3940   33.1890   66.8220 O.2   338  PHE338     -0.2864
    209  CB        51.7350   30.5560   66.0780 C.3   338  PHE338      0.0560
    210  CG        51.6770   29.9650   67.4600 C.ar  338  PHE338     -0.0200
    211  CD1       50.9110   28.8320   67.7050 C.ar  338  PHE338     -0.0042
    212  CD2       52.3700   30.5430   68.5150 C.ar  338  PHE338     -0.0042
    213  CE1       50.8410   28.2840   68.9720 C.ar  338  PHE338     -0.0003
    214  CE2       52.3050   29.9980   69.7880 C.ar  338  PHE338     -0.0003
    215  CZ        51.5410   28.8660   70.0160 C.ar  338  PHE338     -0.0000
    216  N         50.4970   35.6220   64.8110 N.3   340  ARG340     -0.1245
    217  CA        51.0930   36.7250   64.0700 C.3   340  ARG340      0.1563
    218  C         50.0190   37.5350   63.3450 C.2   340  ARG340      0.2260
    219  O         48.8940   37.0750   63.1180 O.2   340  ARG340     -0.2867
    220  CB        52.1290   36.2070   63.0710 C.3   340  ARG340      0.0307
    221  CG        53.3800   35.6190   63.7100 C.3   340  ARG340      0.0489
    222  CD        54.3500   35.1250   62.6500 C.3   340  ARG340      0.2205
    223  NE        55.4860   34.4070   63.2220 N.pl3 340  ARG340     -0.0865
    224  CZ        55.4230   33.1640   63.6920 C.cat 340  ARG340      0.5346
    225  NH1       54.2720   32.5030   63.6730 N.pl3 340  ARG340      0.1354
    226  NH2       56.5070   32.5810   64.1890 N.pl3 340  ARG340      0.1354
@<TRIPOS>BOND
     1   188   187    1
     2   188   189    1
     3   187   184    1
     4   189   190    1
     5   175   176    2
     6   175   174    1
     7   177   174    1
     8   177   178    1
     9   190   191    2
    10   174   173    1
    11   114   115    1
    12   184   183    1
    13   184   185    1
    14   178   180   ar
    15   178   179   ar
    16   180   182   ar
    17   152   153    1
    18   185   186    2
    19   121   120    2
    20   191   193    1
    21   191   192    1
    22   141   140    2
    23   118   115    1
    24   118   119    1
    25   142   143    1
    26   142   139    1
    27   154   153    1
    28   154   155    2
    29   143   144    1
    30   115   116    1
    31   156   157    1
    32   179   181   ar
    33   182   181   ar
    34   145   144   ar
    35   144   146   ar
    36   120   119    1
    37   120   122   am
    38   159   158    2
    39   158   157    1
    40   140   139    1
    41   133   132    2
    42   157   160    1
    43   139   138    1
    44   116   117    2
    45   164   165    1
    46   132   138   am
    47   132   131    1
    48   166   167    2
    49   166   165    1
    50   160   161    1
    51   204   202    1
    52   165   168    1
    53   134   131    1
    54   134   135    1
    55   137   135   ar
    56   200   199    1
    57   200   201    1
    58   131   130    1
    59   202   201    2
    60   202   203    1
    61   199   198    1
    62   135   136   ar
    63    77    76    1
    64   161   162   ar
    65   161   163   ar
    66   168   169    1
    67    76    73    1
    68   151   148    1
    69   147   148    1
    70   198   195    1
    71   194   195    1
    72   149   148    1
    73   149   150    2
    74   123   124    1
    75   169   170    1
    76    73    74    1
    77    73    72    1
    78   195   196    1
    79   172   170   am
    80   170   171    2
    81   129   127    1
    82   107   106    1
    83    78    74   am
    84    78    79    1
    85    74    75    2
    86   222   223    1
    87   222   221    1
    88   124   127    1
    89   124   125    1
    90   127   128    1
    91   108   106    1
    92    79    80    1
    93   100   101    1
    94   100    99    1
    95   220   221    1
    96   220   217    1
    97   219   218    2
    98   223   224    2
    99   106   103    1
   100   218   217    1
   101   196   197    2
   102   196   205   am
   103    23    22    1
   104   225   224    1
   105   125   126    2
   106   224   226    1
   107   217   216    1
   108   103   102    1
   109   103   104    1
   110    99    98    1
   111   205   206    1
   112    80    81    2
   113    80    82   am
   114   102    95   am
   115    97    98    1
   116    97    94    1
   117    22    20   ar
   118    22    21   ar
   119    20    18   ar
   120    82    83    1
   121    95    94    1
   122    95    96    2
   123   104   105    2
   124   104   109   am
   125   206   209    1
   126   206   207    1
   127    94    93    1
   128    93    91   am
   129    21    19   ar
   130   209   210    1
   131   207   208    2
   132    18    17   ar
   133   109   110    1
   134    89    90    1
   135    89    84   am
   136    83    84    1
   137    83    86    1
   138    91    90    1
   139    91    92    2
   140    87    86    1
   141    88    86    1
   142    19    17   ar
   143    84    85    2
   144    17    16    1
   145   210   211   ar
   146   210   212   ar
   147   110   113    1
   148   110   111    1
   149   211   213   ar
   150    15    14    2
   151    38    36   ar
   152    38    37   ar
   153    36    34   ar
   154   111   112    2
   155   212   214   ar
   156    16    13    1
   157   213   215   ar
   158    13    14    1
   159    13    12    1
   160    14    24   am
   161    37    35   ar
   162    34    33   ar
   163    71    69   am
   164   214   215   ar
   165    24    25    1
   166    35    33   ar
   167    25    26    1
   168    33    32    1
   169    62    61    1
   170    69    68    1
   171    69    70    2
   172    26    27    2
   173    26    28   am
   174    61    58    1
   175    68    67    1
   176    28    29    1
   177    32    29    1
   178    63    64    1
   179    29    30    1
   180    67    64    1
   181    58    57    1
   182    58    59    1
   183    64    65    1
   184    59    60    2
   185    30    39   am
   186    30    31    2
   187    11     9   ar
   188    11    10   ar
   189    39    40    1
   190    65    66    2
   191    51    50    2
   192     9     7   ar
   193    10     8   ar
   194    44    45    1
   195    44    43    1
   196    47    45   ar
   197    50    49    1
   198    45    46   ar
   199     7     6   ar
   200    40    43    1
   201    40    41    1
   202    48    41   am
   203    48    49    1
   204     8     6   ar
   205     6     5    1
   206    41    42    2
   207    49    52    1
   208    52    53    1
   209     5     2    1
   210    53    54    1
   211    55    54    1
   212    55    56    1
   213     2     1    1
   214     2     3    1
   215     4     3    2
