@<TRIPOS>MOLECULE
tmp/5zc9A01.pdb
 78 73 0 0 0
SMALL
GASTEIGER

@<TRIPOS>ATOM
      1  N         50.4390   16.0650   49.3110 N.3    82  ARG82      -0.1245
      2  CA        51.8020   15.5960   49.5320 C.3    82  ARG82       0.1563
      3  C         52.6230   16.6170   50.3060 C.2    82  ARG82       0.2260
      4  O         53.4060   16.2470   51.1870 O.2    82  ARG82      -0.2867
      5  CB        52.4630   15.2760   48.1970 C.3    82  ARG82       0.0307
      6  CG        51.7370   14.1980   47.4360 C.3    82  ARG82       0.0489
      7  CD        52.1940   14.1300   46.0000 C.3    82  ARG82       0.2205
      8  NE        51.3720   13.1970   45.2400 N.pl3  82  ARG82      -0.0865
      9  CZ        51.5700   12.8980   43.9620 C.cat  82  ARG82       0.5346
     10  NH1       52.5710   13.4620   43.2990 N.pl3  82  ARG82       0.1354
     11  NH2       50.7690   12.0320   43.3500 N.pl3  82  ARG82       0.1354
     12  N         46.4750    9.3820   50.8760 N.3   131  PRO131     -0.2102
     13  CA        45.7050    8.1250   50.8180 C.3   131  PRO131      0.1504
     14  C         46.0960    7.1970   49.6800 C.2   131  PRO131      0.2576
     15  O         46.1480    5.9780   49.8850 O.2   131  PRO131     -0.2718
     16  CB        44.2600    8.6210   50.6810 C.3   131  PRO131      0.0282
     17  CG        44.2750    9.9700   51.3270 C.3   131  PRO131      0.0208
     18  CD        45.5970   10.5620   50.9400 C.3   131  PRO131      0.0893
     19  N         46.3680    7.7310   48.4860 N.am  132  GLY132     -0.1957
     20  CA        46.6860    6.8690   47.3590 C.3   132  GLY132      0.1869
     21  C         47.8860    5.9760   47.6210 C.2   132  GLY132      0.2309
     22  O         47.8170    4.7550   47.4550 O.2   132  GLY132     -0.2863
     23  N         47.3320    3.4680   50.6760 N.3   135  PHE135     -0.1227
     24  CA        46.5150    2.3270   50.2780 C.3   135  PHE135      0.1736
     25  C         47.2890    1.3950   49.3550 C.2   135  PHE135      0.2595
     26  O         47.2050    0.1670   49.4830 O.2   135  PHE135     -0.2718
     27  CB        45.2350    2.8100   49.5970 C.3   135  PHE135      0.0547
     28  CG        44.2700    1.7030   49.2930 C.ar  135  PHE135     -0.0202
     29  CD1       43.6000    1.0580   50.3180 C.ar  135  PHE135     -0.0042
     30  CD2       44.0390    1.3010   47.9890 C.ar  135  PHE135     -0.0042
     31  CE1       42.7140    0.0280   50.0500 C.ar  135  PHE135     -0.0003
     32  CE2       43.1500    0.2720   47.7130 C.ar  135  PHE135     -0.0003
     33  CZ        42.4900   -0.3640   48.7460 C.ar  135  PHE135     -0.0000
     34  N         48.0460    1.9660   48.4180 N.am  136  ASP136     -0.1974
     35  CA        48.9090    1.1760   47.5450 C.3   136  ASP136      0.1709
     36  C         49.8500    0.2930   48.3560 C.2   136  ASP136      0.2293
     37  O         49.9410   -0.9190   48.1230 O.2   136  ASP136     -0.2864
     38  CB        49.6970    2.1180   46.6280 C.3   136  ASP136      0.1436
     39  CG        50.5230    1.3830   45.5880 C.2   136  ASP136      0.3671
     40  OD1       50.2790    0.1750   45.3440 O.co2 136  ASP136     -0.2456
     41  OD2       51.4250    2.0250   45.0100 O.co2 136  ASP136     -0.2456
     42  N         48.0350   -2.3990   50.0990 N.3   139  ASN139     -0.1240
     43  CA        47.6300   -3.4190   49.1350 C.3   139  ASN139      0.1653
     44  C         48.7990   -4.3190   48.7500 C.2   139  ASN139      0.2266
     45  O         48.6340   -5.5360   48.6050 O.2   139  ASN139     -0.2867
     46  CB        47.0330   -2.7490   47.8970 C.3   139  ASN139      0.1155
     47  CG        46.5230   -3.7500   46.8760 C.2   139  ASN139      0.2627
     48  OD1       47.1390   -3.9570   45.8280 O.2   139  ASN139     -0.2716
     49  ND2       45.3940   -4.3810   47.1780 N.am  139  ASN139     -0.0877
     50  N         35.6300   13.4510   47.1640 N.3   163  GLY163     -0.1225
     51  CA        36.6940   12.7100   46.5170 C.3   163  GLY163      0.1811
     52  C         37.5510   11.8680   47.4300 C.2   163  GLY163      0.2280
     53  O         38.2780   10.9940   46.9460 O.2   163  GLY163     -0.2866
     54  N         35.6750    7.8370   50.2520 N.3   166  ASP166     -0.1225
     55  CA        35.8320    6.4380   49.8580 C.3   166  ASP166      0.1805
     56  C         37.2760    5.9760   50.0060 C.2   166  ASP166      0.2597
     57  O         37.5350    4.8120   50.3460 O.2   166  ASP166     -0.2718
     58  CB        35.3610    6.2370   48.4180 C.3   166  ASP166      0.1424
     59  CG        33.8780    6.4940   48.2460 C.2   166  ASP166      0.3668
     60  OD1       33.1220    6.3220   49.2260 O.co2 166  ASP166     -0.2456
     61  OD2       33.4700    6.8660   47.1250 O.co2 166  ASP166     -0.2456
     62  N         38.2340    6.8660   49.7330 N.am  167  GLN167     -0.1979
     63  CA        39.6360    6.5050   49.9110 C.3   167  GLN167      0.1601
     64  C         39.9470    6.2470   51.3780 C.2   167  GLN167      0.2287
     65  O         40.6410    5.2770   51.7160 O.2   167  GLN167     -0.2864
     66  CB        40.5370    7.6050   49.3480 C.3   167  GLN167      0.0394
     67  CG        40.3330    7.8410   47.8590 C.3   167  GLN167      0.0908
     68  CD        41.3840    8.7520   47.2510 C.2   167  GLN167      0.2608
     69  OE1       42.2150    9.3240   47.9580 O.2   167  GLN167     -0.2717
     70  NE2       41.3490    8.8930   45.9290 N.am  167  GLN167     -0.0878
     71  N         38.3090    2.8650   52.4620 N.3   170  ASP170     -0.1239
     72  CA        39.0310    1.6750   52.0190 C.3   170  ASP170      0.1674
     73  C         40.2350    1.3990   52.9110 C.2   170  ASP170      0.2266
     74  O         40.5730    0.2400   53.1740 O.2   170  ASP170     -0.2867
     75  CB        39.4660    1.8310   50.5610 C.3   170  ASP170      0.1410
     76  CG        38.3190    1.6210   49.5850 C.2   170  ASP170      0.3668
     77  OD1       37.3020    1.0060   49.9810 O.co2 170  ASP170     -0.2456
     78  OD2       38.4400    2.0640   48.4220 O.co2 170  ASP170     -0.2456
@<TRIPOS>BOND
     1    10     9    1
     2    11     9    1
     3     9     8    2
     4    41    39   ar
     5     8     7    1
     6    40    39   ar
     7    39    38    1
     8    48    47    2
     9    70    68   am
    10     7     6    1
    11    51    50    1
    12    51    52    1
    13    38    35    1
    14    47    49   am
    15    47    46    1
    16    53    52    2
    17    61    59   ar
    18    68    67    1
    19    68    69    2
    20    20    21    1
    21    20    19    1
    22     6     5    1
    23    22    21    2
    24    35    36    1
    25    35    34    1
    26    32    30   ar
    27    32    33   ar
    28    67    66    1
    29    46    43    1
    30    30    28   ar
    31    37    36    2
    32     5     2    1
    33    59    58    1
    34    59    60   ar
    35    34    25   am
    36    58    55    1
    37    78    76   ar
    38    19    14   am
    39    45    44    2
    40    33    31   ar
    41    44    43    1
    42    43    42    1
    43    28    27    1
    44    28    29   ar
    45     1     2    1
    46    66    63    1
    47    25    26    2
    48    25    24    1
    49     2     3    1
    50    76    77   ar
    51    76    75    1
    52    27    24    1
    53    14    15    2
    54    14    13    1
    55    62    63    1
    56    62    56   am
    57    55    56    1
    58    55    54    1
    59    63    64    1
    60    56    57    2
    61    31    29   ar
    62    24    23    1
    63     3     4    2
    64    75    72    1
    65    16    13    1
    66    16    17    1
    67    13    12    1
    68    12    18    1
    69    18    17    1
    70    64    65    2
    71    72    71    1
    72    72    73    1
    73    73    74    2
