@<TRIPOS>MOLECULE
tmp/5zccA00.pdb
 182 174 0 0 0
SMALL
GASTEIGER

@<TRIPOS>ATOM
      1  N         15.0760   50.5730   71.3840 N.3    57  ASP57      -0.1239
      2  CA        13.9310   50.7120   72.2880 C.3    57  ASP57       0.1674
      3  C         14.1270   49.7960   73.4980 C.2    57  ASP57       0.2266
      4  O         13.2120   49.0770   73.8940 O.2    57  ASP57      -0.2867
      5  CB        12.6190   50.3840   71.5450 C.3    57  ASP57       0.1410
      6  CG        11.3570   50.7780   72.3310 C.2    57  ASP57       0.3668
      7  OD1       11.4250   51.6360   73.2390 O.co2  57  ASP57      -0.2456
      8  OD2       10.2710   50.2310   72.0210 O.co2  57  ASP57      -0.2456
      9  N         12.8410   46.1440   73.3930 N.3    60  TYR60      -0.1241
     10  CA        11.6330   45.8710   72.6300 C.3    60  TYR60       0.1605
     11  C         11.9110   45.8580   71.1220 C.2    60  TYR60       0.2264
     12  O         10.9870   45.7020   70.3250 O.2    60  TYR60      -0.2867
     13  CB        10.5380   46.8790   72.9890 C.3    60  TYR60       0.0534
     14  CG         9.9220   46.5740   74.3500 C.ar   60  TYR60      -0.0201
     15  CD1        8.8730   45.6800   74.4690 C.ar   60  TYR60      -0.0009
     16  CD2       10.4180   47.1620   75.5060 C.ar   60  TYR60      -0.0009
     17  CE1        8.3120   45.3780   75.7100 C.ar   60  TYR60       0.0417
     18  CE2        9.8700   46.8760   76.7440 C.ar   60  TYR60       0.0417
     19  CZ         8.8100   45.9850   76.8410 C.ar   60  TYR60       0.1957
     20  OH         8.2760   45.6820   78.0800 O.3    60  TYR60      -0.2866
     21  N          6.5740   43.2250   66.1640 N.3   100  HIS100     -0.1241
     22  CA         7.6900   43.7900   65.4090 C.3   100  HIS100      0.1621
     23  C          8.9940   43.1310   65.8370 C.2   100  HIS100      0.2264
     24  O          9.0760   42.5340   66.9170 O.2   100  HIS100     -0.2867
     25  CB         7.7770   45.3130   65.6220 C.3   100  HIS100      0.0745
     26  CG         7.7030   45.7200   67.0640 C.ar  100  HIS100      0.0817
     27  ND1        6.5180   46.0600   67.6780 N.ar  100  HIS100     -0.2268
     28  CD2        8.6610   45.8060   68.0220 C.ar  100  HIS100      0.1154
     29  CE1        6.7460   46.3440   68.9520 C.ar  100  HIS100      0.1986
     30  NE2        8.0360   46.1890   69.1880 N.ar  100  HIS100     -0.2212
     31  N          3.9930   55.9490   66.4770 N.3   140  ILE140     -0.1231
     32  CA         3.7010   56.2620   67.8680 C.3   140  ILE140      0.1692
     33  C          4.8690   57.0230   68.5070 C.2   140  ILE140      0.2592
     34  O          4.6890   57.7920   69.4560 O.2   140  ILE140     -0.2718
     35  CB         3.3580   54.9650   68.6310 C.3   140  ILE140      0.0266
     36  CG1        1.9850   54.4740   68.1540 C.3   140  ILE140      0.0019
     37  CG2        3.3810   55.1810   70.1500 C.3   140  ILE140      0.0020
     38  CD1        1.5060   53.1910   68.8020 C.3   140  ILE140      0.0001
     39  N          6.0640   56.8340   67.9560 N.am  141  PHE141     -0.1976
     40  CA         7.2420   57.5590   68.4180 C.3   141  PHE141      0.1639
     41  C          7.5360   58.8020   67.5590 C.2   141  PHE141      0.2290
     42  O          8.6790   59.2650   67.5160 O.2   141  PHE141     -0.2864
     43  CB         8.4640   56.6360   68.4320 C.3   141  PHE141      0.0560
     44  CG         8.3650   55.5080   69.4230 C.ar  141  PHE141     -0.0200
     45  CD1        7.5610   55.6240   70.5480 C.ar  141  PHE141     -0.0042
     46  CD2        9.0840   54.3360   69.2290 C.ar  141  PHE141     -0.0042
     47  CE1        7.4690   54.5780   71.4670 C.ar  141  PHE141     -0.0003
     48  CE2        9.0040   53.2840   70.1340 C.ar  141  PHE141     -0.0003
     49  CZ         8.1910   53.3990   71.2530 C.ar  141  PHE141     -0.0000
     50  N          6.2470   51.6360   65.6470 N.3   160  PHE160     -0.1241
     51  CA         7.1150   52.1530   66.6820 C.3   160  PHE160      0.1605
     52  C          8.3760   52.7380   66.0480 C.2   160  PHE160      0.2264
     53  O          8.2520   53.5540   65.1390 O.2   160  PHE160     -0.2867
     54  CB         7.3610   51.0530   67.7020 C.3   160  PHE160      0.0534
     55  CG         6.0880   50.6150   68.3770 C.ar  160  PHE160     -0.0203
     56  CD1        5.5110   51.4140   69.3610 C.ar  160  PHE160     -0.0042
     57  CD2        5.4370   49.4520   67.9980 C.ar  160  PHE160     -0.0042
     58  CE1        4.3300   51.0480   69.9750 C.ar  160  PHE160     -0.0003
     59  CE2        4.2460   49.0720   68.6150 C.ar  160  PHE160     -0.0003
     60  CZ         3.6900   49.8720   69.6060 C.ar  160  PHE160     -0.0000
     61  N         12.2900   49.2340   64.3660 N.3   164  GLN164     -0.1245
     62  CA        11.3010   48.2290   64.7450 C.3   164  GLN164      0.1566
     63  C         10.2620   47.9670   63.6450 C.2   164  GLN164      0.2260
     64  O          9.0750   48.2690   63.7970 O.2   164  GLN164     -0.2867
     65  CB        10.5900   48.6500   66.0430 C.3   164  GLN164      0.0367
     66  CG        11.4930   48.6160   67.2820 C.3   164  GLN164      0.0905
     67  CD        10.8690   49.3330   68.4640 C.2   164  GLN164      0.2608
     68  OE1       10.6550   50.5510   68.4170 O.2   164  GLN164     -0.2717
     69  NE2       10.5770   48.5880   69.5350 N.am  164  GLN164     -0.0878
     70  N          3.8680   38.2890   79.5270 N.3   194  ARG194     -0.1245
     71  CA         3.2210   39.5680   79.2890 C.3   194  ARG194      0.1563
     72  C          3.3810   39.8170   77.7920 C.2   194  ARG194      0.2260
     73  O          4.4980   39.7350   77.2730 O.2   194  ARG194     -0.2867
     74  CB         3.8700   40.6670   80.1350 C.3   194  ARG194      0.0307
     75  CG         3.3210   42.0850   79.9230 C.3   194  ARG194      0.0489
     76  CD         4.0880   42.7980   78.8090 C.3   194  ARG194      0.2205
     77  NE         3.7920   44.2330   78.7600 N.pl3 194  ARG194     -0.0865
     78  CZ         4.2660   45.0740   77.8390 C.cat 194  ARG194      0.5346
     79  NH1        5.0680   44.6330   76.8730 N.pl3 194  ARG194      0.1354
     80  NH2        3.9430   46.3680   77.8950 N.pl3 194  ARG194      0.1354
     81  N          3.4330   41.9600   74.5270 N.3   196  ASP196     -0.1225
     82  CA         3.6820   43.3510   74.1290 C.3   196  ASP196      0.1805
     83  C          2.8900   43.8380   72.9220 C.2   196  ASP196      0.2597
     84  O          2.7930   43.1340   71.9280 O.2   196  ASP196     -0.2718
     85  CB         5.1720   43.5380   73.8220 C.3   196  ASP196      0.1424
     86  CG         5.5110   44.9660   73.5050 C.2   196  ASP196      0.3668
     87  OD1        5.3490   45.7890   74.4310 O.co2 196  ASP196     -0.2456
     88  OD2        5.9240   45.2680   72.3540 O.co2 196  ASP196     -0.2456
     89  N          2.3470   45.0520   73.0190 N.am  197  ALA197     -0.1979
     90  CA         1.7550   45.7640   71.8800 C.3   197  ALA197      0.1597
     91  C          0.7930   44.8960   71.0820 C.2   197  ALA197      0.2287
     92  O          0.6770   45.0430   69.8580 O.2   197  ALA197     -0.2864
     93  CB         2.8630   46.2940   70.9610 C.3   197  ALA197      0.0319
     94  N         -1.8300   45.7670   68.3660 N.3   200  HIS200     -0.1241
     95  CA        -1.4180   46.4280   67.1180 C.3   200  HIS200      0.1621
     96  C         -1.1250   45.4960   65.9400 C.2   200  HIS200      0.2264
     97  O         -0.7150   45.9660   64.8740 O.2   200  HIS200     -0.2867
     98  CB        -0.1940   47.3190   67.3940 C.3   200  HIS200      0.0745
     99  CG        -0.4880   48.4550   68.3220 C.ar  200  HIS200      0.0817
    100  ND1       -1.0080   49.6540   67.8830 N.ar  200  HIS200     -0.2268
    101  CD2       -0.3680   48.5700   69.6710 C.ar  200  HIS200      0.1154
    102  CE1       -1.1860   50.4620   68.9140 C.ar  200  HIS200      0.1986
    103  NE2       -0.8110   49.8310   70.0080 N.ar  200  HIS200     -0.2212
    104  N         -3.5880   55.3440   65.2510 N.3   222  PHE222     -0.1241
    105  CA        -4.2440   54.2810   66.0140 C.3   222  PHE222      0.1605
    106  C         -5.4500   53.6570   65.2950 C.2   222  PHE222      0.2264
    107  O         -5.6930   52.4530   65.3990 O.2   222  PHE222     -0.2867
    108  CB        -4.6830   54.8080   67.3900 C.3   222  PHE222      0.0534
    109  CG        -3.5500   55.3410   68.2190 C.ar  222  PHE222     -0.0203
    110  CD1       -2.7600   54.4830   68.9710 C.ar  222  PHE222     -0.0042
    111  CD2       -3.2690   56.7000   68.2400 C.ar  222  PHE222     -0.0042
    112  CE1       -1.7110   54.9650   69.7250 C.ar  222  PHE222     -0.0003
    113  CE2       -2.2230   57.1940   69.0030 C.ar  222  PHE222     -0.0003
    114  CZ        -1.4420   56.3240   69.7450 C.ar  222  PHE222     -0.0000
    115  N         -0.8810   43.2460   76.7300 N.3   253  GLN253     -0.1245
    116  CA        -0.8410   44.7070   76.7870 C.3   253  GLN253      0.1566
    117  C         -1.7180   45.2260   75.6650 C.2   253  GLN253      0.2260
    118  O         -1.3120   45.2180   74.4990 O.2   253  GLN253     -0.2867
    119  CB         0.5830   45.2500   76.6600 C.3   253  GLN253      0.0367
    120  CG         0.6300   46.7660   76.9200 C.3   253  GLN253      0.0905
    121  CD         1.6730   47.4750   76.1080 C.2   253  GLN253      0.2608
    122  OE1        2.0590   47.0150   75.0320 O.2   253  GLN253     -0.2717
    123  NE2        2.1390   48.6150   76.6160 N.am  253  GLN253     -0.0878
    124  N         -3.8870   48.1920   74.4710 N.3   255  ASN255     -0.1240
    125  CA        -4.4120   49.5320   74.2820 C.3   255  ASN255      0.1653
    126  C         -5.5890   49.4870   73.2920 C.2   255  ASN255      0.2266
    127  O         -5.6160   48.6340   72.4090 O.2   255  ASN255     -0.2867
    128  CB        -3.2810   50.4240   73.7950 C.3   255  ASN255      0.1155
    129  CG        -3.5680   51.8950   73.9550 C.2   255  ASN255      0.2627
    130  OD1       -4.6060   52.2920   74.4880 O.2   255  ASN255     -0.2716
    131  ND2       -2.6300   52.7220   73.4910 N.am  255  ASN255     -0.0877
    132  N         -5.8170   50.6100   79.2280 N.3   279  PHE279     -0.1241
    133  CA        -5.1950   51.9310   79.2650 C.3   279  PHE279      0.1605
    134  C         -6.1210   53.0710   79.6860 C.2   279  PHE279      0.2264
    135  O         -5.7000   54.2260   79.7290 O.2   279  PHE279     -0.2867
    136  CB        -4.6310   52.2740   77.8760 C.3   279  PHE279      0.0534
    137  CG        -3.3540   51.5670   77.5320 C.ar  279  PHE279     -0.0203
    138  CD1       -2.2370   52.2900   77.1540 C.ar  279  PHE279     -0.0042
    139  CD2       -3.2790   50.1830   77.5500 C.ar  279  PHE279     -0.0042
    140  CE1       -1.0610   51.6460   76.8090 C.ar  279  PHE279     -0.0003
    141  CE2       -2.1050   49.5300   77.2080 C.ar  279  PHE279     -0.0003
    142  CZ        -0.9980   50.2580   76.8390 C.ar  279  PHE279     -0.0000
    143  N          6.8640   50.6500   82.9400 N.3   318  HIS318     -0.1226
    144  CA         8.0160   51.2800   82.2990 C.3   318  HIS318      0.1752
    145  C          7.6230   52.2960   81.2270 C.2   318  HIS318      0.2596
    146  O          8.5000   52.9350   80.6540 O.2   318  HIS318     -0.2718
    147  CB         8.9040   50.2060   81.6630 C.3   318  HIS318      0.0759
    148  CG         8.2010   49.4300   80.5980 C.ar  318  HIS318      0.0818
    149  ND1        7.0520   48.7130   80.8460 N.ar  318  HIS318     -0.2268
    150  CD2        8.4460   49.3080   79.2660 C.ar  318  HIS318      0.1154
    151  CE1        6.6320   48.1590   79.7220 C.ar  318  HIS318      0.1986
    152  NE2        7.4580   48.4980   78.7530 N.ar  318  HIS318     -0.2212
    153  N          6.3200   52.4160   80.9500 N.am  319  ASP319     -0.1974
    154  CA         5.8010   53.3440   79.9330 C.3   319  ASP319      0.1709
    155  C          5.1090   54.5750   80.5240 C.2   319  ASP319      0.2293
    156  O          4.5800   55.4170   79.7800 O.2   319  ASP319     -0.2864
    157  CB         4.8040   52.6320   79.0080 C.3   319  ASP319      0.1436
    158  CG         5.4580   51.5950   78.1250 C.2   319  ASP319      0.3671
    159  OD1        6.6460   51.7480   77.7970 O.co2 319  ASP319     -0.2456
    160  OD2        4.7730   50.6280   77.7450 O.co2 319  ASP319     -0.2456
    161  N          8.1680   58.6140   79.8440 N.3   403  ARG403     -0.1245
    162  CA         8.3010   57.3260   80.5240 C.3   403  ARG403      0.1563
    163  C          9.6910   57.0920   81.1230 C.2   403  ARG403      0.2260
    164  O          9.8710   56.1870   81.9380 O.2   403  ARG403     -0.2867
    165  CB         7.9430   56.1810   79.5770 C.3   403  ARG403      0.0307
    166  CG         8.7300   56.1390   78.2930 C.3   403  ARG403      0.0489
    167  CD         8.0920   55.1720   77.2810 C.3   403  ARG403      0.2205
    168  NE         8.9410   55.0540   76.0990 N.pl3 403  ARG403     -0.0865
    169  CZ         8.9450   54.0380   75.2440 C.cat 403  ARG403      0.5346
    170  NH1        8.1360   52.9890   75.4110 N.pl3 403  ARG403      0.1354
    171  NH2        9.7850   54.0660   74.2130 N.pl3 403  ARG403      0.1354
    172  N         12.2830   54.8740   84.6190 N.3   407  ARG407     -0.1245
    173  CA        13.4110   54.0350   84.2110 C.3   407  ARG407      0.1563
    174  C         14.7180   54.4130   84.8980 C.2   407  ARG407      0.2260
    175  O         15.7760   53.9090   84.5320 O.2   407  ARG407     -0.2867
    176  CB        13.5750   54.1300   82.6910 C.3   407  ARG407      0.0307
    177  CG        12.3360   53.6810   81.9580 C.3   407  ARG407      0.0489
    178  CD        12.4890   53.7900   80.4350 C.3   407  ARG407      0.2205
    179  NE        11.2960   53.2430   79.8120 N.pl3 407  ARG407     -0.0865
    180  CZ        11.2000   52.9300   78.5270 C.cat 407  ARG407      0.5346
    181  NH1       12.2280   53.1420   77.7200 N.pl3 407  ARG407      0.1354
    182  NH2       10.0740   52.4100   78.0590 N.pl3 407  ARG407      0.1354
@<TRIPOS>BOND
     1    63    64    2
     2    63    62    1
     3    61    62    1
     4    62    65    1
     5    97    96    2
     6    53    52    2
     7   104   105    1
     8   106   107    2
     9   106   105    1
    10    22    25    1
    11    22    23    1
    12    22    21    1
    13    25    26    1
    14    50    51    1
    15    23    24    2
    16    96    95    1
    17   105   108    1
    18    65    66    1
    19    52    51    1
    20    31    32    1
    21    51    54    1
    22    26    27   ar
    23    26    28   ar
    24    95    98    1
    25    95    94    1
    26    66    67    1
    27   108   109    1
    28    98    99    1
    29    42    41    2
    30    41    40    1
    31    27    29   ar
    32    54    55    1
    33    32    33    1
    34    32    35    1
    35   100    99   ar
    36   100   102   ar
    37    39    40    1
    38    39    33   am
    39    57    55   ar
    40    57    59   ar
    41    28    30   ar
    42    36    35    1
    43    36    38    1
    44   109   111   ar
    45   109   110   ar
    46   111   113   ar
    47    99   101   ar
    48    55    56   ar
    49    68    67    2
    50    40    43    1
    51    43    44    1
    52    67    69   am
    53    33    34    2
    54    59    60   ar
    55    35    37    1
    56   102   103   ar
    57    29    30   ar
    58   110   112   ar
    59   113   114   ar
    60    46    44   ar
    61    46    48   ar
    62    56    58   ar
    63    44    45   ar
    64    60    58   ar
    65   101   103   ar
    66   112   114   ar
    67    92    91    2
    68    48    49   ar
    69    12    11    2
    70    45    47   ar
    71    93    90    1
    72    91    90    1
    73    11    10    1
    74    49    47   ar
    75     1     2    1
    76     5     2    1
    77     5     6    1
    78    90    89    1
    79    84    83    2
    80     8     6   ar
    81     2     3    1
    82     6     7   ar
    83    88    86   ar
    84   127   126    2
    85    10    13    1
    86    10     9    1
    87    83    89   am
    88    83    82    1
    89    13    14    1
    90   126   125    1
    91   131   129   am
    92     3     4    2
    93    86    85    1
    94    86    87   ar
    95   128   129    1
    96   128   125    1
    97    85    82    1
    98   129   130    2
    99    82    81    1
   100   171   169    1
   101   125   124    1
   102    14    15   ar
   103    14    16   ar
   104    15    17   ar
   105   118   117    2
   106   122   121    2
   107   169   170    1
   108   169   168    2
   109    16    18   ar
   110   117   116    1
   111    17    19   ar
   112   168   167    1
   113   121   123   am
   114   121   120    1
   115   119   116    1
   116   119   120    1
   117   115   116    1
   118    18    19   ar
   119   140   142   ar
   120   140   138   ar
   121   142   141   ar
   122    19    20    1
   123    79    78    1
   124   138   137   ar
   125   141   139   ar
   126    73    72    2
   127   167   166    1
   128   137   139   ar
   129   137   136    1
   130   181   180    1
   131   160   158   ar
   132    72    71    1
   133   159   158   ar
   134    78    80    1
   135    78    77    2
   136   136   133    1
   137   182   180    1
   138   158   157    1
   139   166   165    1
   140   180   179    2
   141   152   150   ar
   142   152   151   ar
   143    77    76    1
   144    76    75    1
   145   157   154    1
   146   132   133    1
   147   133   134    1
   148   150   148   ar
   149    71    70    1
   150    71    74    1
   151   165   162    1
   152   134   135    2
   153   151   149   ar
   154   156   155    2
   155   179   178    1
   156   161   162    1
   157    75    74    1
   158   154   155    1
   159   154   153    1
   160   178   177    1
   161   162   163    1
   162   148   149   ar
   163   148   147    1
   164   146   145    2
   165   153   145   am
   166   163   164    2
   167   145   144    1
   168   147   144    1
   169   177   176    1
   170   144   143    1
   171   176   173    1
   172   173   172    1
   173   173   174    1
   174   175   174    2
