@<TRIPOS>MOLECULE
tmp/5zcdA00.pdb
 217 209 0 0 0
SMALL
GASTEIGER

@<TRIPOS>ATOM
      1  N         15.0600   50.5720   71.2210 N.3    57  ASP57      -0.1239
      2  CA        13.9210   50.7150   72.1220 C.3    57  ASP57       0.1674
      3  C         14.1110   49.7970   73.3270 C.2    57  ASP57       0.2266
      4  O         13.1730   49.1310   73.7580 O.2    57  ASP57      -0.2867
      5  CB        12.6060   50.4040   71.3870 C.3    57  ASP57       0.1410
      6  CG        11.3550   50.7760   72.1910 C.2    57  ASP57       0.3668
      7  OD1       11.4270   51.6350   73.0980 O.co2  57  ASP57      -0.2456
      8  OD2       10.2770   50.2200   71.8870 O.co2  57  ASP57      -0.2456
      9  N         12.8220   46.1200   73.2520 N.3    60  TYR60      -0.1241
     10  CA        11.6160   45.8760   72.4710 C.3    60  TYR60       0.1605
     11  C         11.8950   45.8660   70.9650 C.2    60  TYR60       0.2264
     12  O         10.9700   45.7560   70.1760 O.2    60  TYR60      -0.2867
     13  CB        10.5360   46.9040   72.8130 C.3    60  TYR60       0.0534
     14  CG         9.9050   46.6120   74.1670 C.ar   60  TYR60      -0.0201
     15  CD1        8.8610   45.7050   74.2830 C.ar   60  TYR60      -0.0009
     16  CD2       10.3920   47.2050   75.3240 C.ar   60  TYR60      -0.0009
     17  CE1        8.2920   45.4000   75.5210 C.ar   60  TYR60       0.0417
     18  CE2        9.8320   46.9120   76.5630 C.ar   60  TYR60       0.0417
     19  CZ         8.7790   46.0110   76.6480 C.ar   60  TYR60       0.1957
     20  OH         8.2270   45.7060   77.8820 O.3    60  TYR60      -0.2866
     21  N          6.5320   43.2100   66.0150 N.3   100  HIS100     -0.1241
     22  CA         7.6400   43.7890   65.2630 C.3   100  HIS100      0.1621
     23  C          8.9460   43.1300   65.7050 C.2   100  HIS100      0.2264
     24  O          9.0110   42.5320   66.7900 O.2   100  HIS100     -0.2867
     25  CB         7.7010   45.3150   65.4800 C.3   100  HIS100      0.0745
     26  CG         7.6420   45.7190   66.9270 C.ar  100  HIS100      0.0817
     27  ND1        6.4560   45.9930   67.5720 N.ar  100  HIS100     -0.2268
     28  CD2        8.6200   45.8710   67.8550 C.ar  100  HIS100      0.1154
     29  CE1        6.7050   46.3010   68.8370 C.ar  100  HIS100      0.1986
     30  NE2        8.0100   46.2280   69.0360 N.ar  100  HIS100     -0.2212
     31  N          3.9240   55.9430   66.2720 N.3   140  ILE140     -0.1231
     32  CA         3.6460   56.2810   67.6720 C.3   140  ILE140      0.1692
     33  C          4.8320   57.0410   68.2790 C.2   140  ILE140      0.2592
     34  O          4.6740   57.8300   69.2200 O.2   140  ILE140     -0.2718
     35  CB         3.3060   55.0020   68.4760 C.3   140  ILE140      0.0266
     36  CG1        1.9400   54.4850   68.0130 C.3   140  ILE140      0.0019
     37  CG2        3.3060   55.2650   69.9880 C.3   140  ILE140      0.0020
     38  CD1        1.4470   53.2460   68.7240 C.3   140  ILE140      0.0001
     39  N          6.0190   56.8250   67.7190 N.am  141  PHE141     -0.1976
     40  CA         7.2170   57.5260   68.1750 C.3   141  PHE141      0.1639
     41  C          7.5360   58.7450   67.3140 C.2   141  PHE141      0.2290
     42  O          8.6920   59.1670   67.2520 O.2   141  PHE141     -0.2864
     43  CB         8.4150   56.5820   68.1850 C.3   141  PHE141      0.0560
     44  CG         8.3220   55.5040   69.2240 C.ar  141  PHE141     -0.0200
     45  CD1        7.5660   55.7000   70.3680 C.ar  141  PHE141     -0.0042
     46  CD2        8.9920   54.3060   69.0560 C.ar  141  PHE141     -0.0042
     47  CE1        7.4680   54.7060   71.3270 C.ar  141  PHE141     -0.0003
     48  CE2        8.9090   53.3020   70.0130 C.ar  141  PHE141     -0.0003
     49  CZ         8.1470   53.5050   71.1550 C.ar  141  PHE141     -0.0000
     50  N          6.2340   51.6240   65.4860 N.3   160  PHE160     -0.1241
     51  CA         7.1170   52.1350   66.5210 C.3   160  PHE160      0.1605
     52  C          8.3840   52.7130   65.8740 C.2   160  PHE160      0.2264
     53  O          8.2580   53.5040   64.9390 O.2   160  PHE160     -0.2867
     54  CB         7.3530   51.0340   67.5530 C.3   160  PHE160      0.0534
     55  CG         6.0760   50.6130   68.2300 C.ar  160  PHE160     -0.0203
     56  CD1        5.5040   51.4240   69.2060 C.ar  160  PHE160     -0.0042
     57  CD2        5.4150   49.4480   67.8640 C.ar  160  PHE160     -0.0042
     58  CE1        4.3140   51.0730   69.8260 C.ar  160  PHE160     -0.0003
     59  CE2        4.2200   49.0910   68.4780 C.ar  160  PHE160     -0.0003
     60  CZ         3.6710   49.9030   69.4720 C.ar  160  PHE160     -0.0000
     61  N         12.1900   49.2370   64.2020 N.3   164  GLN164     -0.1245
     62  CA        11.2370   48.2060   64.6000 C.3   164  GLN164      0.1566
     63  C         10.2090   47.9420   63.5020 C.2   164  GLN164      0.2260
     64  O          9.0330   48.2610   63.6470 O.2   164  GLN164     -0.2867
     65  CB        10.5270   48.5990   65.9100 C.3   164  GLN164      0.0367
     66  CG        11.4430   48.6090   67.1130 C.3   164  GLN164      0.0905
     67  CD        10.8590   49.3540   68.3020 C.2   164  GLN164      0.2608
     68  OE1       10.6180   50.5580   68.2340 O.2   164  GLN164     -0.2717
     69  NE2       10.6340   48.6370   69.4070 N.am  164  GLN164     -0.0878
     70  N          3.8890   38.2730   79.3930 N.3   194  ARG194     -0.1245
     71  CA         3.2200   39.5360   79.1390 C.3   194  ARG194      0.1563
     72  C          3.3880   39.8070   77.6380 C.2   194  ARG194      0.2260
     73  O          4.4960   39.7300   77.1130 O.2   194  ARG194     -0.2867
     74  CB         3.8110   40.6490   80.0040 C.3   194  ARG194      0.0307
     75  CG         3.2790   42.0700   79.7410 C.3   194  ARG194      0.0489
     76  CD         4.0680   42.7800   78.6440 C.3   194  ARG194      0.2205
     77  NE         3.7720   44.2190   78.6110 N.pl3 194  ARG194     -0.0865
     78  CZ         4.2410   45.0610   77.6930 C.cat 194  ARG194      0.5346
     79  NH1        5.0380   44.6160   76.7280 N.pl3 194  ARG194      0.1354
     80  NH2        3.9310   46.3590   77.7550 N.pl3 194  ARG194      0.1354
     81  N          3.4030   41.9440   74.3560 N.3   196  ASP196     -0.1225
     82  CA         3.6530   43.3360   73.9750 C.3   196  ASP196      0.1805
     83  C          2.8560   43.8320   72.7820 C.2   196  ASP196      0.2597
     84  O          2.7420   43.1200   71.7730 O.2   196  ASP196     -0.2718
     85  CB         5.1380   43.5260   73.6550 C.3   196  ASP196      0.1424
     86  CG         5.4660   44.9540   73.3270 C.2   196  ASP196      0.3668
     87  OD1        5.3060   45.7820   74.2430 O.co2 196  ASP196     -0.2456
     88  OD2        5.8470   45.2500   72.1670 O.co2 196  ASP196     -0.2456
     89  N          2.3480   45.0650   72.8890 N.am  197  ALA197     -0.1979
     90  CA         1.7230   45.7950   71.7670 C.3   197  ALA197      0.1597
     91  C          0.7830   44.9110   70.9500 C.2   197  ALA197      0.2287
     92  O          0.6920   45.0400   69.7160 O.2   197  ALA197     -0.2864
     93  CB         2.8130   46.3880   70.8630 C.3   197  ALA197      0.0319
     94  N         -1.8890   45.7670   68.2790 N.3   200  HIS200     -0.1241
     95  CA        -1.4780   46.4410   67.0370 C.3   200  HIS200      0.1621
     96  C         -1.1940   45.5160   65.8530 C.2   200  HIS200      0.2264
     97  O         -0.7900   45.9810   64.7910 O.2   200  HIS200     -0.2867
     98  CB        -0.2440   47.3100   67.3090 C.3   200  HIS200      0.0745
     99  CG        -0.5230   48.4630   68.2210 C.ar  200  HIS200      0.0817
    100  ND1       -1.0330   49.6590   67.7610 N.ar  200  HIS200     -0.2268
    101  CD2       -0.3760   48.6050   69.5590 C.ar  200  HIS200      0.1154
    102  CE1       -1.1860   50.4910   68.7800 C.ar  200  HIS200      0.1986
    103  NE2       -0.8050   49.8700   69.8830 N.ar  200  HIS200     -0.2212
    104  N         -3.6990   55.2680   65.0800 N.3   222  PHE222     -0.1241
    105  CA        -4.3610   54.2140   65.8550 C.3   222  PHE222      0.1605
    106  C         -5.5530   53.5750   65.1430 C.2   222  PHE222      0.2264
    107  O         -5.7920   52.3730   65.2620 O.2   222  PHE222     -0.2867
    108  CB        -4.8180   54.7660   67.2030 C.3   222  PHE222      0.0534
    109  CG        -3.7020   55.3160   68.0290 C.ar  222  PHE222     -0.0203
    110  CD1       -2.8830   54.4710   68.7600 C.ar  222  PHE222     -0.0042
    111  CD2       -3.4640   56.6850   68.0730 C.ar  222  PHE222     -0.0042
    112  CE1       -1.8460   54.9690   69.5220 C.ar  222  PHE222     -0.0003
    113  CE2       -2.4310   57.1980   68.8440 C.ar  222  PHE222     -0.0003
    114  CZ        -1.6200   56.3390   69.5680 C.ar  222  PHE222     -0.0000
    115  N         -0.8520   43.2520   76.6200 N.3   253  GLN253     -0.1245
    116  CA        -0.8640   44.7200   76.6470 C.3   253  GLN253      0.1566
    117  C         -1.7650   45.1880   75.5140 C.2   253  GLN253      0.2260
    118  O         -1.3680   45.1610   74.3480 O.2   253  GLN253     -0.2867
    119  CB         0.5390   45.3010   76.5120 C.3   253  GLN253      0.0367
    120  CG         0.5600   46.8300   76.7160 C.3   253  GLN253      0.0905
    121  CD         1.6470   47.5170   75.9300 C.2   253  GLN253      0.2608
    122  OE1        2.0350   47.0580   74.8550 O.2   253  GLN253     -0.2717
    123  NE2        2.1570   48.6250   76.4680 N.am  253  GLN253     -0.0878
    124  N         -3.9260   48.0990   74.3180 N.3   255  ASN255     -0.1240
    125  CA        -4.4280   49.4520   74.1680 C.3   255  ASN255      0.1653
    126  C         -5.6130   49.4270   73.1940 C.2   255  ASN255      0.2266
    127  O         -5.6630   48.5770   72.3010 O.2   255  ASN255     -0.2867
    128  CB        -3.2990   50.3560   73.6880 C.3   255  ASN255      0.1155
    129  CG        -3.6150   51.8280   73.8300 C.2   255  ASN255      0.2627
    130  OD1       -4.6530   52.2100   74.3800 O.2   255  ASN255     -0.2716
    131  ND2       -2.7080   52.6690   73.3360 N.am  255  ASN255     -0.0877
    132  N         -5.8610   50.6460   79.1890 N.3   279  PHE279     -0.1241
    133  CA        -5.2060   51.9450   79.2570 C.3   279  PHE279      0.1605
    134  C         -6.1230   53.0900   79.6700 C.2   279  PHE279      0.2264
    135  O         -5.6860   54.2380   79.7470 O.2   279  PHE279     -0.2867
    136  CB        -4.5910   52.2970   77.8940 C.3   279  PHE279      0.0534
    137  CG        -3.3750   51.4890   77.5280 C.ar  279  PHE279     -0.0203
    138  CD1       -2.2530   52.1150   77.0050 C.ar  279  PHE279     -0.0042
    139  CD2       -3.3640   50.1080   77.6560 C.ar  279  PHE279     -0.0042
    140  CE1       -1.1380   51.3770   76.6320 C.ar  279  PHE279     -0.0003
    141  CE2       -2.2520   49.3680   77.3000 C.ar  279  PHE279     -0.0003
    142  CZ        -1.1370   49.9990   76.7790 C.ar  279  PHE279     -0.0000
    143  N         -5.1670   55.4260   82.4220 N.3   282  MET282     -0.1230
    144  CA        -3.8020   55.9270   82.3370 C.3   282  MET282      0.1702
    145  C         -3.6680   57.1560   81.4220 C.2   282  MET282      0.2592
    146  O         -2.5630   57.6390   81.1830 O.2   282  MET282     -0.2718
    147  CB        -2.8680   54.8010   81.8820 C.3   282  MET282      0.0401
    148  CG        -2.8510   53.5910   82.8480 C.3   282  MET282      0.0596
    149  SD        -2.4000   53.9460   84.5970 S.3   282  MET282     -0.1393
    150  CE        -0.6800   54.3840   84.3580 C.3   282  MET282      0.0692
    151  N         -4.7940   57.6860   80.9520 N.am  283  GLY283     -0.1957
    152  CA        -4.7740   58.8350   80.0560 C.3   283  GLY283      0.1869
    153  C         -5.5610   60.0530   80.5180 C.2   283  GLY283      0.2309
    154  O         -6.1010   60.7930   79.6950 O.2   283  GLY283     -0.2863
    155  N         -5.0350   63.2310   81.5300 N.3   285  TRP285     -0.1241
    156  CA        -4.0970   64.3490   81.6340 C.3   285  TRP285      0.1605
    157  C         -4.7900   65.6810   81.9090 C.2   285  TRP285      0.2264
    158  O         -5.9650   65.8590   81.5880 O.2   285  TRP285     -0.2867
    159  CB        -3.2560   64.4430   80.3570 C.3   285  TRP285      0.0550
    160  CG        -2.4360   63.2020   80.1230 C.ar  285  TRP285      0.0003
    161  CD1       -2.7260   62.1720   79.2730 C.ar  285  TRP285      0.0946
    162  CD2       -1.2040   62.8490   80.7730 C.ar  285  TRP285      0.0152
    163  NE1       -1.7460   61.2060   79.3450 N.ar  285  TRP285     -0.2442
    164  CE2       -0.8000   61.6000   80.2550 C.ar  285  TRP285      0.0810
    165  CE3       -0.4020   63.4720   81.7390 C.ar  285  TRP285      0.0012
    166  CZ2        0.3720   60.9600   80.6710 C.ar  285  TRP285      0.0191
    167  CZ3        0.7620   62.8360   82.1520 C.ar  285  TRP285      0.0001
    168  CH2        1.1350   61.5920   81.6220 C.ar  285  TRP285      0.0015
    169  N          6.8560   50.6230   82.8220 N.3   318  HIS318     -0.1226
    170  CA         7.9930   51.2530   82.1570 C.3   318  HIS318      0.1752
    171  C          7.5980   52.2550   81.0660 C.2   318  HIS318      0.2596
    172  O          8.4710   52.8920   80.4760 O.2   318  HIS318     -0.2718
    173  CB         8.8740   50.1660   81.5380 C.3   318  HIS318      0.0759
    174  CG         8.1820   49.4020   80.4620 C.ar  318  HIS318      0.0818
    175  ND1        7.0260   48.6840   80.6870 N.ar  318  HIS318     -0.2268
    176  CD2        8.4470   49.2880   79.1390 C.ar  318  HIS318      0.1154
    177  CE1        6.6220   48.1420   79.5530 C.ar  318  HIS318      0.1986
    178  NE2        7.4650   48.4940   78.5970 N.ar  318  HIS318     -0.2212
    179  N          6.2980   52.3640   80.7880 N.am  319  ASP319     -0.1960
    180  CA         5.7680   53.2840   79.7750 C.3   319  ASP319      0.1840
    181  C          5.0910   54.5230   80.3620 C.2   319  ASP319      0.2621
    182  O          4.5780   55.3660   79.6160 O.2   319  ASP319     -0.2715
    183  CB         4.7510   52.5660   78.8850 C.3   319  ASP319      0.1450
    184  CG         5.3840   51.5200   77.9960 C.2   319  ASP319      0.3671
    185  OD1        6.5710   51.6690   77.6340 O.co2 319  ASP319     -0.2456
    186  OD2        4.6820   50.5440   77.6610 O.co2 319  ASP319     -0.2456
    187  N          5.0730   54.6320   81.6880 N.am  320  GLN320     -0.1977
    188  CA         4.3170   55.7020   82.3240 C.3   320  GLN320      0.1601
    189  C          5.2060   56.5390   83.2350 C.2   320  GLN320      0.2287
    190  O          6.3330   56.1570   83.5240 O.2   320  GLN320     -0.2864
    191  CB         3.1450   55.1310   83.1320 C.3   320  GLN320      0.0394
    192  CG         2.2500   54.1670   82.3640 C.3   320  GLN320      0.0908
    193  CD         1.3840   54.8490   81.3270 C.2   320  GLN320      0.2608
    194  OE1        1.1480   56.0550   81.3900 O.2   320  GLN320     -0.2717
    195  NE2        0.9290   54.0770   80.3370 N.am  320  GLN320     -0.0878
    196  N          8.1700   58.5810   79.6630 N.3   403  ARG403     -0.1245
    197  CA         8.3040   57.3060   80.3670 C.3   403  ARG403      0.1563
    198  C          9.6990   57.0750   80.9670 C.2   403  ARG403      0.2260
    199  O          9.8720   56.1750   81.8030 O.2   403  ARG403     -0.2867
    200  CB         7.9300   56.1500   79.4440 C.3   403  ARG403      0.0307
    201  CG         8.7720   56.0350   78.2010 C.3   403  ARG403      0.0489
    202  CD         8.1410   55.0750   77.2130 C.3   403  ARG403      0.2205
    203  NE         8.9420   54.9930   75.9970 N.pl3 403  ARG403     -0.0865
    204  CZ         8.9300   53.9760   75.1540 C.cat 403  ARG403      0.5346
    205  NH1        8.1540   52.9180   75.3840 N.pl3 403  ARG403      0.1354
    206  NH2        9.7160   54.0170   74.0810 N.pl3 403  ARG403      0.1354
    207  N         12.2730   54.8860   84.4510 N.3   407  ARG407     -0.1245
    208  CA        13.4040   54.0520   84.0560 C.3   407  ARG407      0.1563
    209  C         14.7150   54.4330   84.7420 C.2   407  ARG407      0.2260
    210  O         15.7760   53.9300   84.3780 O.2   407  ARG407     -0.2867
    211  CB        13.5700   54.1170   82.5380 C.3   407  ARG407      0.0307
    212  CG        12.3120   53.7240   81.8040 C.3   407  ARG407      0.0489
    213  CD        12.4910   53.7780   80.2730 C.3   407  ARG407      0.2205
    214  NE        11.3280   53.1890   79.6380 N.pl3 407  ARG407     -0.0865
    215  CZ        11.2430   52.8880   78.3520 C.cat 407  ARG407      0.5346
    216  NH1       12.2590   53.1660   77.5430 N.pl3 407  ARG407      0.1354
    217  NH2       10.1320   52.3300   77.8830 N.pl3 407  ARG407      0.1354
@<TRIPOS>BOND
     1    63    64    2
     2    63    62    1
     3    61    62    1
     4    62    65    1
     5    97    96    2
     6    53    52    2
     7   104   105    1
     8   106   107    2
     9   106   105    1
    10    22    25    1
    11    22    23    1
    12    22    21    1
    13    25    26    1
    14    50    51    1
    15    23    24    2
    16    96    95    1
    17   105   108    1
    18    52    51    1
    19    65    66    1
    20    31    32    1
    21    51    54    1
    22    26    27   ar
    23    26    28   ar
    24    95    98    1
    25    95    94    1
    26    66    67    1
    27   108   109    1
    28    42    41    2
    29    98    99    1
    30    41    40    1
    31    54    55    1
    32    27    29   ar
    33    32    33    1
    34    32    35    1
    35    39    40    1
    36    39    33   am
    37   100    99   ar
    38   100   102   ar
    39    28    30   ar
    40    57    55   ar
    41    57    59   ar
    42    36    35    1
    43    36    38    1
    44   109   111   ar
    45   109   110   ar
    46   111   113   ar
    47    40    43    1
    48    43    44    1
    49    99   101   ar
    50    55    56   ar
    51    68    67    2
    52    33    34    2
    53    67    69   am
    54    35    37    1
    55    59    60   ar
    56   110   112   ar
    57   102   103   ar
    58    29    30   ar
    59   113   114   ar
    60    46    44   ar
    61    46    48   ar
    62    56    58   ar
    63    44    45   ar
    64    60    58   ar
    65   112   114   ar
    66   101   103   ar
    67    92    91    2
    68    48    49   ar
    69    12    11    2
    70    45    47   ar
    71    93    90    1
    72    91    90    1
    73    11    10    1
    74    49    47   ar
    75     1     2    1
    76     5     2    1
    77     5     6    1
    78    90    89    1
    79    84    83    2
    80     8     6   ar
    81     2     3    1
    82    88    86   ar
    83     6     7   ar
    84   127   126    2
    85    10    13    1
    86    10     9    1
    87    83    89   am
    88    83    82    1
    89    13    14    1
    90   126   125    1
    91     3     4    2
    92    86    85    1
    93    86    87   ar
    94   131   129   am
    95    85    82    1
    96   128   129    1
    97   128   125    1
    98   129   130    2
    99    82    81    1
   100   206   204    1
   101    14    15   ar
   102    14    16   ar
   103   125   124    1
   104    15    17   ar
   105   118   117    2
   106   122   121    2
   107   204   205    1
   108   204   203    2
   109    16    18   ar
   110   117   116    1
   111    17    19   ar
   112   121   123   am
   113   121   120    1
   114   203   202    1
   115   119   116    1
   116   119   120    1
   117    18    19   ar
   118   115   116    1
   119   140   142   ar
   120   140   138   ar
   121    19    20    1
   122    79    78    1
   123   142   141   ar
   124   138   137   ar
   125    73    72    2
   126   202   201    1
   127   141   139   ar
   128   137   139   ar
   129   137   136    1
   130   216   215    1
   131   185   184   ar
   132    72    71    1
   133   186   184   ar
   134    78    80    1
   135    78    77    2
   136   217   215    1
   137   136   133    1
   138   184   183    1
   139   201   200    1
   140   215   214    2
   141   178   176   ar
   142   178   177   ar
   143    77    76    1
   144    76    75    1
   145   183   180    1
   146   176   174   ar
   147    71    70    1
   148    71    74    1
   149   132   133    1
   150   133   134    1
   151   161   163   ar
   152   161   160   ar
   153   163   164   ar
   154   200   197    1
   155   177   175   ar
   156   182   181    2
   157   214   213    1
   158   196   197    1
   159   134   135    2
   160   154   153    2
   161    75    74    1
   162   180   181    1
   163   180   179    1
   164   152   153    1
   165   152   151    1
   166   160   159    1
   167   160   162   ar
   168   164   166   ar
   169   164   162   ar
   170   213   212    1
   171   195   193   am
   172   159   156    1
   173   181   187   am
   174   197   198    1
   175   174   175   ar
   176   174   173    1
   177   172   171    2
   178   166   168   ar
   179   162   165   ar
   180   179   171   am
   181   151   145   am
   182   198   199    2
   183   171   170    1
   184   146   145    2
   185   193   194    2
   186   193   192    1
   187   145   144    1
   188   155   156    1
   189   173   170    1
   190   158   157    2
   191   168   167   ar
   192   156   157    1
   193   187   188    1
   194   165   167   ar
   195   212   211    1
   196   147   144    1
   197   147   148    1
   198   170   169    1
   199   188   191    1
   200   188   189    1
   201   144   143    1
   202   192   191    1
   203   211   208    1
   204   148   149    1
   205   189   190    2
   206   208   207    1
   207   208   209    1
   208   150   149    1
   209   210   209    2
