@<TRIPOS>MOLECULE
tmp/5zceA00.pdb
 232 224 0 0 0
SMALL
GASTEIGER

@<TRIPOS>ATOM
      1  N         15.0550   50.3900   71.3500 N.3    57  ASP57      -0.1239
      2  CA        13.9200   50.5060   72.2520 C.3    57  ASP57       0.1674
      3  C         14.1230   49.6030   73.4650 C.2    57  ASP57       0.2266
      4  O         13.2030   48.9020   73.8940 O.2    57  ASP57      -0.2867
      5  CB        12.6210   50.1650   71.5190 C.3    57  ASP57       0.1410
      6  CG        11.3710   50.5550   72.2890 C.2    57  ASP57       0.3668
      7  OD1       11.4310   51.4200   73.1920 O.co2  57  ASP57      -0.2456
      8  OD2       10.3000   50.0000   71.9600 O.co2  57  ASP57      -0.2456
      9  N         12.8780   45.9820   73.3700 N.3    60  TYR60      -0.1241
     10  CA        11.6810   45.7230   72.5790 C.3    60  TYR60       0.1605
     11  C         11.9510   45.6840   71.0800 C.2    60  TYR60       0.2264
     12  O         11.0000   45.5320   70.2980 O.2    60  TYR60      -0.2867
     13  CB        10.6050   46.7530   72.9270 C.3    60  TYR60       0.0534
     14  CG         9.9960   46.4450   74.2860 C.ar   60  TYR60      -0.0201
     15  CD1        9.0010   45.4840   74.4070 C.ar   60  TYR60      -0.0009
     16  CD2       10.4320   47.0960   75.4400 C.ar   60  TYR60      -0.0009
     17  CE1        8.4410   45.1700   75.6400 C.ar   60  TYR60       0.0417
     18  CE2        9.8830   46.7910   76.6720 C.ar   60  TYR60       0.0417
     19  CZ         8.8770   45.8430   76.7680 C.ar   60  TYR60       0.1957
     20  OH         8.3480   45.5340   78.0100 O.3    60  TYR60      -0.2866
     21  N          6.6430   43.0580   66.1380 N.3   100  HIS100     -0.1241
     22  CA         7.7460   43.6140   65.3680 C.3   100  HIS100      0.1621
     23  C          9.0340   42.9440   65.8110 C.2   100  HIS100      0.2264
     24  O          9.1100   42.3690   66.9030 O.2   100  HIS100     -0.2867
     25  CB         7.8560   45.1300   65.5770 C.3   100  HIS100      0.0745
     26  CG         7.7690   45.5350   67.0180 C.ar  100  HIS100      0.0817
     27  ND1        6.5760   45.8600   67.6200 N.ar  100  HIS100     -0.2268
     28  CD2        8.7190   45.6390   67.9850 C.ar  100  HIS100      0.1154
     29  CE1        6.7870   46.1500   68.8950 C.ar  100  HIS100      0.1986
     30  NE2        8.0790   46.0210   69.1400 N.ar  100  HIS100     -0.2212
     31  N          4.0940   55.7570   66.3410 N.3   140  ILE140     -0.1231
     32  CA         3.8360   56.0800   67.7440 C.3   140  ILE140      0.1692
     33  C          5.0180   56.8390   68.3490 C.2   140  ILE140      0.2592
     34  O          4.8490   57.6440   69.2750 O.2   140  ILE140     -0.2718
     35  CB         3.4870   54.7760   68.5040 C.3   140  ILE140      0.0266
     36  CG1        2.0650   54.3350   68.1210 C.3   140  ILE140      0.0019
     37  CG2        3.6270   54.9380   70.0220 C.3   140  ILE140      0.0020
     38  CD1        1.5640   53.0810   68.8100 C.3   140  ILE140      0.0001
     39  N          6.2200   56.6340   67.8160 N.am  141  PHE141     -0.1976
     40  CA         7.4080   57.3460   68.2700 C.3   141  PHE141      0.1639
     41  C          7.7200   58.5690   67.4000 C.2   141  PHE141      0.2290
     42  O          8.8780   59.0040   67.3440 O.2   141  PHE141     -0.2864
     43  CB         8.6090   56.3950   68.3290 C.3   141  PHE141      0.0560
     44  CG         8.4850   55.3110   69.3800 C.ar  141  PHE141     -0.0200
     45  CD1        7.6800   55.4830   70.4970 C.ar  141  PHE141     -0.0042
     46  CD2        9.1740   54.1140   69.2350 C.ar  141  PHE141     -0.0042
     47  CE1        7.5700   54.4760   71.4680 C.ar  141  PHE141     -0.0003
     48  CE2        9.0670   53.0930   70.1930 C.ar  141  PHE141     -0.0003
     49  CZ         8.2610   53.2790   71.3110 C.ar  141  PHE141     -0.0000
     50  N          6.3510   51.4430   65.5900 N.3   160  PHE160     -0.1241
     51  CA         7.2380   51.9350   66.6380 C.3   160  PHE160      0.1605
     52  C          8.4900   52.5300   65.9710 C.2   160  PHE160      0.2264
     53  O          8.3230   53.3210   65.0330 O.2   160  PHE160     -0.2867
     54  CB         7.4430   50.8160   67.6510 C.3   160  PHE160      0.0534
     55  CG         6.1670   50.4260   68.3220 C.ar  160  PHE160     -0.0203
     56  CD1        5.6090   51.2470   69.2810 C.ar  160  PHE160     -0.0042
     57  CD2        5.5050   49.2610   67.9690 C.ar  160  PHE160     -0.0042
     58  CE1        4.4200   50.9180   69.8960 C.ar  160  PHE160     -0.0003
     59  CE2        4.3040   48.9160   68.5790 C.ar  160  PHE160     -0.0003
     60  CZ         3.7610   49.7440   69.5530 C.ar  160  PHE160     -0.0000
     61  N         12.3250   49.0110   64.3380 N.3   164  GLN164     -0.1245
     62  CA        11.3410   48.0130   64.7640 C.3   164  GLN164      0.1566
     63  C         10.3260   47.7470   63.6510 C.2   164  GLN164      0.2260
     64  O          9.1400   48.0790   63.7840 O.2   164  GLN164     -0.2867
     65  CB        10.6270   48.4810   66.0350 C.3   164  GLN164      0.0367
     66  CG        11.5250   48.5060   67.2730 C.3   164  GLN164      0.0905
     67  CD        10.8810   49.2200   68.4470 C.2   164  GLN164      0.2608
     68  OE1       10.6750   50.4290   68.4020 O.2   164  GLN164     -0.2717
     69  NE2       10.5760   48.4830   69.5130 N.am  164  GLN164     -0.0878
     70  N          3.8660   38.1490   79.5210 N.3   194  ARG194     -0.1245
     71  CA         3.2380   39.4280   79.2260 C.3   194  ARG194      0.1563
     72  C          3.4170   39.6740   77.7270 C.2   194  ARG194      0.2260
     73  O          4.5330   39.5730   77.2090 O.2   194  ARG194     -0.2867
     74  CB         3.8850   40.5310   80.0590 C.3   194  ARG194      0.0307
     75  CG         3.3340   41.9390   79.8270 C.3   194  ARG194      0.0489
     76  CD         4.1280   42.6370   78.7440 C.3   194  ARG194      0.2205
     77  NE         3.8150   44.0670   78.7090 N.pl3 194  ARG194     -0.0865
     78  CZ         4.3070   44.9040   77.8080 C.cat 194  ARG194      0.5346
     79  NH1        5.1360   44.4470   76.8710 N.pl3 194  ARG194      0.1354
     80  NH2        3.9800   46.1990   77.8590 N.pl3 194  ARG194      0.1354
     81  N          3.4490   41.8070   74.4750 N.3   196  ASP196     -0.1225
     82  CA         3.6990   43.2010   74.1110 C.3   196  ASP196      0.1805
     83  C          2.8910   43.6840   72.9020 C.2   196  ASP196      0.2597
     84  O          2.7800   42.9920   71.8850 O.2   196  ASP196     -0.2718
     85  CB         5.1840   43.3620   73.7960 C.3   196  ASP196      0.1424
     86  CG         5.5310   44.7750   73.4350 C.2   196  ASP196      0.3668
     87  OD1        5.3630   45.6150   74.3350 O.co2 196  ASP196     -0.2456
     88  OD2        5.9490   45.0550   72.2830 O.co2 196  ASP196     -0.2456
     89  N          2.3860   44.9210   73.0000 N.am  197  ALA197     -0.1979
     90  CA         1.7800   45.6560   71.8790 C.3   197  ALA197      0.1597
     91  C          0.8370   44.7750   71.0710 C.2   197  ALA197      0.2287
     92  O          0.7340   44.9030   69.8460 O.2   197  ALA197     -0.2864
     93  CB         2.8570   46.2630   70.9760 C.3   197  ALA197      0.0319
     94  N         -2.3430   44.3850   70.7600 N.3   199  SER199     -0.1202
     95  CA        -3.4610   44.9320   70.0070 C.3   199  SER199      0.2020
     96  C         -3.0370   45.5960   68.6990 C.2   199  SER199      0.2618
     97  O         -3.9160   46.0620   67.9660 O.2   199  SER199     -0.2717
     98  CB        -4.2220   45.9360   70.8680 C.3   199  SER199      0.2103
     99  OG        -3.3310   46.9120   71.3500 O.3   199  SER199     -0.2182
    100  N         -1.7460   45.6440   68.3600 N.am  200  HIS200     -0.1975
    101  CA        -1.3180   46.3110   67.1310 C.3   200  HIS200      0.1656
    102  C         -1.0260   45.3740   65.9620 C.2   200  HIS200      0.2291
    103  O         -0.5980   45.8530   64.9010 O.2   200  HIS200     -0.2864
    104  CB        -0.0840   47.1800   67.4070 C.3   200  HIS200      0.0771
    105  CG        -0.3600   48.3280   68.3240 C.ar  200  HIS200      0.0820
    106  ND1       -0.8680   49.5270   67.8700 N.ar  200  HIS200     -0.2267
    107  CD2       -0.2050   48.4650   69.6610 C.ar  200  HIS200      0.1154
    108  CE1       -1.0190   50.3530   68.8920 C.ar  200  HIS200      0.1986
    109  NE2       -0.6290   49.7320   69.9910 N.ar  200  HIS200     -0.2212
    110  N         -3.5750   55.2200   65.1890 N.3   222  PHE222     -0.1241
    111  CA        -4.2230   54.1590   65.9580 C.3   222  PHE222      0.1605
    112  C         -5.4170   53.5480   65.2340 C.2   222  PHE222      0.2264
    113  O         -5.6530   52.3390   65.3460 O.2   222  PHE222     -0.2867
    114  CB        -4.6650   54.6940   67.3160 C.3   222  PHE222      0.0534
    115  CG        -3.5420   55.2380   68.1360 C.ar  222  PHE222     -0.0203
    116  CD1       -2.7280   54.3930   68.8740 C.ar  222  PHE222     -0.0042
    117  CD2       -3.2930   56.6030   68.1650 C.ar  222  PHE222     -0.0042
    118  CE1       -1.6880   54.8990   69.6260 C.ar  222  PHE222     -0.0003
    119  CE2       -2.2540   57.1160   68.9160 C.ar  222  PHE222     -0.0003
    120  CZ        -1.4520   56.2650   69.6480 C.ar  222  PHE222     -0.0000
    121  N         -0.8560   43.0980   76.7090 N.3   253  GLN253     -0.1245
    122  CA        -0.8250   44.5650   76.7580 C.3   253  GLN253      0.1566
    123  C         -1.6990   45.0620   75.6170 C.2   253  GLN253      0.2260
    124  O         -1.2910   45.0480   74.4490 O.2   253  GLN253     -0.2867
    125  CB         0.5960   45.1100   76.6720 C.3   253  GLN253      0.0367
    126  CG         0.6150   46.6320   76.8640 C.3   253  GLN253      0.0905
    127  CD         1.6910   47.3350   76.0690 C.2   253  GLN253      0.2608
    128  OE1        2.0870   46.8810   74.9940 O.2   253  GLN253     -0.2717
    129  NE2        2.1700   48.4550   76.5940 N.am  253  GLN253     -0.0878
    130  N         -3.7970   48.0410   74.5260 N.3   255  ASN255     -0.1240
    131  CA        -4.3080   49.3860   74.3040 C.3   255  ASN255      0.1653
    132  C         -5.4450   49.3460   73.2840 C.2   255  ASN255      0.2266
    133  O         -5.4710   48.5020   72.3870 O.2   255  ASN255     -0.2867
    134  CB        -3.1610   50.2740   73.8320 C.3   255  ASN255      0.1155
    135  CG        -3.4570   51.7490   73.9800 C.2   255  ASN255      0.2627
    136  OD1       -4.5320   52.1390   74.4370 O.2   255  ASN255     -0.2716
    137  ND2       -2.5030   52.5810   73.5750 N.am  255  ASN255     -0.0877
    138  N         -5.8040   50.5280   79.3050 N.3   279  PHE279     -0.1227
    139  CA        -5.1640   51.8300   79.3850 C.3   279  PHE279      0.1736
    140  C         -6.1270   52.9490   79.7430 C.2   279  PHE279      0.2595
    141  O         -5.7190   54.1140   79.7560 O.2   279  PHE279     -0.2718
    142  CB        -4.4850   52.1470   78.0450 C.3   279  PHE279      0.0547
    143  CG        -3.2260   51.3580   77.7940 C.ar  279  PHE279     -0.0202
    144  CD1       -2.0280   52.0100   77.5540 C.ar  279  PHE279     -0.0042
    145  CD2       -3.2400   49.9670   77.7910 C.ar  279  PHE279     -0.0042
    146  CE1       -0.8610   51.2950   77.3230 C.ar  279  PHE279     -0.0003
    147  CE2       -2.0790   49.2430   77.5630 C.ar  279  PHE279     -0.0003
    148  CZ        -0.8880   49.9070   77.3150 C.ar  279  PHE279     -0.0000
    149  N         -7.3870   52.6290   80.0450 N.am  280  GLU280     -0.1979
    150  CA        -8.3920   53.6820   80.1570 C.3   280  GLU280      0.1602
    151  C         -8.1560   54.5900   81.3590 C.2   280  GLU280      0.2287
    152  O         -8.5430   55.7600   81.3100 O.2   280  GLU280     -0.2864
    153  CB        -9.7960   53.0710   80.1970 C.3   280  GLU280      0.0415
    154  CG       -10.2290   52.4780   78.8400 C.3   280  GLU280      0.1163
    155  CD       -11.7360   52.2690   78.7090 C.2   280  GLU280      0.3649
    156  OE1      -12.3270   51.5560   79.5480 O.co2 280  GLU280     -0.2457
    157  OE2      -12.3280   52.8060   77.7510 O.co2 280  GLU280     -0.2457
    158  N         -5.1220   55.4050   82.4890 N.3   282  MET282     -0.1230
    159  CA        -3.7570   55.9040   82.4340 C.3   282  MET282      0.1702
    160  C         -3.5870   57.1090   81.5090 C.2   282  MET282      0.2592
    161  O         -2.4530   57.5340   81.2620 O.2   282  MET282     -0.2718
    162  CB        -2.8220   54.7620   82.0320 C.3   282  MET282      0.0401
    163  CG        -2.9180   53.5650   83.0030 C.3   282  MET282      0.0596
    164  SD        -2.3250   53.9100   84.6980 S.3   282  MET282     -0.1393
    165  CE        -0.5990   54.1300   84.3090 C.3   282  MET282      0.0692
    166  N         -4.6790   57.6900   81.0150 N.am  283  GLY283     -0.1957
    167  CA        -4.5790   58.8700   80.1730 C.3   283  GLY283      0.1869
    168  C         -5.4030   60.0560   80.6290 C.2   283  GLY283      0.2309
    169  O         -5.9080   60.8260   79.8050 O.2   283  GLY283     -0.2863
    170  N         -4.9130   63.0940   81.6930 N.3   285  TRP285     -0.1241
    171  CA        -3.9980   64.2310   81.8090 C.3   285  TRP285      0.1605
    172  C         -4.7580   65.5350   82.0440 C.2   285  TRP285      0.2264
    173  O         -5.9070   65.6840   81.6200 O.2   285  TRP285     -0.2867
    174  CB        -3.1190   64.3480   80.5600 C.3   285  TRP285      0.0550
    175  CG        -2.3070   63.1130   80.2790 C.ar  285  TRP285      0.0003
    176  CD1       -2.5940   62.1370   79.3700 C.ar  285  TRP285      0.0946
    177  CD2       -1.0810   62.7180   80.9170 C.ar  285  TRP285      0.0152
    178  NE1       -1.6230   61.1610   79.3980 N.ar  285  TRP285     -0.2442
    179  CE2       -0.6830   61.4960   80.3360 C.ar  285  TRP285      0.0810
    180  CE3       -0.2780   63.2830   81.9160 C.ar  285  TRP285      0.0012
    181  CZ2        0.4770   60.8260   80.7260 C.ar  285  TRP285      0.0191
    182  CZ3        0.8750   62.6130   82.3040 C.ar  285  TRP285      0.0001
    183  CH2        1.2400   61.3990   81.7110 C.ar  285  TRP285      0.0015
    184  N          6.9150   50.4620   82.9580 N.3   318  HIS318     -0.1226
    185  CA         8.0390   51.0800   82.2500 C.3   318  HIS318      0.1752
    186  C          7.6150   52.0620   81.1460 C.2   318  HIS318      0.2596
    187  O          8.4970   52.6940   80.5510 O.2   318  HIS318     -0.2718
    188  CB         8.9100   49.9790   81.6440 C.3   318  HIS318      0.0759
    189  CG         8.2120   49.2230   80.5670 C.ar  318  HIS318      0.0818
    190  ND1        7.0720   48.4810   80.8040 N.ar  318  HIS318     -0.2268
    191  CD2        8.4380   49.1520   79.2320 C.ar  318  HIS318      0.1154
    192  CE1        6.6480   47.9590   79.6660 C.ar  318  HIS318      0.1986
    193  NE2        7.4590   48.3490   78.7000 N.ar  318  HIS318     -0.2212
    194  N          6.3190   52.2150   80.8670 N.am  319  ASP319     -0.1960
    195  CA         5.8260   53.1590   79.8660 C.3   319  ASP319      0.1840
    196  C          5.1190   54.3670   80.4620 C.2   319  ASP319      0.2621
    197  O          4.5730   55.1750   79.7010 O.2   319  ASP319     -0.2715
    198  CB         4.8380   52.4750   78.9150 C.3   319  ASP319      0.1450
    199  CG         5.4680   51.3920   78.0880 C.2   319  ASP319      0.3671
    200  OD1        6.6430   51.5360   77.6970 O.co2 319  ASP319     -0.2456
    201  OD2        4.7720   50.3910   77.8020 O.co2 319  ASP319     -0.2456
    202  N          5.0700   54.4930   81.7830 N.am  320  GLN320     -0.1977
    203  CA         4.2980   55.5560   82.4030 C.3   320  GLN320      0.1601
    204  C          5.1990   56.3530   83.3280 C.2   320  GLN320      0.2287
    205  O          6.3350   55.9690   83.6190 O.2   320  GLN320     -0.2864
    206  CB         3.0940   54.9960   83.1780 C.3   320  GLN320      0.0394
    207  CG         2.2860   53.9710   82.3880 C.3   320  GLN320      0.0908
    208  CD         1.4220   54.6020   81.3110 C.2   320  GLN320      0.2608
    209  OE1        1.1880   55.8100   81.3070 O.2   320  GLN320     -0.2717
    210  NE2        0.9500   53.7790   80.3790 N.am  320  GLN320     -0.0878
    211  N          8.1560   58.3500   79.7520 N.3   403  ARG403     -0.1245
    212  CA         8.3060   57.0890   80.4740 C.3   403  ARG403      0.1563
    213  C          9.6950   56.8960   81.0730 C.2   403  ARG403      0.2260
    214  O          9.8610   56.0010   81.9130 O.2   403  ARG403     -0.2867
    215  CB         7.9720   55.9080   79.5640 C.3   403  ARG403      0.0307
    216  CG         8.7570   55.8620   78.2810 C.3   403  ARG403      0.0489
    217  CD         8.0990   54.9490   77.2430 C.3   403  ARG403      0.2205
    218  NE         8.9600   54.8330   76.0780 N.pl3 403  ARG403     -0.0865
    219  CZ         8.9880   53.7990   75.2540 C.cat 403  ARG403      0.5346
    220  NH1        8.1900   52.7500   75.4560 N.pl3 403  ARG403      0.1354
    221  NH2        9.8320   53.8030   74.2270 N.pl3 403  ARG403      0.1354
    222  N         12.2800   54.6850   84.5640 N.3   407  ARG407     -0.1245
    223  CA        13.4230   53.8700   84.1740 C.3   407  ARG407      0.1563
    224  C         14.7130   54.2770   84.8690 C.2   407  ARG407      0.2260
    225  O         15.7790   53.7600   84.5160 O.2   407  ARG407     -0.2867
    226  CB        13.5980   53.9390   82.6580 C.3   407  ARG407      0.0307
    227  CG        12.3770   53.4290   81.9270 C.3   407  ARG407      0.0489
    228  CD        12.5120   53.5740   80.4180 C.3   407  ARG407      0.2205
    229  NE        11.3260   53.0210   79.7860 N.pl3 407  ARG407     -0.0865
    230  CZ        11.2210   52.7130   78.4980 C.cat 407  ARG407      0.5346
    231  NH1       12.2330   52.9250   77.6620 N.pl3 407  ARG407      0.1354
    232  NH2       10.0870   52.1940   78.0570 N.pl3 407  ARG407      0.1354
@<TRIPOS>BOND
     1    63    64    2
     2    63    62    1
     3    61    62    1
     4    62    65    1
     5   103   102    2
     6    53    52    2
     7   110   111    1
     8   112   113    2
     9   112   111    1
    10    22    25    1
    11    22    23    1
    12    22    21    1
    13    25    26    1
    14    50    51    1
    15    23    24    2
    16   111   114    1
    17   102   101    1
    18    52    51    1
    19    65    66    1
    20    31    32    1
    21    51    54    1
    22    26    27   ar
    23    26    28   ar
    24   101   104    1
    25   101   100    1
    26    66    67    1
    27   114   115    1
    28    42    41    2
    29    41    40    1
    30   104   105    1
    31    27    29   ar
    32    54    55    1
    33    32    33    1
    34    32    35    1
    35    39    40    1
    36    39    33   am
    37   106   105   ar
    38   106   108   ar
    39    97    96    2
    40    57    55   ar
    41    57    59   ar
    42    28    30   ar
    43    36    35    1
    44    36    38    1
    45   115   117   ar
    46   115   116   ar
    47   117   119   ar
    48    40    43    1
    49    55    56   ar
    50   105   107   ar
    51    43    44    1
    52    33    34    2
    53   100    96   am
    54    68    67    2
    55    67    69   am
    56    35    37    1
    57    59    60   ar
    58    96    95    1
    59   116   118   ar
    60   108   109   ar
    61    29    30   ar
    62   119   120   ar
    63    46    44   ar
    64    46    48   ar
    65    56    58   ar
    66    44    45   ar
    67    60    58   ar
    68   118   120   ar
    69   107   109   ar
    70    92    91    2
    71    95    94    1
    72    95    98    1
    73    48    49   ar
    74    12    11    2
    75    45    47   ar
    76    98    99    1
    77    93    90    1
    78    91    90    1
    79    11    10    1
    80    49    47   ar
    81     1     2    1
    82     5     2    1
    83     5     6    1
    84    90    89    1
    85    84    83    2
    86     8     6   ar
    87     2     3    1
    88    88    86   ar
    89     6     7   ar
    90   133   132    2
    91    10    13    1
    92    10     9    1
    93    83    89   am
    94    83    82    1
    95    13    14    1
    96   132   131    1
    97    86    85    1
    98    86    87   ar
    99     3     4    2
   100   137   135   am
   101    85    82    1
   102   134   135    1
   103   134   131    1
   104   135   136    2
   105    82    81    1
   106   221   219    1
   107    14    15   ar
   108    14    16   ar
   109   131   130    1
   110    15    17   ar
   111   124   123    2
   112   128   127    2
   113   219   220    1
   114   219   218    2
   115    16    18   ar
   116   123   122    1
   117    17    19   ar
   118   127   129   am
   119   127   126    1
   120   218   217    1
   121   125   122    1
   122   125   126    1
   123    18    19   ar
   124   121   122    1
   125    19    20    1
   126    79    78    1
   127    73    72    2
   128   217   216    1
   129   148   146   ar
   130   148   147   ar
   131   146   144   ar
   132   144   143   ar
   133   147   145   ar
   134   231   230    1
   135   200   199   ar
   136    72    71    1
   137   157   155   ar
   138   145   143   ar
   139   143   142    1
   140   201   199   ar
   141    78    80    1
   142    78    77    2
   143   142   139    1
   144   232   230    1
   145   199   198    1
   146   216   215    1
   147   230   229    2
   148   193   191   ar
   149   193   192   ar
   150    77    76    1
   151   155   154    1
   152   155   156   ar
   153    76    75    1
   154   154   153    1
   155   198   195    1
   156    71    70    1
   157    71    74    1
   158   191   189   ar
   159   138   139    1
   160   176   178   ar
   161   176   175   ar
   162   139   140    1
   163   178   179   ar
   164   215   212    1
   165   192   190   ar
   166   197   196    2
   167   140   141    2
   168   140   149   am
   169   211   212    1
   170   229   228    1
   171   169   168    2
   172    75    74    1
   173   195   196    1
   174   195   194    1
   175   149   150    1
   176   150   153    1
   177   150   151    1
   178   167   168    1
   179   167   166    1
   180   175   174    1
   181   175   177   ar
   182   179   181   ar
   183   179   177   ar
   184   210   208   am
   185   228   227    1
   186   196   202   am
   187   212   213    1
   188   187   186    2
   189   174   171    1
   190   189   190   ar
   191   189   188    1
   192   181   183   ar
   193   194   186   am
   194   177   180   ar
   195   166   160   am
   196   213   214    2
   197   186   185    1
   198   161   160    2
   199   209   208    2
   200   152   151    2
   201   208   207    1
   202   160   159    1
   203   173   172    2
   204   188   185    1
   205   170   171    1
   206   183   182   ar
   207   202   203    1
   208   171   172    1
   209   180   182   ar
   210   227   226    1
   211   162   159    1
   212   162   163    1
   213   185   184    1
   214   207   206    1
   215   203   206    1
   216   203   204    1
   217   159   158    1
   218   226   223    1
   219   163   164    1
   220   204   205    2
   221   223   222    1
   222   223   224    1
   223   165   164    1
   224   225   224    2
