@<TRIPOS>MOLECULE
tmp/5zcmA01.pdb
 140 140 0 0 0
SMALL
GASTEIGER

@<TRIPOS>ATOM
      1  N        -24.5370  -21.5410   10.3960 N.3    28  TRP28      -0.1241
      2  CA       -23.7460  -21.8770    9.2160 C.3    28  TRP28       0.1605
      3  C        -24.4160  -22.9890    8.4030 C.2    28  TRP28       0.2264
      4  O        -24.7370  -24.0590    8.9270 O.2    28  TRP28      -0.2867
      5  CB       -22.3260  -22.2930    9.6400 C.3    28  TRP28       0.0550
      6  CG       -21.3810  -22.5370    8.4860 C.ar   28  TRP28       0.0003
      7  CD1      -21.3240  -21.8430    7.3210 C.ar   28  TRP28       0.0946
      8  CD2      -20.3890  -23.5540    8.3970 C.ar   28  TRP28       0.0152
      9  NE1      -20.3500  -22.3650    6.5000 N.ar   28  TRP28      -0.2442
     10  CE2      -19.7620  -23.4220    7.1410 C.ar   28  TRP28       0.0810
     11  CE3      -19.9750  -24.5710    9.2530 C.ar   28  TRP28       0.0012
     12  CZ2      -18.7230  -24.2500    6.7360 C.ar   28  TRP28       0.0191
     13  CZ3      -18.9480  -25.3930    8.8540 C.ar   28  TRP28       0.0001
     14  CH2      -18.3400  -25.2370    7.5960 C.ar   28  TRP28       0.0015
     15  N        -20.2930  -13.7970    7.0650 N.3    55  ASP55      -0.1225
     16  CA       -19.8900  -14.7300    6.0140 C.3    55  ASP55       0.1805
     17  C        -21.0010  -15.6760    5.6030 C.2    55  ASP55       0.2597
     18  O        -20.9450  -16.2300    4.5020 O.2    55  ASP55      -0.2718
     19  CB       -18.6840  -15.5510    6.4950 C.3    55  ASP55       0.1424
     20  CG       -18.1160  -16.4720    5.4210 C.2    55  ASP55       0.3668
     21  OD1      -17.6640  -15.9870    4.3580 O.co2  55  ASP55      -0.2456
     22  OD2      -18.1100  -17.6970    5.6540 O.co2  55  ASP55      -0.2456
     23  N        -22.0110  -15.8680    6.4510 N.am   56  TYR56      -0.1976
     24  CA       -22.9350  -16.9790    6.2280 C.3    56  TYR56       0.1639
     25  C        -23.9890  -16.6890    5.1760 C.2    56  TYR56       0.2290
     26  O        -24.5460  -17.6420    4.6090 O.2    56  TYR56      -0.2864
     27  CB       -23.6410  -17.3700    7.5230 C.3    56  TYR56       0.0560
     28  CG       -22.7360  -17.9190    8.6010 C.ar   56  TYR56      -0.0198
     29  CD1      -21.4240  -18.2860    8.3300 C.ar   56  TYR56      -0.0009
     30  CD2      -23.1920  -18.0360    9.9070 C.ar   56  TYR56      -0.0009
     31  CE1      -20.5850  -18.7740    9.3420 C.ar   56  TYR56       0.0417
     32  CE2      -22.3830  -18.5180   10.9010 C.ar   56  TYR56       0.0417
     33  CZ       -21.0820  -18.8790   10.6290 C.ar   56  TYR56       0.1957
     34  OH       -20.2860  -19.3270   11.6540 O.3    56  TYR56      -0.2866
     35  N        -20.3540  -11.9820   13.4760 N.3    85  LYS85      -0.1245
     36  CA       -18.8990  -12.0530   13.3600 C.3    85  LYS85       0.1561
     37  C        -18.4390  -11.1600   12.2170 C.2    85  LYS85       0.2260
     38  O        -18.9780  -11.2520   11.1010 O.2    85  LYS85      -0.2867
     39  CB       -18.4220  -13.4870   13.1010 C.3    85  LYS85       0.0271
     40  CG       -19.0610  -14.5330   14.0040 C.3    85  LYS85       0.0035
     41  CD       -18.4380  -15.9110   13.8110 C.3    85  LYS85       0.0206
     42  CE       -19.2150  -16.9820   14.5730 C.3    85  LYS85       0.1093
     43  NZ       -20.5220  -17.3700   13.9900 N.3    85  LYS85      -0.1314
     44  N        -16.2070  -10.2540    9.3040 N.3    87  TRP87      -0.1241
     45  CA       -15.4660  -11.0730    8.3470 C.3    87  TRP87       0.1605
     46  C        -14.0840  -10.4740    8.0890 C.2    87  TRP87       0.2264
     47  O        -13.7940   -9.3180    8.4150 O.2    87  TRP87      -0.2867
     48  CB       -16.2490  -11.2500    7.0270 C.3    87  TRP87       0.0550
     49  CG       -15.5860  -12.2010    6.0200 C.ar   87  TRP87       0.0003
     50  CD1      -15.1670  -11.8820    4.7490 C.ar   87  TRP87       0.0946
     51  CD2      -15.1980  -13.5800    6.2200 C.ar   87  TRP87       0.0152
     52  NE1      -14.5970  -12.9690    4.1500 N.ar   87  TRP87      -0.2442
     53  CE2      -14.6100  -14.0250    5.0190 C.ar   87  TRP87       0.0810
     54  CE3      -15.3220  -14.4880    7.2840 C.ar   87  TRP87       0.0012
     55  CZ2      -14.1200  -15.3210    4.8580 C.ar   87  TRP87       0.0191
     56  CZ3      -14.8380  -15.7860    7.1040 C.ar   87  TRP87       0.0001
     57  CH2      -14.2700  -16.1830    5.8970 C.ar   87  TRP87       0.0015
     58  N        -14.0320  -12.7590   13.3580 N.3   118  HIS118     -0.1226
     59  CA       -14.2720  -14.1370   12.9120 C.3   118  HIS118      0.1752
     60  C        -12.9750  -14.9360   12.8060 C.2   118  HIS118      0.2596
     61  O        -12.9470  -16.1190   13.1640 O.2   118  HIS118     -0.2718
     62  CB       -15.0010  -14.1350   11.5770 C.3   118  HIS118      0.0759
     63  CG       -15.6890  -15.4290   11.2320 C.ar  118  HIS118      0.0818
     64  ND1      -16.7570  -15.4660   10.3700 N.ar  118  HIS118     -0.2268
     65  CD2      -15.4710  -16.7150   11.6150 C.ar  118  HIS118      0.1154
     66  CE1      -17.1650  -16.7160   10.2200 C.ar  118  HIS118      0.1986
     67  NE2      -16.3880  -17.4990   10.9430 N.ar  118  HIS118     -0.2212
     68  N        -11.9070  -14.3180   12.3070 N.am  119  PHE119     -0.1976
     69  CA       -10.6060  -14.9620   12.1740 C.3   119  PHE119      0.1639
     70  C         -9.5140  -13.9330   12.3820 C.2   119  PHE119      0.2290
     71  O         -9.7140  -12.7420   12.0830 O.2   119  PHE119     -0.2864
     72  CB       -10.3630  -15.5730   10.7820 C.3   119  PHE119      0.0560
     73  CG       -11.0630  -16.8570   10.5040 C.ar  119  PHE119     -0.0200
     74  CD1      -10.4430  -18.0680   10.7710 C.ar  119  PHE119     -0.0042
     75  CD2      -12.2900  -16.8520    9.8930 C.ar  119  PHE119     -0.0042
     76  CE1      -11.0660  -19.2500   10.4710 C.ar  119  PHE119     -0.0003
     77  CE2      -12.9290  -18.0390    9.6010 C.ar  119  PHE119     -0.0003
     78  CZ       -12.3230  -19.2260    9.8970 C.ar  119  PHE119     -0.0000
     79  N        -14.1120  -15.4210   -0.0290 N.3   136  PHE136     -0.1241
     80  CA       -12.6800  -15.4010   -0.3180 C.3   136  PHE136      0.1605
     81  C        -12.2930  -14.3880   -1.3890 C.2   136  PHE136      0.2264
     82  O        -11.1070  -14.2910   -1.7340 O.2   136  PHE136     -0.2867
     83  CB       -12.2170  -16.7850   -0.7490 C.3   136  PHE136      0.0534
     84  CG       -12.2490  -17.8140    0.3340 C.ar  136  PHE136     -0.0203
     85  CD1      -12.2590  -17.4620    1.6730 C.ar  136  PHE136     -0.0042
     86  CD2      -12.2400  -19.1600    0.0040 C.ar  136  PHE136     -0.0042
     87  CE1      -12.2760  -18.4190    2.6580 C.ar  136  PHE136     -0.0003
     88  CE2      -12.2440  -20.1240    0.9960 C.ar  136  PHE136     -0.0003
     89  CZ       -12.2780  -19.7560    2.3120 C.ar  136  PHE136     -0.0000
     90  N        -11.1630  -18.2260   16.5640 N.3   174  ASN174     -0.1240
     91  CA       -10.0760  -18.8550   15.8090 C.3   174  ASN174      0.1653
     92  C         -8.7200  -18.2140   16.0940 C.2   174  ASN174      0.2266
     93  O         -7.8080  -18.2990   15.2600 O.2   174  ASN174     -0.2867
     94  CB       -10.3550  -18.8230   14.2990 C.3   174  ASN174      0.1155
     95  CG       -11.5860  -19.6200   13.9210 C.2   174  ASN174      0.2627
     96  OD1      -11.6360  -20.8190   14.1830 O.2   174  ASN174     -0.2716
     97  ND2      -12.5860  -18.9700   13.3090 N.am  174  ASN174     -0.0877
     98  N        -14.4890  -18.1510   20.3780 N.3   195  GLN195     -0.1245
     99  CA       -15.1740  -19.2340   19.6910 C.3   195  GLN195      0.1566
    100  C        -14.1830  -20.0030   18.8230 C.2   195  GLN195      0.2260
    101  O        -13.5050  -19.4120   17.9720 O.2   195  GLN195     -0.2867
    102  CB       -16.3470  -18.6850   18.8540 C.3   195  GLN195      0.0367
    103  CG       -17.1550  -19.8060   18.2050 C.3   195  GLN195      0.0905
    104  CD       -18.3540  -19.3490   17.3760 C.2   195  GLN195      0.2608
    105  OE1      -18.4870  -19.7310   16.2020 O.2   195  GLN195     -0.2717
    106  NE2      -19.2690  -18.6040   17.9990 N.am  195  GLN195     -0.0878
    107  N        -17.4140  -24.7100   18.3170 N.3   221  TYR221     -0.1241
    108  CA       -18.0910  -25.0040   17.0640 C.3   221  TYR221      0.1605
    109  C        -17.6100  -26.3270   16.4920 C.2   221  TYR221      0.2264
    110  O        -16.5710  -26.8810   16.8870 O.2   221  TYR221     -0.2867
    111  CB       -17.9310  -23.8670   16.0580 C.3   221  TYR221      0.0534
    112  CG       -16.5920  -23.6120   15.3750 C.ar  221  TYR221     -0.0201
    113  CD1      -16.1440  -24.4410   14.3410 C.ar  221  TYR221     -0.0009
    114  CD2      -15.8720  -22.4580   15.6290 C.ar  221  TYR221     -0.0009
    115  CE1      -14.9800  -24.1640   13.6340 C.ar  221  TYR221      0.0417
    116  CE2      -14.6980  -22.1730   14.9240 C.ar  221  TYR221      0.0417
    117  CZ       -14.2500  -23.0380   13.9500 C.ar  221  TYR221      0.1957
    118  OH       -13.1030  -22.7390   13.2480 O.3   221  TYR221     -0.2866
    119  N        -11.3370  -27.2240   10.1520 N.3   314  ASN314     -0.1240
    120  CA       -11.5570  -25.8770    9.6290 C.3   314  ASN314      0.1653
    121  C        -10.2460  -25.1190    9.7260 C.2   314  ASN314      0.2266
    122  O         -9.9890  -24.3900   10.6890 O.2   314  ASN314     -0.2867
    123  CB       -12.6470  -25.1520   10.3940 C.3   314  ASN314      0.1155
    124  CG       -13.1700  -23.9350    9.6320 C.2   314  ASN314      0.2627
    125  OD1      -13.2380  -23.9590    8.3880 O.2   314  ASN314     -0.2716
    126  ND2      -13.5760  -22.8770   10.3630 N.am  314  ASN314     -0.0877
    127  N         -6.9520  -22.5730    2.3660 N.3   319  TRP319     -0.1241
    128  CA        -7.6660  -21.6100    1.5330 C.3   319  TRP319      0.1605
    129  C         -6.8040  -21.1080    0.3870 C.2   319  TRP319      0.2264
    130  O         -7.2320  -21.1130   -0.7710 O.2   319  TRP319     -0.2867
    131  CB        -8.1010  -20.4080    2.3590 C.3   319  TRP319      0.0550
    132  CG        -9.0850  -20.6740    3.4470 C.ar  319  TRP319      0.0003
    133  CD1       -9.7210  -21.8450    3.7290 C.ar  319  TRP319      0.0946
    134  CD2       -9.5460  -19.7200    4.4140 C.ar  319  TRP319      0.0152
    135  NE1      -10.5670  -21.6810    4.8130 N.ar  319  TRP319     -0.2442
    136  CE2      -10.4650  -20.3910    5.2600 C.ar  319  TRP319      0.0810
    137  CE3       -9.2740  -18.3720    4.6450 C.ar  319  TRP319      0.0012
    138  CZ2      -11.0980  -19.7640    6.3150 C.ar  319  TRP319      0.0191
    139  CZ3       -9.9210  -17.7370    5.6980 C.ar  319  TRP319      0.0001
    140  CH2      -10.8360  -18.4350    6.5130 C.ar  319  TRP319      0.0015
@<TRIPOS>BOND
     1    82    81    2
     2    81    80    1
     3   130   129    2
     4    83    80    1
     5    83    84    1
     6    80    79    1
     7    86    84   ar
     8    86    88   ar
     9    84    85   ar
    10   129   128    1
    11    88    89   ar
    12   128   131    1
    13   128   127    1
    14    85    87   ar
    15    89    87   ar
    16   131   132    1
    17   132   133   ar
    18   132   134   ar
    19   133   135   ar
    20    52    50   ar
    21    52    53   ar
    22    21    20   ar
    23   134   137   ar
    24   134   136   ar
    25    18    17    2
    26    26    25    2
    27   137   139   ar
    28    50    49   ar
    29   135   136   ar
    30    55    53   ar
    31    55    57   ar
    32    53    51   ar
    33    25    24    1
    34   136   138   ar
    35    20    22   ar
    36    20    19    1
    37    17    16    1
    38    17    23   am
    39   139   140   ar
    40    57    56   ar
    41    16    19    1
    42    16    15    1
    43    49    51   ar
    44    49    48    1
    45    51    54   ar
    46    24    23    1
    47    24    27    1
    48   138   140   ar
    49     9    10   ar
    50     9     7   ar
    51    12    10   ar
    52    12    14   ar
    53    48    45    1
    54    56    54   ar
    55    10     8   ar
    56     7     6   ar
    57    27    28    1
    58    14    13   ar
    59    46    45    1
    60    46    47    2
    61    29    28   ar
    62    29    31   ar
    63    45    44    1
    64   125   124    2
    65     8     6   ar
    66     8    11   ar
    67     3     4    2
    68     3     2    1
    69     6     5    1
    70    28    30   ar
    71    13    11   ar
    72     2     5    1
    73     2     1    1
    74    31    33   ar
    75    77    75   ar
    76    77    78   ar
    77   120   121    1
    78   120   119    1
    79   120   123    1
    80   124   126   am
    81   124   123    1
    82   121   122    2
    83    75    73   ar
    84    78    76   ar
    85    30    32   ar
    86    66    64   ar
    87    66    67   ar
    88    64    63   ar
    89    76    74   ar
    90    73    74   ar
    91    73    72    1
    92    33    32   ar
    93    33    34    1
    94    72    69    1
    95    67    65   ar
    96    38    37    2
    97    63    62    1
    98    63    65   ar
    99    62    59    1
   100    71    70    2
   101    69    68    1
   102    69    70    1
   103    37    36    1
   104    68    60   am
   105    60    59    1
   106    60    61    2
   107    59    58    1
   108    39    36    1
   109    39    40    1
   110   118   117    1
   111    97    95   am
   112    36    35    1
   113   115   117   ar
   114   115   113   ar
   115    41    40    1
   116    41    42    1
   117    95    96    2
   118    95    94    1
   119   117   116   ar
   120    43    42    1
   121    94    91    1
   122   113   112   ar
   123   116   114   ar
   124    93    92    2
   125   112   114   ar
   126   112   111    1
   127    91    92    1
   128    91    90    1
   129   111   108    1
   130   105   104    2
   131   109   110    2
   132   109   108    1
   133   108   107    1
   134   104   106   am
   135   104   103    1
   136   101   100    2
   137   103   102    1
   138   100    99    1
   139   102    99    1
   140    99    98    1
