@<TRIPOS>MOLECULE
tmp/5zcpA08.pdb
 233 235 0 0 0
SMALL
GASTEIGER

@<TRIPOS>ATOM
      1  N         52.3210  331.7830  221.9610 N.3     1  PHE1       -0.1227
      2  CA        52.0270  331.0450  220.7280 C.3     1  PHE1        0.1736
      3  C         53.1310  331.2210  219.6650 C.2     1  PHE1        0.2592
      4  O         53.5760  330.2980  219.0390 O.2     1  PHE1       -0.2718
      5  CB        50.7590  331.5080  220.0720 C.3     1  PHE1        0.0547
      6  CG        50.3840  330.6590  218.8640 C.ar    1  PHE1       -0.0202
      7  CD1       49.6250  329.4990  219.0440 C.ar    1  PHE1       -0.0042
      8  CD2       50.7970  331.0140  217.5780 C.ar    1  PHE1       -0.0042
      9  CE1       49.2450  328.7310  217.9520 C.ar    1  PHE1       -0.0003
     10  CE2       50.4230  330.2370  216.4760 C.ar    1  PHE1       -0.0003
     11  CZ        49.6460  329.0870  216.6970 C.ar    1  PHE1       -0.0000
     12  N         53.5140  332.4560  219.3950 N.am    2  ILE2       -0.2033
     13  CA        54.5100  332.7140  218.3750 C.3     2  ILE2        0.1282
     14  C         55.8490  332.1510  218.8850 C.3     2  ILE2        0.2035
     15  O         56.6300  331.5290  218.0710 O.3     2  ILE2       -0.2185
     16  CB        54.6650  334.2260  218.1180 C.3     2  ILE2        0.0226
     17  CG1       53.4870  334.7070  217.2410 C.3     2  ILE2        0.0018
     18  CG2       56.0390  334.5300  217.4550 C.3     2  ILE2        0.0018
     19  CD1       53.4600  336.2750  217.1460 C.3     2  ILE2        0.0001
     20  N         55.4500  328.2010  218.4590 N.3     5  TRP5       -0.1227
     21  CA        55.2040  327.5840  217.1490 C.3     5  TRP5        0.1737
     22  C         55.9250  328.1930  215.9520 C.2     5  TRP5        0.2595
     23  O         55.9240  327.5630  214.8490 O.2     5  TRP5       -0.2718
     24  CB        53.6680  327.4920  216.8900 C.3     5  TRP5        0.0564
     25  CG        53.0690  326.5740  217.9410 C.ar    5  TRP5        0.0003
     26  CD1       52.2530  326.9320  219.0750 C.ar    5  TRP5        0.0946
     27  CD2       53.2110  325.1540  218.0400 C.ar    5  TRP5        0.0152
     28  NE1       51.8980  325.8380  219.7960 N.ar    5  TRP5       -0.2442
     29  CE2       52.4460  324.7210  219.2250 C.ar    5  TRP5        0.0810
     30  CE3       53.8630  324.1600  217.2140 C.ar    5  TRP5        0.0012
     31  CZ2       52.4160  323.3910  219.6230 C.ar    5  TRP5        0.0191
     32  CZ3       53.8390  322.8220  217.6530 C.ar    5  TRP5        0.0001
     33  CH2       53.1000  322.4470  218.8070 C.ar    5  TRP5        0.0015
     34  N         56.3540  329.4720  216.0230 N.am    6  LEU6       -0.1980
     35  CA        57.1100  330.0290  214.9350 C.3     6  LEU6        0.1596
     36  C         58.6560  330.0460  215.2890 C.2     6  LEU6        0.2287
     37  O         59.4580  330.1480  214.3540 O.2     6  LEU6       -0.2864
     38  CB        56.7110  331.5420  214.7090 C.3     6  LEU6        0.0297
     39  CG        55.4900  331.6540  213.7610 C.3     6  LEU6        0.0022
     40  CD1       54.3440  330.7600  213.9820 C.3     6  LEU6        0.0001
     41  CD2       54.9440  333.1600  213.6760 C.3     6  LEU6        0.0001
     42  N         55.6510  317.9520  214.9360 N.3    16  THR16      -0.1203
     43  CA        54.2120  318.1180  214.7650 C.3    16  THR16       0.1994
     44  C         53.9240  319.1160  213.6270 C.2    16  THR16       0.2617
     45  O         52.9970  318.9210  212.8180 O.2    16  THR16      -0.2717
     46  CB        53.7280  318.6870  216.1460 C.3    16  THR16       0.1784
     47  OG1       53.7600  317.6130  217.0960 O.3    16  THR16      -0.2211
     48  CG2       52.2290  319.2290  215.9900 C.3    16  THR16       0.0376
     49  N         54.7020  320.2030  213.5490 N.am   17  LEU17      -0.1979
     50  CA        54.6260  321.1190  212.4150 C.3    17  LEU17       0.1596
     51  C         54.7660  320.3890  211.0530 C.2    17  LEU17       0.2287
     52  O         53.9630  320.6070  210.1330 O.2    17  LEU17      -0.2864
     53  CB        55.6700  322.2780  212.4910 C.3    17  LEU17       0.0297
     54  CG        55.3600  323.3000  213.6500 C.3    17  LEU17       0.0022
     55  CD1       56.5250  324.2490  213.7500 C.3    17  LEU17       0.0001
     56  CD2       53.9920  324.0940  213.3440 C.3    17  LEU17       0.0001
     57  N         54.2410  317.1840  210.4610 N.3    19  LEU19      -0.1231
     58  CA        53.0850  316.2890  210.1810 C.3    19  LEU19       0.1693
     59  C         51.8650  317.0990  209.7330 C.2    19  LEU19       0.2592
     60  O         51.1970  316.6920  208.7990 O.2    19  LEU19      -0.2718
     61  CB        52.7020  315.5080  211.4700 C.3    19  LEU19       0.0284
     62  CG        53.7820  314.5250  211.8910 C.3    19  LEU19       0.0019
     63  CD1       53.4150  313.9900  213.3060 C.3    19  LEU19       0.0001
     64  CD2       53.8690  313.3120  210.9140 C.3    19  LEU19       0.0001
     65  N         51.6460  318.2690  210.3140 N.am   20  LEU20      -0.1966
     66  CA        50.5310  319.0890  209.8380 C.3    20  LEU20       0.1728
     67  C         50.7420  319.5860  208.3790 C.2    20  LEU20       0.2616
     68  O         49.8500  319.5640  207.5630 O.2    20  LEU20      -0.2715
     69  CB        50.3700  320.3680  210.7270 C.3    20  LEU20       0.0311
     70  CG        49.8200  319.9880  212.1760 C.3    20  LEU20       0.0022
     71  CD1       50.0000  321.2250  213.0540 C.3    20  LEU20       0.0001
     72  CD2       48.3030  319.7750  211.9040 C.3    20  LEU20       0.0001
     73  N         51.9660  320.0510  208.0890 N.am   21  PHE21      -0.1974
     74  CA        52.3320  320.5030  206.7410 C.3    21  PHE21       0.1639
     75  C         52.1210  319.3690  205.7240 C.2    21  PHE21       0.2290
     76  O         51.5130  319.5400  204.6640 O.2    21  PHE21      -0.2864
     77  CB        53.8030  320.9400  206.7600 C.3    21  PHE21       0.0560
     78  CG        54.2690  321.3910  205.3720 C.ar   21  PHE21      -0.0200
     79  CD1       54.8410  320.5060  204.4710 C.ar   21  PHE21      -0.0042
     80  CD2       54.1290  322.7610  204.9630 C.ar   21  PHE21      -0.0042
     81  CE1       55.2510  320.9110  203.2000 C.ar   21  PHE21      -0.0003
     82  CE2       54.5710  323.1620  203.6850 C.ar   21  PHE21      -0.0003
     83  CZ        55.1590  322.2560  202.8000 C.ar   21  PHE21      -0.0000
     84  N         50.2870  316.6850  206.0070 N.3    23  ALA23      -0.1231
     85  CA        48.8880  316.3080  205.8360 C.3    23  ALA23       0.1694
     86  C         48.1970  317.2530  204.9250 C.2    23  ALA23       0.2592
     87  O         47.4240  316.8170  204.0370 O.2    23  ALA23      -0.2718
     88  CB        48.2260  316.2640  207.2210 C.3    23  ALA23       0.0304
     89  N         48.4760  318.5450  205.0880 N.am   24  TRP24      -0.1976
     90  CA        47.8560  319.5510  204.1660 C.3    24  TRP24       0.1640
     91  C         48.3180  319.3300  202.7260 C.2    24  TRP24       0.2290
     92  O         47.5310  319.2550  201.7440 O.2    24  TRP24      -0.2864
     93  CB        48.2300  320.9340  204.6400 C.3    24  TRP24       0.0576
     94  CG        47.3870  321.9940  204.0000 C.ar   24  TRP24       0.0006
     95  CD1       46.0790  322.3780  204.4110 C.ar   24  TRP24       0.0946
     96  CD2       47.7080  322.8060  202.8060 C.ar   24  TRP24       0.0152
     97  NE1       45.6410  323.4200  203.5730 N.ar   24  TRP24      -0.2442
     98  CE2       46.5880  323.6760  202.5750 C.ar   24  TRP24       0.0810
     99  CE3       48.8490  322.8910  201.9150 C.ar   24  TRP24       0.0012
    100  CZ2       46.5950  324.6320  201.5100 C.ar   24  TRP24       0.0191
    101  CZ3       48.8360  323.8700  200.8710 C.ar   24  TRP24       0.0001
    102  CH2       47.7170  324.6640  200.6540 C.ar   24  TRP24       0.0015
    103  N         60.0730  313.5900  215.6510 N.3    80  TRP80      -0.1241
    104  CA        59.4250  313.0480  216.8800 C.3    80  TRP80       0.1605
    105  C         60.1790  311.8750  217.4590 C.2    80  TRP80       0.2264
    106  O         60.4320  311.8600  218.6680 O.2    80  TRP80      -0.2867
    107  CB        57.9970  312.5940  216.5120 C.3    80  TRP80       0.0550
    108  CG        56.9550  313.6130  216.9500 C.ar   80  TRP80       0.0003
    109  CD1       56.1710  314.4880  216.1910 C.ar   80  TRP80       0.0946
    110  CD2       56.4990  313.7340  218.3270 C.ar   80  TRP80       0.0152
    111  NE1       55.2590  315.1040  217.0130 N.ar   80  TRP80      -0.2442
    112  CE2       55.4310  314.6960  218.3120 C.ar   80  TRP80       0.0810
    113  CE3       56.8500  313.0730  219.5240 C.ar   80  TRP80       0.0012
    114  CZ2       54.7150  315.0460  219.4950 C.ar   80  TRP80       0.0191
    115  CZ3       56.1710  313.4550  220.7250 C.ar   80  TRP80       0.0001
    116  CH2       55.1350  314.4320  220.6900 C.ar   80  TRP80       0.0015
    117  N         62.2040  323.3210  208.7310 N.3   101  PHE101     -0.1227
    118  CA        60.7330  323.3420  208.5930 C.3   101  PHE101      0.1736
    119  C         60.2230  324.5740  207.8290 C.2   101  PHE101      0.2595
    120  O         59.4530  324.4670  206.8610 O.2   101  PHE101     -0.2718
    121  CB        60.0320  323.2210  209.9790 C.3   101  PHE101      0.0547
    122  CG        58.5490  323.4010  209.7780 C.ar  101  PHE101     -0.0202
    123  CD1       57.8140  322.4150  209.1590 C.ar  101  PHE101     -0.0042
    124  CD2       57.9630  324.6540  209.9780 C.ar  101  PHE101     -0.0042
    125  CE1       56.4370  322.5300  208.8560 C.ar  101  PHE101     -0.0003
    126  CE2       56.5840  324.8040  209.6310 C.ar  101  PHE101     -0.0003
    127  CZ        55.8280  323.7770  209.0380 C.ar  101  PHE101     -0.0000
    128  N         60.6240  325.7370  208.3060 N.am  102  TRP102     -0.1976
    129  CA        60.0280  326.9200  207.7370 C.3   102  TRP102      0.1640
    130  C         60.4110  327.2130  206.2870 C.2   102  TRP102      0.2290
    131  O         59.8480  328.0870  205.6760 O.2   102  TRP102     -0.2864
    132  CB        60.3480  328.1450  208.6530 C.3   102  TRP102      0.0576
    133  CG        59.4430  328.1240  209.8420 C.ar  102  TRP102      0.0006
    134  CD1       59.7570  327.8840  211.1490 C.ar  102  TRP102      0.0946
    135  CD2       57.9790  328.3100  209.7780 C.ar  102  TRP102      0.0152
    136  NE1       58.6030  327.8600  211.9270 N.ar  102  TRP102     -0.2442
    137  CE2       57.4950  328.1150  211.1260 C.ar  102  TRP102      0.0810
    138  CE3       57.0460  328.5810  208.7350 C.ar  102  TRP102      0.0012
    139  CZ2       56.1440  328.2030  211.4540 C.ar  102  TRP102      0.0191
    140  CZ3       55.6570  328.6230  209.0670 C.ar  102  TRP102      0.0001
    141  CH2       55.2410  328.4550  210.4080 C.ar  102  TRP102      0.0015
    142  N         57.0360  325.9440  203.7640 N.3   105  PRO105     -0.2116
    143  CA        55.8850  326.7640  203.2240 C.3   105  PRO105      0.1372
    144  C         56.2910  327.7420  202.0810 C.2   105  PRO105      0.2244
    145  O         55.5670  327.7670  201.0700 O.2   105  PRO105     -0.2868
    146  CB        55.3320  327.5040  204.5200 C.3   105  PRO105      0.0268
    147  CG        55.6850  326.4370  205.6500 C.3   105  PRO105      0.0207
    148  CD        57.1520  326.0220  205.2310 C.3   105  PRO105      0.0892
    149  N         56.5490  325.6640  198.9620 N.3   108  PHE108     -0.1227
    150  CA        55.2720  325.2600  198.4040 C.3   108  PHE108      0.1736
    151  C         54.6190  326.4840  197.7520 C.2   108  PHE108      0.2595
    152  O         53.9540  326.3530  196.7130 O.2   108  PHE108     -0.2718
    153  CB        54.4310  324.6810  199.6080 C.3   108  PHE108      0.0547
    154  CG        53.3240  323.7100  199.2240 C.ar  108  PHE108     -0.0202
    155  CD1       52.7960  323.5830  197.9030 C.ar  108  PHE108     -0.0042
    156  CD2       52.8060  322.9210  200.2270 C.ar  108  PHE108     -0.0042
    157  CE1       51.7860  322.6360  197.5970 C.ar  108  PHE108     -0.0003
    158  CE2       51.8060  322.0050  199.9420 C.ar  108  PHE108     -0.0003
    159  CZ        51.3250  321.8230  198.6090 C.ar  108  PHE108     -0.0000
    160  N         54.7790  327.6210  198.4170 N.am  109  LEU109     -0.1980
    161  CA        54.2650  328.8550  197.7690 C.3   109  LEU109      0.1596
    162  C         54.8400  329.0600  196.3600 C.2   109  LEU109      0.2287
    163  O         54.1400  329.4350  195.4320 O.2   109  LEU109     -0.2864
    164  CB        54.5140  330.0100  198.6860 C.3   109  LEU109      0.0297
    165  CG        54.1370  331.4430  198.1470 C.3   109  LEU109      0.0022
    166  CD1       52.6170  331.4370  197.8280 C.3   109  LEU109      0.0001
    167  CD2       54.5230  332.5300  199.1850 C.3   109  LEU109      0.0001
    168  N         53.0430  326.6410  194.0520 N.3   112  LEU112     -0.1245
    169  CA        51.6770  327.1040  193.6880 C.3   112  LEU112      0.1561
    170  C         51.8060  328.4180  192.7660 C.2   112  LEU112      0.2260
    171  O         51.0440  328.5520  191.8120 O.2   112  LEU112     -0.2867
    172  CB        50.8160  327.2250  194.9990 C.3   112  LEU112      0.0270
    173  CG        50.5970  325.9310  195.8510 C.3   112  LEU112      0.0019
    174  CD1       50.0690  326.2590  197.2890 C.3   112  LEU112      0.0001
    175  CD2       49.6150  324.9250  195.2220 C.3   112  LEU112      0.0001
    176  N         51.4070  306.4340  211.3590 N.3   392  PHE392     -0.1241
    177  CA        50.5780  307.4710  211.9090 C.3   392  PHE392      0.1605
    178  C         49.5590  306.8150  212.8820 C.2   392  PHE392      0.2264
    179  O         49.3680  307.3090  214.0030 O.2   392  PHE392     -0.2867
    180  CB        49.8150  308.1750  210.7820 C.3   392  PHE392      0.0534
    181  CG        48.9100  309.3010  211.3560 C.ar  392  PHE392     -0.0203
    182  CD1       49.4660  310.5350  211.7350 C.ar  392  PHE392     -0.0042
    183  CD2       47.5250  309.0350  211.4660 C.ar  392  PHE392     -0.0042
    184  CE1       48.6340  311.5430  212.2450 C.ar  392  PHE392     -0.0003
    185  CE2       46.6840  310.0600  211.9560 C.ar  392  PHE392     -0.0003
    186  CZ        47.2270  311.2420  212.3310 C.ar  392  PHE392     -0.0000
    187  N         50.1180  307.7520  216.6860 N.3   396  PHE396     -0.1241
    188  CA        49.2280  308.8520  216.9970 C.3   396  PHE396      0.1605
    189  C         48.9740  308.9780  218.5500 C.2   396  PHE396      0.2264
    190  O         48.9330  310.1240  219.0770 O.2   396  PHE396     -0.2867
    191  CB        47.8450  308.6490  216.2910 C.3   396  PHE396      0.0534
    192  CG        46.8150  309.7750  216.6380 C.ar  396  PHE396     -0.0203
    193  CD1       46.8310  310.9730  215.9560 C.ar  396  PHE396     -0.0042
    194  CD2       45.8370  309.5340  217.6590 C.ar  396  PHE396     -0.0042
    195  CE1       45.8890  312.0530  216.2850 C.ar  396  PHE396     -0.0003
    196  CE2       44.8850  310.5510  217.9450 C.ar  396  PHE396     -0.0003
    197  CZ        44.9250  311.7720  217.2940 C.ar  396  PHE396     -0.0000
    198  N         51.9470  310.7850  220.1100 N.3   399  PHE399     -0.1227
    199  CA        52.0670  312.2190  219.8060 C.3   399  PHE399      0.1736
    200  C         50.9560  313.0010  220.4970 C.2   399  PHE399      0.2596
    201  O         51.2080  314.1560  220.8990 O.2   399  PHE399     -0.2718
    202  CB        51.9730  312.4510  218.3040 C.3   399  PHE399      0.0547
    203  CG        53.0880  311.7010  217.4990 C.ar  399  PHE399     -0.0202
    204  CD1       54.2490  311.2280  218.1380 C.ar  399  PHE399     -0.0042
    205  CD2       52.8380  311.4490  216.1210 C.ar  399  PHE399     -0.0042
    206  CE1       55.2610  310.4950  217.3900 C.ar  399  PHE399     -0.0003
    207  CE2       53.8570  310.7540  215.3480 C.ar  399  PHE399     -0.0003
    208  CZ        55.0640  310.3010  216.0240 C.ar  399  PHE399     -0.0000
    209  N         49.7610  312.4100  220.5090 N.am  400  SER400     -0.1952
    210  CA        48.6150  313.2130  220.9410 C.3   400  SER400      0.1924
    211  C         48.1610  312.9580  222.4150 C.2   400  SER400      0.2314
    212  O         47.5350  313.8800  222.9830 O.2   400  SER400     -0.2863
    213  CB        47.3700  312.9660  220.0540 C.3   400  SER400      0.2116
    214  OG        46.8960  311.6210  220.2790 O.3   400  SER400     -0.2180
    215  N         40.5190  311.3270  212.3940 N.3   471  ILE471     -0.1245
    216  CA        41.3660  312.1470  213.2480 C.3   471  ILE471      0.1561
    217  C         40.4860  313.1290  214.0830 C.2   471  ILE471      0.2260
    218  O         40.7710  313.3080  215.2620 O.2   471  ILE471     -0.2867
    219  CB        42.3610  312.9520  212.3710 C.3   471  ILE471      0.0252
    220  CG1       43.2830  311.8960  211.6860 C.3   471  ILE471      0.0019
    221  CG2       43.2120  313.9300  213.2750 C.3   471  ILE471      0.0019
    222  CD1       44.1810  312.5470  210.5920 C.3   471  ILE471      0.0001
    223  N         40.1690  313.4690  218.3600 N.3   475  PHE475     -0.1241
    224  CA        40.3700  314.6820  219.1300 C.3   475  PHE475      0.1605
    225  C         39.0220  315.1620  219.7640 C.2   475  PHE475      0.2264
    226  O         39.0660  315.8840  220.7930 O.2   475  PHE475     -0.2867
    227  CB        40.9500  315.8480  218.2890 C.3   475  PHE475      0.0534
    228  CG        42.4940  315.7370  218.1010 C.ar  475  PHE475     -0.0203
    229  CD1       43.3310  315.8700  219.1690 C.ar  475  PHE475     -0.0042
    230  CD2       42.9880  315.5530  216.7900 C.ar  475  PHE475     -0.0042
    231  CE1       44.7400  315.8270  218.9740 C.ar  475  PHE475     -0.0003
    232  CE2       44.3850  315.4720  216.5820 C.ar  475  PHE475     -0.0003
    233  CZ        45.2320  315.6750  217.6260 C.ar  475  PHE475     -0.0000
@<TRIPOS>BOND
     1   171   170    2
     2   170   169    1
     3   169   168    1
     4   169   172    1
     5   172   173    1
     6   175   173    1
     7   163   162    2
     8   173   174    1
     9   162   161    1
    10   152   151    2
    11   157   155   ar
    12   157   159   ar
    13   151   150    1
    14   151   160   am
    15   161   160    1
    16   161   164    1
    17   166   165    1
    18   155   154   ar
    19   165   164    1
    20   165   167    1
    21   150   149    1
    22   150   153    1
    23   159   158   ar
    24   154   153    1
    25   154   156   ar
    26   158   156   ar
    27   102   101   ar
    28   102   100   ar
    29   101    99   ar
    30   145   144    2
    31   100    98   ar
    32    92    91    2
    33    99    96   ar
    34   144   143    1
    35    98    96   ar
    36    98    97   ar
    37    91    90    1
    38    83    81   ar
    39    83    82   ar
    40    96    94   ar
    41    81    79   ar
    42   143   142    1
    43   143   146    1
    44    97    95   ar
    45    82    80   ar
    46   142   148    1
    47    94    95   ar
    48    94    93    1
    49    87    86    2
    50    90    93    1
    51    90    89    1
    52    79    78   ar
    53   146   147    1
    54    76    75    2
    55    86    89   am
    56    86    85    1
    57    80    78   ar
    58   148   147    1
    59    78    77    1
    60   131   130    2
    61    75    74    1
    62    85    84    1
    63    85    88    1
    64   130   129    1
    65    74    77    1
    66    74    73    1
    67   120   119    2
    68    68    67    2
    69   129   128    1
    70   129   132    1
    71   119   128   am
    72   119   118    1
    73    73    67   am
    74    67    66    1
    75   118   117    1
    76   118   121    1
    77   132   133    1
    78   138   140   ar
    79   138   135   ar
    80    60    59    2
    81   125   127   ar
    82   125   123   ar
    83   127   126   ar
    84   140   141   ar
    85   123   122   ar
    86   126   124   ar
    87    59    58    1
    88    59    65   am
    89   122   124   ar
    90   122   121    1
    91   135   133   ar
    92   135   137   ar
    93    66    65    1
    94    66    69    1
    95   133   134   ar
    96    52    51    2
    97    58    57    1
    98    58    61    1
    99   141   139   ar
   100   222   220    1
   101    69    70    1
   102   180   181    1
   103   180   177    1
   104    64    62    1
   105    51    50    1
   106   137   139   ar
   107   137   136   ar
   108   134   136   ar
   109   181   183   ar
   110   181   182   ar
   111   176   177    1
   112   183   185   ar
   113    61    62    1
   114   220   219    1
   115   182   184   ar
   116    62    63    1
   117    72    70    1
   118   177   178    1
   119   185   186   ar
   120    70    71    1
   121   184   186   ar
   122   219   216    1
   123   219   221    1
   124   215   216    1
   125    50    53    1
   126    50    49    1
   127    53    54    1
   128    45    44    2
   129   178   179    2
   130   216   217    1
   131    56    54    1
   132    49    44   am
   133    44    43    1
   134    54    55    1
   135    41    39    1
   136    39    40    1
   137    39    38    1
   138   217   218    2
   139    37    36    2
   140    38    35    1
   141    43    42    1
   142    43    46    1
   143    23    22    2
   144    35    36    1
   145    35    34    1
   146   207   208   ar
   147   207   205   ar
   148   103   104    1
   149    22    34   am
   150    22    21    1
   151   193   195   ar
   152   193   192   ar
   153    48    46    1
   154   208   206   ar
   155   205   203   ar
   156    46    47    1
   157   109   108   ar
   158   109   111   ar
   159   195   197   ar
   160   191   192    1
   161   191   188    1
   162    10    11   ar
   163    10     8   ar
   164   107   104    1
   165   107   108    1
   166   232   230   ar
   167   232   233   ar
   168   192   194   ar
   169   187   188    1
   170    11     9   ar
   171   230   228   ar
   172   104   105    1
   173    24    21    1
   174    24    25    1
   175   108   110   ar
   176   188   189    1
   177   111   112   ar
   178    19    17    1
   179    21    20    1
   180    30    32   ar
   181    30    27   ar
   182    17    16    1
   183   197   196   ar
   184   206   204   ar
   185    18    16    1
   186   105   106    2
   187   203   204   ar
   188   203   202    1
   189     8     6   ar
   190   233   231   ar
   191    32    33   ar
   192   194   196   ar
   193    25    27   ar
   194    25    26   ar
   195     9     7   ar
   196    27    29   ar
   197    15    14    1
   198   228   227    1
   199   228   229   ar
   200    16    13    1
   201   227   224    1
   202   202   199    1
   203   112   110   ar
   204   112   114   ar
   205   110   113   ar
   206   223   224    1
   207    13    14    1
   208    13    12    1
   209   189   190    2
   210    33    31   ar
   211     6     7   ar
   212     6     5    1
   213   231   229   ar
   214     4     3    2
   215    26    28   ar
   216   224   225    1
   217    29    31   ar
   218    29    28   ar
   219    12     3   am
   220   114   116   ar
   221   113   115   ar
   222     3     2    1
   223   225   226    2
   224   199   198    1
   225   199   200    1
   226   213   214    1
   227   213   210    1
   228     5     2    1
   229   200   209   am
   230   200   201    2
   231   209   210    1
   232   116   115   ar
   233     2     1    1
   234   210   211    1
   235   211   212    2
