@<TRIPOS>MOLECULE
tmp/5zctH00.pdb
 204 190 0 0 0
SMALL
GASTEIGER

@<TRIPOS>ATOM
      1  N        170.8650   66.5980   19.8710 N.3   100  LYS100     -0.1245
      2  CA       170.2610   67.2340   21.0400 C.3   100  LYS100      0.1561
      3  C        170.8860   68.5970   21.3350 C.2   100  LYS100      0.2260
      4  O        170.1820   69.5310   21.7340 O.2   100  LYS100     -0.2867
      5  CB       170.3770   66.3080   22.2540 C.3   100  LYS100      0.0271
      6  CG       169.7290   64.9390   22.0640 C.3   100  LYS100      0.0035
      7  CD       168.3840   64.8340   22.7820 C.3   100  LYS100      0.0206
      8  CE       167.8800   63.3810   22.8300 C.3   100  LYS100      0.1093
      9  NZ       167.9770   62.7350   24.1780 N.3   100  LYS100     -0.1314
     10  N        165.5300   74.3330   30.9220 N.3   115  PRO115     -0.2116
     11  CA       166.4160   74.4240   32.0800 C.3   115  PRO115      0.1372
     12  C        167.7120   75.0850   31.6580 C.2   115  PRO115      0.2244
     13  O        168.0760   75.0970   30.4790 O.2   115  PRO115     -0.2868
     14  CB       166.6260   72.9690   32.5160 C.3   115  PRO115      0.0268
     15  CG       165.9230   72.1140   31.5020 C.3   115  PRO115      0.0207
     16  CD       165.0080   72.9760   30.7010 C.3   115  PRO115      0.0892
     17  N        172.1900   67.6490   36.8570 N.3   139  VAL139     -0.1245
     18  CA       172.0590   66.4850   35.9970 C.3   139  VAL139      0.1561
     19  C        173.1790   66.5240   34.9620 C.2   139  VAL139      0.2260
     20  O        173.3360   67.5200   34.2490 O.2   139  VAL139     -0.2867
     21  CB       170.6830   66.4620   35.3230 C.3   139  VAL139      0.0252
     22  CG1      170.5210   65.1910   34.5060 C.3   139  VAL139      0.0019
     23  CG2      169.5850   66.5930   36.3820 C.3   139  VAL139      0.0019
     24  N        174.5640   64.5780   31.5810 N.3   141  LYS141     -0.1245
     25  CA       174.1250   63.6830   30.5160 C.3   141  LYS141      0.1561
     26  C        175.2820   63.4730   29.5510 C.2   141  LYS141      0.2260
     27  O        175.8010   64.4430   28.9900 O.2   141  LYS141     -0.2867
     28  CB       172.9020   64.2600   29.7960 C.3   141  LYS141      0.0271
     29  CG       171.8690   64.8950   30.7350 C.3   141  LYS141      0.0035
     30  CD       170.6300   65.4030   29.9830 C.3   141  LYS141      0.0206
     31  CE       169.4950   65.7210   30.9440 C.3   141  LYS141      0.1093
     32  NZ       168.1990   66.1580   30.3320 N.3   141  LYS141     -0.1314
     33  N        173.0390   59.0340   23.3250 N.3   148  GLY148     -0.1225
     34  CA       173.2110   59.1390   24.7640 C.3   148  GLY148      0.1811
     35  C        173.8990   57.9410   25.4000 C.2   148  GLY148      0.2280
     36  O        173.5360   56.7910   25.1380 O.2   148  GLY148     -0.2866
     37  N        174.4280   57.9630   29.0000 N.3   150  GLY150     -0.1210
     38  CA       173.6450   57.8390   30.2160 C.3   150  GLY150      0.1956
     39  C        173.3190   59.1990   30.7980 C.2   150  GLY150      0.2611
     40  O        173.7530   60.2430   30.3000 O.2   150  GLY150     -0.2717
     41  N        172.5270   59.1700   31.8670 N.am  151  VAL151     -0.1979
     42  CA       172.0960   60.3670   32.5780 C.3   151  VAL151      0.1595
     43  C        172.2540   60.0860   34.0620 C.2   151  VAL151      0.2287
     44  O        171.6680   59.1260   34.5720 O.2   151  VAL151     -0.2864
     45  CB       170.6360   60.7390   32.2570 C.3   151  VAL151      0.0276
     46  CG1      170.1400   61.8170   33.1930 C.3   151  VAL151      0.0022
     47  CG2      170.4960   61.1780   30.8030 C.3   151  VAL151      0.0022
     48  N        173.1750   70.3010   33.5280 N.3   177  GLN177     -0.1231
     49  CA       171.8590   70.9110   33.4960 C.3   177  GLN177      0.1698
     50  C        171.3310   71.1460   34.9050 C.2   177  GLN177      0.2592
     51  O        171.4920   70.2950   35.7890 O.2   177  GLN177     -0.2718
     52  CB       170.8920   70.0260   32.7140 C.3   177  GLN177      0.0381
     53  CG       169.5670   70.6740   32.4110 C.3   177  GLN177      0.0905
     54  CD       168.7820   69.8440   31.4410 C.2   177  GLN177      0.2608
     55  OE1      168.2980   68.7710   31.7880 O.2   177  GLN177     -0.2717
     56  NE2      168.6820   70.3080   30.2000 N.am  177  GLN177     -0.0878
     57  N        170.7050   72.3040   35.1030 N.am  178  GLU178     -0.1966
     58  CA       170.0970   72.6010   36.3890 C.3   178  GLU178      0.1733
     59  C        169.0640   71.5270   36.7120 C.2   178  GLU178      0.2616
     60  O        168.1530   71.2540   35.9190 O.2   178  GLU178     -0.2715
     61  CB       169.4670   73.9940   36.3890 C.3   178  GLU178      0.0429
     62  CG       168.2420   74.1510   35.5060 C.3   178  GLU178      0.1163
     63  CD       167.3610   75.3480   35.8610 C.2   178  GLU178      0.3649
     64  OE1      167.1750   75.6500   37.0720 O.co2 178  GLU178     -0.2457
     65  OE2      166.8180   75.9710   34.9150 O.co2 178  GLU178     -0.2457
     66  N        169.2620   70.8630   37.8420 N.am  179  TYR179     -0.1960
     67  CA       168.3660   69.8000   38.2670 C.3   179  TYR179      0.1771
     68  C        167.0750   70.4300   38.7720 C.2   179  TYR179      0.2619
     69  O        167.1010   71.2540   39.6920 O.2   179  TYR179     -0.2715
     70  CB       169.0520   68.9660   39.3460 C.3   179  TYR179      0.0574
     71  CG       168.1950   67.9290   40.0180 C.ar  179  TYR179     -0.0198
     72  CD1      167.3440   67.1190   39.2890 C.ar  179  TYR179     -0.0009
     73  CD2      168.2690   67.7350   41.3880 C.ar  179  TYR179     -0.0009
     74  CE1      166.5720   66.1560   39.9050 C.ar  179  TYR179      0.0417
     75  CE2      167.5020   66.7780   42.0150 C.ar  179  TYR179      0.0417
     76  CZ       166.6540   65.9900   41.2710 C.ar  179  TYR179      0.1957
     77  OH       165.8870   65.0340   41.8940 O.3   179  TYR179     -0.2866
     78  N        165.9570   70.0770   38.1470 N.am  180  ILE180     -0.1977
     79  CA       164.6520   70.6380   38.5270 C.3   180  ILE180      0.1596
     80  C        164.1070   69.7250   39.6190 C.2   180  ILE180      0.2287
     81  O        163.3030   68.8170   39.3870 O.2   180  ILE180     -0.2864
     82  CB       163.7110   70.7590   37.3300 C.3   180  ILE180      0.0276
     83  CG1      164.3820   71.5620   36.2070 C.3   180  ILE180      0.0022
     84  CG2      162.3620   71.3740   37.7440 C.3   180  ILE180      0.0022
     85  CD1      164.4030   73.0580   36.4490 C.3   180  ILE180      0.0001
     86  N        160.2410   69.0150   40.5410 N.3   183  ALA183     -0.1245
     87  CA       159.3720   68.1950   39.7070 C.3   183  ALA183      0.1562
     88  C        159.0540   66.8530   40.3540 C.2   183  ALA183      0.2260
     89  O        158.0090   66.2640   40.0520 O.2   183  ALA183     -0.2867
     90  CB       160.0110   67.9740   38.3290 C.3   183  ALA183      0.0290
     91  N        160.7030   63.7560   40.3150 N.3   185  GLY185     -0.1225
     92  CA       160.8100   62.5820   39.4760 C.3   185  GLY185      0.1811
     93  C        159.6990   62.4950   38.4560 C.2   185  GLY185      0.2280
     94  O        159.5120   61.4490   37.8350 O.2   185  GLY185     -0.2866
     95  N        157.7630   64.0140   34.9680 N.3   187  ASP187     -0.1239
     96  CA       157.7220   64.8730   33.8010 C.3   187  ASP187      0.1674
     97  C        156.4050   64.6540   33.0800 C.2   187  ASP187      0.2266
     98  O        155.6320   63.7470   33.4000 O.2   187  ASP187     -0.2867
     99  CB       158.9180   64.6520   32.8680 C.3   187  ASP187      0.1410
    100  CG       159.2040   63.2020   32.6240 C.2   187  ASP187      0.3668
    101  OD1      158.3870   62.5550   31.9380 O.co2 187  ASP187     -0.2456
    102  OD2      160.2450   62.7140   33.1160 O.co2 187  ASP187     -0.2456
    103  N        154.8290   64.1900   29.3780 N.3   189  ARG189     -0.1245
    104  CA       155.0580   63.8120   27.9920 C.3   189  ARG189      0.1563
    105  C        153.8190   64.1360   27.1680 C.2   189  ARG189      0.2260
    106  O        152.7730   63.4930   27.3200 O.2   189  ARG189     -0.2867
    107  CB       155.3930   62.3310   27.8960 C.3   189  ARG189      0.0307
    108  CG       155.7060   61.9160   26.4980 C.3   189  ARG189      0.0489
    109  CD       156.6480   60.7540   26.5020 C.3   189  ARG189      0.2205
    110  NE       157.1910   60.5880   25.1650 N.pl3 189  ARG189     -0.0865
    111  CZ       158.4740   60.4030   24.9030 C.cat 189  ARG189      0.5346
    112  NH1      158.8670   60.2640   23.6420 N.pl3 189  ARG189      0.1354
    113  NH2      159.3470   60.3300   25.9060 N.pl3 189  ARG189      0.1354
    114  N        154.7040   61.0110   33.7880 N.3   203  ARG203     -0.1245
    115  CA       155.6050   59.9260   34.1330 C.3   203  ARG203      0.1563
    116  C        156.2260   60.2320   35.4840 C.2   203  ARG203      0.2260
    117  O        156.5030   61.3910   35.7940 O.2   203  ARG203     -0.2867
    118  CB       156.6770   59.7440   33.0580 C.3   203  ARG203      0.0307
    119  CG       156.1090   59.3480   31.6900 C.3   203  ARG203      0.0489
    120  CD       156.8410   60.0320   30.5360 C.3   203  ARG203      0.2205
    121  NE       158.2770   60.1460   30.7850 N.pl3 203  ARG203     -0.0865
    122  CZ       159.2120   60.1690   29.8350 C.cat 203  ARG203      0.5346
    123  NH1      158.8750   60.0890   28.5490 N.pl3 203  ARG203      0.1354
    124  NH2      160.4920   60.2750   30.1750 N.pl3 203  ARG203      0.1354
    125  N        165.4020   59.6050   39.8440 N.3   210  PHE210     -0.1227
    126  CA       164.8140   60.7520   39.1620 C.3   210  PHE210      0.1736
    127  C        164.5100   60.4640   37.6950 C.2   210  PHE210      0.2595
    128  O        163.6100   61.0900   37.1240 O.2   210  PHE210     -0.2718
    129  CB       165.7660   61.9530   39.2520 C.3   210  PHE210      0.0547
    130  CG       166.9970   61.7960   38.4030 C.ar  210  PHE210     -0.0202
    131  CD1      167.9640   60.8560   38.7300 C.ar  210  PHE210     -0.0042
    132  CD2      167.1690   62.5540   37.2580 C.ar  210  PHE210     -0.0042
    133  CE1      169.0840   60.6850   37.9430 C.ar  210  PHE210     -0.0003
    134  CE2      168.2880   62.3890   36.4650 C.ar  210  PHE210     -0.0003
    135  CZ       169.2480   61.4520   36.8110 C.ar  210  PHE210     -0.0000
    136  N        165.2580   59.5480   37.0700 N.am  211  ARG211     -0.1966
    137  CA       164.9180   59.0650   35.7360 C.3   211  ARG211      0.1729
    138  C        163.4960   58.5150   35.7390 C.2   211  ARG211      0.2617
    139  O        163.0700   57.8540   36.6890 O.2   211  ARG211     -0.2715
    140  CB       165.9060   57.9800   35.2850 C.3   211  ARG211      0.0348
    141  CG       167.3660   58.4270   35.1280 C.3   211  ARG211      0.0492
    142  CD       168.2290   57.3300   34.4820 C.3   211  ARG211      0.2205
    143  NE       168.2300   57.4120   33.0180 N.pl3 211  ARG211     -0.0865
    144  CZ       167.6540   56.5240   32.2080 C.cat 211  ARG211      0.5346
    145  NH1      167.0260   55.4660   32.7090 N.pl3 211  ARG211      0.1354
    146  NH2      167.7060   56.6930   30.8920 N.pl3 211  ARG211      0.1354
    147  N        162.7500   58.7980   34.6720 N.am  212  SER212     -0.1936
    148  CA       161.3180   58.5180   34.6950 C.3   212  SER212      0.2055
    149  C        160.7370   58.2630   33.3090 C.2   212  SER212      0.2643
    150  O        159.6580   58.7680   32.9850 O.2   212  SER212     -0.2714
    151  CB       160.5680   59.6740   35.3700 C.3   212  SER212      0.2130
    152  OG       160.2690   60.7170   34.4550 O.3   212  SER212     -0.2179
    153  N        161.4330   57.4920   32.4810 N.am  213  ASN213     -0.1971
    154  CA       160.8340   56.9960   31.2510 C.3   213  ASN213      0.1688
    155  C        159.9860   55.7810   31.5710 C.2   213  ASN213      0.2292
    156  O        160.3710   54.9500   32.3940 O.2   213  ASN213     -0.2864
    157  CB       161.9170   56.6640   30.2380 C.3   213  ASN213      0.1181
    158  CG       162.9020   57.7970   30.0740 C.2   213  ASN213      0.2629
    159  OD1      163.3680   58.3690   31.0680 O.2   213  ASN213     -0.2716
    160  ND2      163.2350   58.1260   28.8270 N.am  213  ASN213     -0.0877
    161  N        160.9750   52.0500   30.8490 N.3   216  ARG216     -0.1245
    162  CA       162.1780   51.7080   31.6170 C.3   216  ARG216      0.1563
    163  C        162.1940   52.5110   32.9260 C.2   216  ARG216      0.2260
    164  O        162.7980   53.5850   33.0140 O.2   216  ARG216     -0.2867
    165  CB       163.4690   51.9160   30.7710 C.3   216  ARG216      0.0307
    166  CG       163.5840   53.3210   30.1380 C.3   216  ARG216      0.0489
    167  CD       162.7160   53.5320   28.8780 C.3   216  ARG216      0.2205
    168  NE       163.2080   54.5910   27.9870 N.pl3 216  ARG216     -0.0865
    169  CZ       162.4220   55.4090   27.2810 C.cat 216  ARG216      0.5346
    170  NH1      162.9470   56.3580   26.5050 N.pl3 216  ARG216      0.1354
    171  NH2      161.1030   55.3560   27.4380 N.pl3 216  ARG216      0.1354
    172  N        158.7810   66.3520   26.1190 N.3   248  ASP248     -0.1239
    173  CA       158.8580   66.1670   27.5610 C.3   248  ASP248      0.1674
    174  C        159.0870   67.5110   28.2320 C.2   248  ASP248      0.2266
    175  O        160.0500   68.2200   27.8970 O.2   248  ASP248     -0.2867
    176  CB       159.9820   65.2010   27.9190 C.3   248  ASP248      0.1410
    177  CG       159.6990   63.7890   27.4660 C.2   248  ASP248      0.3668
    178  OD1      158.5690   63.5270   27.0000 O.co2 248  ASP248     -0.2456
    179  OD2      160.6130   62.9460   27.5800 O.co2 248  ASP248     -0.2456
    180  N        159.2090   69.5930   32.0570 N.3   250  LEU250     -0.1245
    181  CA       159.3810   69.5290   33.4980 C.3   250  LEU250      0.1561
    182  C        158.6580   70.7160   34.1100 C.2   250  LEU250      0.2260
    183  O        158.7450   71.8350   33.5920 O.2   250  LEU250     -0.2867
    184  CB       160.8560   69.5400   33.8890 C.3   250  LEU250      0.0270
    185  CG       161.6160   68.2470   33.6200 C.3   250  LEU250      0.0019
    186  CD1      163.1170   68.4580   33.7930 C.3   250  LEU250      0.0001
    187  CD2      161.1250   67.1570   34.5280 C.3   250  LEU250      0.0001
    188  N        162.1600   69.7450   28.1440 N.3   259  MET259     -0.1230
    189  CA       163.3000   68.9020   28.4390 C.3   259  MET259      0.1702
    190  C        163.7230   68.0690   27.2450 C.2   259  MET259      0.2592
    191  O        164.9250   67.8430   27.0510 O.2   259  MET259     -0.2718
    192  CB       162.9770   67.9880   29.6140 C.3   259  MET259      0.0401
    193  CG       164.1720   67.1990   30.1080 C.3   259  MET259      0.0596
    194  SD       163.6880   65.9560   31.3250 S.3   259  MET259     -0.1393
    195  CE       162.5490   64.9500   30.3680 C.3   259  MET259      0.0692
    196  N        162.7610   67.6200   26.4300 N.am  260  GLU260     -0.1979
    197  CA       163.1270   66.7690   25.2960 C.3   260  GLU260      0.1602
    198  C        162.1100   66.9110   24.1750 C.2   260  GLU260      0.2287
    199  O        160.9280   67.1510   24.4230 O.2   260  GLU260     -0.2864
    200  CB       163.2290   65.2960   25.7200 C.3   260  GLU260      0.0415
    201  CG       163.8880   64.3720   24.7030 C.3   260  GLU260      0.1163
    202  CD       163.7340   62.8910   25.0580 C.2   260  GLU260      0.3649
    203  OE1      162.9760   62.1830   24.3580 O.co2 260  GLU260     -0.2457
    204  OE2      164.3680   62.4350   26.0380 O.co2 260  GLU260     -0.2457
@<TRIPOS>BOND
     1     1     2    1
     2     2     3    1
     3     2     5    1
     4     3     4    2
     5     6     5    1
     6     6     7    1
     7     7     8    1
     8     8     9    1
     9    33    34    1
    10   112   111    1
    11   198   199    2
    12   198   197    1
    13   203   202   ar
    14   201   202    1
    15   201   200    1
    16    34    35    1
    17   111   110    2
    18   111   113    1
    19   202   204   ar
    20    36    35    2
    21   110   109    1
    22   197   200    1
    23   197   196    1
    24   172   173    1
    25   196   190   am
    26   108   109    1
    27   108   107    1
    28   170   169    1
    29   178   177   ar
    30   191   190    2
    31   105   106    2
    32   105   104    1
    33   190   189    1
    34   169   171    1
    35   169   168    2
    36   177   179   ar
    37   177   176    1
    38   173   176    1
    39   173   174    1
    40   107   104    1
    41   175   174    2
    42   168   167    1
    43   104   103    1
    44   188   189    1
    45   189   192    1
    46   123   122    1
    47   160   158   am
    48   167   166    1
    49    27    26    2
    50    37    38    1
    51    26    25    1
    52   192   193    1
    53    28    25    1
    54    28    29    1
    55   122   124    1
    56   122   121    2
    57    30    29    1
    58    30    31    1
    59   158   157    1
    60   158   159    2
    61   193   194    1
    62   166   165    1
    63    56    54   am
    64    38    39    1
    65   157   154    1
    66    40    39    2
    67    32    31    1
    68   195   194    1
    69    13    12    2
    70    25    24    1
    71   120   121    1
    72   120   119    1
    73    16    10    1
    74    16    15    1
    75   165   162    1
    76    39    41   am
    77    47    45    1
    78   161   162    1
    79   146   144    1
    80    10    11    1
    81   154   155    1
    82   154   153    1
    83    54    55    2
    84    54    53    1
    85    15    14    1
    86   155   156    2
    87   162   163    1
    88    12    11    1
    89   119   118    1
    90    41    42    1
    91   101   100   ar
    92   180   181    1
    93    11    14    1
    94   144   145    1
    95   144   143    2
    96    45    42    1
    97    45    46    1
    98    53    52    1
    99   153   149   am
   100    42    43    1
   101   100    99    1
   102   100   102   ar
   103    52    49    1
   104    99    96    1
   105   163   164    2
   106   150   149    2
   107   143   142    1
   108   118   115    1
   109    97    98    2
   110    97    96    1
   111   149   148    1
   112    49    48    1
   113    49    50    1
   114   181   184    1
   115   181   182    1
   116   183   182    2
   117   185   186    1
   118   185   184    1
   119   185   187    1
   120   114   115    1
   121    96    95    1
   122    43    44    2
   123   115   116    1
   124    20    19    2
   125   152   151    1
   126   142   141    1
   127    22    21    1
   128   147   148    1
   129   147   138   am
   130   148   151    1
   131    50    57   am
   132    50    51    2
   133    65    63   ar
   134    19    18    1
   135    57    58    1
   136   141   140    1
   137   140   137    1
   138    21    18    1
   139    21    23    1
   140   116   117    2
   141    62    63    1
   142    62    61    1
   143   137   138    1
   144   137   136    1
   145   138   139    2
   146    63    64   ar
   147    60    59    2
   148    18    17    1
   149    83    85    1
   150    83    82    1
   151    61    58    1
   152    58    59    1
   153   134   135   ar
   154   134   132   ar
   155    59    66   am
   156   135   133   ar
   157   136   127   am
   158   128   127    2
   159   132   130   ar
   160    82    84    1
   161    82    79    1
   162   127   126    1
   163    94    93    2
   164    66    67    1
   165   133   131   ar
   166    78    79    1
   167    78    68   am
   168    67    68    1
   169    67    70    1
   170    90    87    1
   171   130   131   ar
   172   130   129    1
   173    93    92    1
   174    79    80    1
   175    68    69    2
   176   126   129    1
   177   126   125    1
   178    72    74   ar
   179    72    71   ar
   180    70    71    1
   181    81    80    2
   182    92    91    1
   183    87    88    1
   184    87    86    1
   185    74    76   ar
   186    71    73   ar
   187    89    88    2
   188    76    77    1
   189    76    75   ar
   190    73    75   ar
