@<TRIPOS>MOLECULE
tmp/5zcuD00.pdb
 170 162 0 0 0
SMALL
GASTEIGER

@<TRIPOS>ATOM
      1  N        -33.2380   19.4690   96.0360 N.3    43  LYS43      -0.1245
      2  CA       -32.2000   20.0080   95.1710 C.3    43  LYS43       0.1561
      3  C        -31.1220   18.9550   94.9610 C.2    43  LYS43       0.2260
      4  O        -30.3530   18.6780   95.8950 O.2    43  LYS43      -0.2867
      5  CB       -31.5970   21.2760   95.7700 C.3    43  LYS43       0.0271
      6  CG       -32.6090   22.3680   96.0720 C.3    43  LYS43       0.0035
      7  CD       -31.9300   23.5880   96.6740 C.3    43  LYS43       0.0206
      8  CE       -32.9370   24.6670   97.0380 C.3    43  LYS43       0.1093
      9  NZ       -32.3150   26.0200   97.0440 N.3    43  LYS43      -0.1314
     10  N        -28.3290   19.0490   93.4520 N.3    45  PHE45      -0.1227
     11  CA       -26.9610   19.5570   93.4160 C.3    45  PHE45       0.1736
     12  C        -26.3050   19.6440   94.7870 C.2    45  PHE45       0.2595
     13  O        -25.0820   19.8000   94.8550 O.2    45  PHE45      -0.2718
     14  CB       -26.9240   20.9450   92.7720 C.3    45  PHE45       0.0547
     15  CG       -27.6450   21.0250   91.4650 C.ar   45  PHE45      -0.0202
     16  CD1      -27.0950   20.4730   90.3210 C.ar   45  PHE45      -0.0042
     17  CD2      -28.8750   21.6530   91.3770 C.ar   45  PHE45      -0.0042
     18  CE1      -27.7590   20.5440   89.1150 C.ar   45  PHE45      -0.0003
     19  CE2      -29.5440   21.7280   90.1730 C.ar   45  PHE45      -0.0003
     20  CZ       -28.9860   21.1730   89.0410 C.ar   45  PHE45      -0.0000
     21  N        -27.0660   19.5400   95.8680 N.am   46  VAL46      -0.1980
     22  CA       -26.5500   19.7790   97.2080 C.3    46  VAL46       0.1595
     23  C        -26.0040   18.4780   97.7700 C.2    46  VAL46       0.2287
     24  O        -26.7010   17.4590   97.8010 O.2    46  VAL46      -0.2864
     25  CB       -27.6420   20.3610   98.1210 C.3    46  VAL46       0.0276
     26  CG1      -27.1540   20.4300   99.5510 C.3    46  VAL46       0.0022
     27  CG2      -28.0880   21.7330   97.6280 C.3    46  VAL46       0.0022
     28  N        -23.9590   25.4850  102.4050 N.3    63  VAL63      -0.1245
     29  CA       -24.2880   24.4810  101.3990 C.3    63  VAL63       0.1561
     30  C        -23.0300   24.0910  100.6370 C.2    63  VAL63       0.2260
     31  O        -22.2720   24.9570  100.1830 O.2    63  VAL63      -0.2867
     32  CB       -25.3850   24.9850  100.4470 C.3    63  VAL63       0.0252
     33  CG1      -25.6000   23.9960   99.3060 C.3    63  VAL63       0.0019
     34  CG2      -26.6760   25.1840  101.2180 C.3    63  VAL63       0.0019
     35  N        -21.9950   21.8500   97.2780 N.3    65  VAL65      -0.1245
     36  CA       -22.5690   21.2630   96.0780 C.3    65  VAL65       0.1561
     37  C        -21.5870   20.2590   95.4870 C.2    65  VAL65       0.2260
     38  O        -20.3820   20.2840   95.7580 O.2    65  VAL65      -0.2867
     39  CB       -22.9730   22.3340   95.0390 C.3    65  VAL65       0.0252
     40  CG1      -24.1220   23.1770   95.5700 C.3    65  VAL65       0.0019
     41  CG2      -21.7940   23.2030   94.6800 C.3    65  VAL65       0.0019
     42  N        -20.0090   21.3890   88.5670 N.3    69  LEU69      -0.1231
     43  CA       -20.6250   22.6960   88.7210 C.3    69  LEU69       0.1678
     44  C        -19.5410   23.7580   88.7640 C.2    69  LEU69       0.2434
     45  O        -18.3710   23.4500   89.0150 O.2    69  LEU69      -0.2733
     46  CB       -21.4690   22.7540   90.0020 C.3    69  LEU69       0.0284
     47  CG       -22.6340   21.7680   90.0780 C.3    69  LEU69       0.0019
     48  CD1      -23.1910   21.7200   91.4880 C.3    69  LEU69       0.0001
     49  CD2      -23.7220   22.1370   89.0840 C.3    69  LEU69       0.0001
     50  N        -19.8940   25.0240   88.5210 N.am   70  PRO70      -0.2718
     51  CA       -18.8840   26.0890   88.6280 C.3    70  PRO70       0.1535
     52  C        -18.4960   26.4200   90.0610 C.2    70  PRO70       0.2598
     53  O        -17.4070   26.9680   90.2710 O.2    70  PRO70      -0.2715
     54  CB       -19.5510   27.2920   87.9410 C.3    70  PRO70       0.0310
     55  CG       -20.7640   26.7590   87.2520 C.3    70  PRO70       0.0237
     56  CD       -21.1630   25.5090   87.9540 C.3    70  PRO70       0.0939
     57  N        -19.3360   26.1100   91.0440 N.am   71  ALA71      -0.1978
     58  CA       -19.0740   26.4330   92.4400 C.3    71  ALA71       0.1597
     59  C        -19.0100   25.1600   93.2750 C.2    71  ALA71       0.2287
     60  O        -19.3230   24.0620   92.8070 O.2    71  ALA71      -0.2864
     61  CB       -20.1430   27.3780   92.9970 C.3    71  ALA71       0.0319
     62  N        -19.2570   25.7860   97.1820 N.3    73  ARG73      -0.1231
     63  CA       -19.8410   26.1770   98.4580 C.3    73  ARG73       0.1694
     64  C        -20.7390   27.3930   98.2920 C.2    73  ARG73       0.2592
     65  O        -20.6070   28.1620   97.3390 O.2    73  ARG73      -0.2718
     66  CB       -18.7610   26.4960   99.5060 C.3    73  ARG73       0.0321
     67  CG       -17.7590   25.3870   99.7360 C.3    73  ARG73       0.0489
     68  CD       -17.5530   25.1300  101.2170 C.3    73  ARG73       0.2205
     69  NE       -16.3380   24.3620  101.4860 N.pl3  73  ARG73      -0.0865
     70  CZ       -16.0290   23.2060  100.9030 C.cat  73  ARG73       0.5346
     71  NH1      -16.8440   22.6690  100.0060 N.pl3  73  ARG73       0.1354
     72  NH2      -14.9000   22.5870  101.2150 N.pl3  73  ARG73       0.1354
     73  N        -21.6640   27.5450   99.2400 N.am   74  SER74      -0.1952
     74  CA       -22.6150   28.6490   99.2380 C.3    74  SER74       0.1924
     75  C        -23.2080   28.8110  100.6290 C.2    74  SER74       0.2314
     76  O        -23.6760   27.8310  101.2230 O.2    74  SER74      -0.2863
     77  CB       -23.7270   28.4120   98.2150 C.3    74  SER74       0.2116
     78  OG       -24.8590   29.2040   98.4950 O.3    74  SER74      -0.2180
     79  N        -26.2030   30.9160  102.5550 N.3    76  GLU76      -0.1245
     80  CA       -27.4330   31.6300  102.2440 C.3    76  GLU76       0.1567
     81  C        -28.1970   31.9150  103.5220 C.2    76  GLU76       0.2260
     82  O        -28.1630   31.1230  104.4650 O.2    76  GLU76      -0.2867
     83  CB       -28.3060   30.8380  101.2690 C.3    76  GLU76       0.0388
     84  CG       -27.5290   29.9850  100.2890 C.3    76  GLU76       0.1160
     85  CD       -28.3430   28.8220   99.7710 C.2    76  GLU76       0.3649
     86  OE1      -27.8810   27.6730   99.8970 O.co2  76  GLU76      -0.2457
     87  OE2      -29.4540   29.0540   99.2480 O.co2  76  GLU76      -0.2457
     88  N        -28.0190   35.3080   99.3690 N.3    92  PHE92      -0.1241
     89  CA       -26.6820   34.7280   99.3840 C.3    92  PHE92       0.1605
     90  C        -25.7230   35.6550  100.1200 C.2    92  PHE92       0.2264
     91  O        -25.6080   36.8380   99.7820 O.2    92  PHE92      -0.2867
     92  CB       -26.1790   34.4830   97.9610 C.3    92  PHE92       0.0534
     93  CG       -26.7700   33.2670   97.3010 C.ar   92  PHE92      -0.0203
     94  CD1      -27.7670   32.5330   97.9190 C.ar   92  PHE92      -0.0042
     95  CD2      -26.3160   32.8540   96.0590 C.ar   92  PHE92      -0.0042
     96  CE1      -28.3080   31.4180   97.3040 C.ar   92  PHE92      -0.0003
     97  CE2      -26.8530   31.7410   95.4440 C.ar   92  PHE92      -0.0003
     98  CZ       -27.8490   31.0210   96.0690 C.ar   92  PHE92      -0.0000
     99  N        -19.2120   30.9660   94.5710 N.3    97  HIS97      -0.1241
    100  CA       -19.9630   31.0500   93.3270 C.3    97  HIS97       0.1621
    101  C        -19.7560   32.4410   92.7330 C.2    97  HIS97       0.2264
    102  O        -18.9790   33.2510   93.2440 O.2    97  HIS97      -0.2867
    103  CB       -21.4360   30.7400   93.5720 C.3    97  HIS97       0.0745
    104  CG       -22.0140   31.4650   94.7450 C.ar   97  HIS97       0.0817
    105  ND1      -22.5840   32.7140   94.6410 N.ar   97  HIS97      -0.2268
    106  CD2      -22.0930   31.1230   96.0530 C.ar   97  HIS97       0.1154
    107  CE1      -22.9970   33.1080   95.8330 C.ar   97  HIS97       0.1986
    108  NE2      -22.7110   32.1600   96.7070 N.ar   97  HIS97      -0.2212
    109  N        -22.5620   34.4390   91.9740 N.3    99  LEU99      -0.1245
    110  CA       -23.8630   35.0840   92.1370 C.3    99  LEU99       0.1561
    111  C        -23.8670   35.8710   93.4470 C.2    99  LEU99       0.2260
    112  O        -24.2540   35.3560   94.4960 O.2    99  LEU99      -0.2867
    113  CB       -24.9740   34.0420   92.1050 C.3    99  LEU99       0.0270
    114  CG       -24.8170   32.9930   91.0040 C.3    99  LEU99       0.0019
    115  CD1      -25.4500   31.6710   91.4110 C.3    99  LEU99       0.0001
    116  CD2      -25.4090   33.5020   89.6990 C.3    99  LEU99       0.0001
    117  N        -27.2880   37.8880   95.6040 N.3   102  TYR102     -0.1241
    118  CA       -28.3870   37.0690   95.1130 C.3   102  TYR102      0.1605
    119  C        -29.5130   37.0520   96.1380 C.2   102  TYR102      0.2264
    120  O        -29.3170   36.6180   97.2780 O.2   102  TYR102     -0.2867
    121  CB       -27.9110   35.6480   94.8150 C.3   102  TYR102      0.0534
    122  CG       -29.0090   34.7420   94.3010 C.ar  102  TYR102     -0.0201
    123  CD1      -29.2910   34.6640   92.9440 C.ar  102  TYR102     -0.0009
    124  CD2      -29.7670   33.9720   95.1730 C.ar  102  TYR102     -0.0009
    125  CE1      -30.2940   33.8410   92.4700 C.ar  102  TYR102      0.0417
    126  CE2      -30.7720   33.1480   94.7100 C.ar  102  TYR102      0.0417
    127  CZ       -31.0340   33.0880   93.3580 C.ar  102  TYR102      0.1957
    128  OH       -32.0350   32.2670   92.8910 O.3   102  TYR102     -0.2866
    129  N        -28.3380   31.0610   83.0700 N.3   141  PHE141     -0.1227
    130  CA       -27.6220   30.1560   83.9640 C.3   141  PHE141      0.1736
    131  C        -28.4200   29.8970   85.2370 C.2   141  PHE141      0.2595
    132  O        -28.5350   28.7510   85.6880 O.2   141  PHE141     -0.2718
    133  CB       -26.2440   30.7420   84.2830 C.3   141  PHE141      0.0547
    134  CG       -25.5480   30.0850   85.4360 C.ar  141  PHE141     -0.0202
    135  CD1      -25.1000   28.7780   85.3440 C.ar  141  PHE141     -0.0042
    136  CD2      -25.3190   30.7860   86.6090 C.ar  141  PHE141     -0.0042
    137  CE1      -24.4500   28.1780   86.4060 C.ar  141  PHE141     -0.0003
    138  CE2      -24.6700   30.1910   87.6730 C.ar  141  PHE141     -0.0003
    139  CZ       -24.2350   28.8870   87.5710 C.ar  141  PHE141     -0.0000
    140  N        -28.9760   30.9530   85.8320 N.am  142  VAL142     -0.1980
    141  CA       -29.7490   30.8000   87.0620 C.3   142  VAL142      0.1595
    142  C        -31.0650   30.0770   86.7900 C.2   142  VAL142      0.2287
    143  O        -31.4760   29.1990   87.5590 O.2   142  VAL142     -0.2864
    144  CB       -29.9830   32.1720   87.7190 C.3   142  VAL142      0.0276
    145  CG1      -30.9190   32.0410   88.9140 C.3   142  VAL142      0.0022
    146  CG2      -28.6610   32.7890   88.1420 C.3   142  VAL142      0.0022
    147  N        -30.7580   26.2640   86.5900 N.3   145  LEU145     -0.1231
    148  CA       -30.5800   25.6060   87.8790 C.3   145  LEU145      0.1693
    149  C        -31.8690   25.6250   88.6920 C.2   145  LEU145      0.2591
    150  O        -32.2230   24.6240   89.3280 O.2   145  LEU145     -0.2718
    151  CB       -29.4430   26.2740   88.6500 C.3   145  LEU145      0.0284
    152  CG       -28.0270   25.9070   88.1970 C.3   145  LEU145      0.0019
    153  CD1      -26.9860   26.6640   89.0090 C.3   145  LEU145      0.0001
    154  CD2      -27.8090   24.4060   88.3050 C.3   145  LEU145      0.0001
    155  N        -32.5790   26.7580   88.6900 N.am  146  LEU146     -0.1980
    156  CA       -33.8500   26.8370   89.4040 C.3   146  LEU146      0.1596
    157  C        -34.8930   25.9050   88.8010 C.2   146  LEU146      0.2287
    158  O        -35.6320   25.2360   89.5330 O.2   146  LEU146     -0.2864
    159  CB       -34.3610   28.2770   89.4030 C.3   146  LEU146      0.0297
    160  CG       -33.5810   29.3020   90.2260 C.3   146  LEU146      0.0022
    161  CD1      -34.1990   30.6810   90.0610 C.3   146  LEU146      0.0001
    162  CD2      -33.5460   28.9000   91.6920 C.3   146  LEU146      0.0001
    163  N        -34.3620   22.4410   89.7970 N.3   149  ASN149     -0.1240
    164  CA       -34.7350   22.2390   91.1920 C.3   149  ASN149      0.1653
    165  C        -36.2480   22.1710   91.3590 C.2   149  ASN149      0.2266
    166  O        -36.7510   21.4140   92.1990 O.2   149  ASN149     -0.2867
    167  CB       -34.1460   23.3500   92.0610 C.3   149  ASN149      0.1155
    168  CG       -32.7110   23.0770   92.4560 C.2   149  ASN149      0.2627
    169  OD1      -32.1670   22.0130   92.1610 O.2   149  ASN149     -0.2716
    170  ND2      -32.0900   24.0340   93.1330 N.am  149  ASN149     -0.0877
@<TRIPOS>BOND
     1   129   130    1
     2   130   133    1
     3   130   131    1
     4   133   134    1
     5   131   132    2
     6   131   140   am
     7   135   134   ar
     8   135   137   ar
     9   134   136   ar
    10   140   141    1
    11   137   139   ar
    12   147   148    1
    13   136   138   ar
    14   142   141    1
    15   142   143    2
    16   141   144    1
    17    55    54    1
    18    55    56    1
    19   139   138   ar
    20   144   146    1
    21   144   145    1
    22   148   151    1
    23   148   149    1
    24    54    51    1
    25    56    50    1
    26   152   154    1
    27   152   151    1
    28   152   153    1
    29    50    51    1
    30    50    44   am
    31    42    43    1
    32    51    52    1
    33   155   149   am
    34   155   156    1
    35   149   150    2
    36    43    44    1
    37    43    46    1
    38    44    45    2
    39   157   156    1
    40   157   158    2
    41    20    18   ar
    42    20    19   ar
    43    49    47    1
    44    18    16   ar
    45   159   156    1
    46   159   160    1
    47   116   114    1
    48   163   164    1
    49    46    47    1
    50   161   160    1
    51    52    53    2
    52    52    57   am
    53    47    48    1
    54    19    17   ar
    55   160   162    1
    56    16    15   ar
    57   114   115    1
    58   114   113    1
    59    57    58    1
    60   164   165    1
    61   164   167    1
    62   165   166    2
    63    17    15   ar
    64    15    14    1
    65   109   110    1
    66   167   168    1
    67   113   110    1
    68   110   111    1
    69   169   168    2
    70    58    61    1
    71    58    59    1
    72   168   170   am
    73   125   123   ar
    74   125   127   ar
    75   101   102    2
    76   101   100    1
    77    14    11    1
    78    60    59    2
    79   128   127    1
    80   123   122   ar
    81   100   103    1
    82   100    99    1
    83   127   126   ar
    84    11    10    1
    85    11    12    1
    86   111   112    2
    87   103   104    1
    88   122   121    1
    89   122   124   ar
    90   105   104   ar
    91   105   107   ar
    92    41    39    1
    93   126   124   ar
    94   104   106   ar
    95    12    13    2
    96    12    21   am
    97   121   118    1
    98     3     2    1
    99     3     4    2
   100    39    40    1
   101    39    36    1
   102   118   117    1
   103   118   119    1
   104     2     5    1
   105     2     1    1
   106    97    95   ar
   107    97    98   ar
   108    37    38    2
   109    37    36    1
   110     5     6    1
   111   107   108   ar
   112    21    22    1
   113   106   108   ar
   114    95    93   ar
   115    98    96   ar
   116     6     7    1
   117    36    35    1
   118   119   120    2
   119     7     8    1
   120     8     9    1
   121    62    63    1
   122    22    23    1
   123    22    25    1
   124    93    94   ar
   125    93    92    1
   126    96    94   ar
   127    65    64    2
   128    27    25    1
   129    23    24    2
   130    92    89    1
   131    25    26    1
   132    77    78    1
   133    77    74    1
   134    64    63    1
   135    64    73   am
   136    63    66    1
   137    74    73    1
   138    74    75    1
   139    87    85   ar
   140    33    32    1
   141    88    89    1
   142    89    90    1
   143    66    67    1
   144    67    68    1
   145    85    86   ar
   146    85    84    1
   147    91    90    2
   148    71    70    1
   149    31    30    2
   150    84    83    1
   151    32    34    1
   152    32    29    1
   153    75    76    2
   154    30    29    1
   155    70    72    1
   156    70    69    2
   157    68    69    1
   158    83    80    1
   159    29    28    1
   160    80    79    1
   161    80    81    1
   162    81    82    2
