@<TRIPOS>MOLECULE
tmp/5zdbA00.pdb
 206 201 0 0 0
SMALL
GASTEIGER

@<TRIPOS>ATOM
      1  N          7.5740   -6.7870    2.1650 N.3    45  THR45      -0.1203
      2  CA         7.3030   -8.0240    2.8960 C.3    45  THR45       0.1994
      3  C          5.7940   -8.2630    3.0130 C.2    45  THR45       0.2619
      4  O          4.9630   -7.3710    2.8090 O.2    45  THR45      -0.2717
      5  CB         7.8830   -7.9920    4.3090 C.3    45  THR45       0.1784
      6  OG1        7.2380   -6.9450    5.0500 O.3    45  THR45      -0.2211
      7  CG2        9.3710   -7.7820    4.2880 C.3    45  THR45       0.0376
      8  N          5.4460   -9.4930    3.3800 N.am   46  THR46      -0.1938
      9  CA         4.0430   -9.8340    3.6010 C.3    46  THR46       0.2028
     10  C          3.4020   -8.9100    4.6260 C.2    46  THR46       0.2642
     11  O          2.3320   -8.3260    4.3800 O.2    46  THR46      -0.2714
     12  CB         3.9370  -11.2930    4.0450 C.3    46  THR46       0.1808
     13  OG1        4.5540  -12.1310    3.0530 O.3    46  THR46      -0.2208
     14  CG2        2.4490  -11.6970    4.2300 C.3    46  THR46       0.0379
     15  N          4.0640   -8.7250    5.7750 N.am   47  PHE47      -0.1973
     16  CA         3.4410   -7.9380    6.8270 C.3    47  PHE47       0.1639
     17  C          3.4810   -6.4470    6.5340 C.2    47  PHE47       0.2290
     18  O          2.6030   -5.7140    6.9980 O.2    47  PHE47      -0.2864
     19  CB         4.1010   -8.2320    8.1850 C.3    47  PHE47       0.0560
     20  CG         3.5550   -9.4610    8.8630 C.ar   47  PHE47      -0.0200
     21  CD1        2.4200  -10.1000    8.3700 C.ar   47  PHE47      -0.0042
     22  CD2        4.1800   -9.9820    9.9840 C.ar   47  PHE47      -0.0042
     23  CE1        1.9160  -11.2400    8.9920 C.ar   47  PHE47      -0.0003
     24  CE2        3.6840  -11.1090   10.6100 C.ar   47  PHE47      -0.0003
     25  CZ         2.5530  -11.7430   10.1210 C.ar   47  PHE47      -0.0000
     26  N          3.5930  -18.7730    3.8270 N.3    65  PHE65      -0.1241
     27  CA         4.2850  -19.7480    2.9710 C.3    65  PHE65       0.1605
     28  C          4.7970  -20.8580    3.8810 C.2    65  PHE65       0.2264
     29  O          5.9840  -20.9500    4.2050 O.2    65  PHE65      -0.2867
     30  CB         5.4450  -19.1350    2.1930 C.3    65  PHE65       0.0534
     31  CG         5.1050  -17.9070    1.3900 C.ar   65  PHE65      -0.0203
     32  CD1        6.1280  -17.0790    0.9420 C.ar   65  PHE65      -0.0042
     33  CD2        3.7930  -17.5810    1.0660 C.ar   65  PHE65      -0.0042
     34  CE1        5.8570  -15.9450    0.1940 C.ar   65  PHE65      -0.0003
     35  CE2        3.5040  -16.4330    0.3200 C.ar   65  PHE65      -0.0003
     36  CZ         4.5340  -15.6150   -0.1150 C.ar   65  PHE65      -0.0000
     37  N          5.4960  -24.2630    6.3170 N.3    67  SER67      -0.1217
     38  CA         5.9140  -25.6540    6.3980 C.3    67  SER67       0.1889
     39  C          4.6820  -26.5510    6.4640 C.2    67  SER67       0.2288
     40  O          3.6350  -26.1800    7.0080 O.2    67  SER67      -0.2866
     41  CB         6.7920  -25.8820    7.6260 C.3    67  SER67       0.2089
     42  OG         6.9710  -27.2630    7.8950 O.3    67  SER67      -0.2183
     43  N          5.9770  -22.9730   11.8970 N.3    72  GLY72      -0.1210
     44  CA         7.1240  -22.0970   11.7240 C.3    72  GLY72       0.1956
     45  C          8.3190  -22.7600   11.0670 C.2    72  GLY72       0.2612
     46  O          9.4090  -22.1760   11.0050 O.2    72  GLY72      -0.2717
     47  N          8.1290  -23.9810   10.5720 N.am   73  GLY73      -0.1956
     48  CA         9.2130  -24.7140    9.9450 C.3    73  GLY73       0.1869
     49  C         10.3640  -25.0270   10.8660 C.2    73  GLY73       0.2309
     50  O         11.4740  -25.2800   10.3900 O.2    73  GLY73      -0.2863
     51  N         14.5100  -23.4910   10.9690 N.3    76  LEU76      -0.1245
     52  CA        15.7440  -24.0900   10.4680 C.3    76  LEU76       0.1561
     53  C         15.9470  -23.7530    8.9960 C.2    76  LEU76       0.2260
     54  O         14.9840  -23.6800    8.2250 O.2    76  LEU76      -0.2867
     55  CB        15.7320  -25.6160   10.6270 C.3    76  LEU76       0.0270
     56  CG        15.2210  -26.2420   11.9250 C.3    76  LEU76       0.0019
     57  CD1       14.6070  -27.6000   11.6300 C.3    76  LEU76       0.0001
     58  CD2       16.3310  -26.3660   12.9530 C.3    76  LEU76       0.0001
     59  N         15.7410  -16.0060    6.4810 N.3    80  GLN80      -0.1231
     60  CA        15.3020  -15.5150    5.1750 C.3    80  GLN80       0.1698
     61  C         13.9950  -16.2270    4.6730 C.2    80  GLN80       0.2592
     62  O         13.5190  -16.0670    3.5220 O.2    80  GLN80      -0.2718
     63  CB        16.4540  -15.6650    4.1760 C.3    80  GLN80       0.0381
     64  CG        16.3260  -16.7860    3.1450 C.3    80  GLN80       0.0905
     65  CD        16.5950  -18.1730    3.7120 C.2    80  GLN80       0.2608
     66  OE1       16.8710  -18.3330    4.9020 O.2    80  GLN80      -0.2717
     67  NE2       16.5170  -19.1860    2.8520 N.am   80  GLN80      -0.0878
     68  N         13.4110  -16.9870    5.6010 N.am   81  ALA81      -0.1966
     69  CA        12.1810  -17.7210    5.3670 C.3    81  ALA81       0.1728
     70  C         10.9820  -16.8790    5.7870 C.2    81  ALA81       0.2616
     71  O         10.9490  -16.3280    6.8980 O.2    81  ALA81      -0.2715
     72  CB        12.2040  -19.0440    6.1310 C.3    81  ALA81       0.0334
     73  N          9.9930  -16.7950    4.9000 N.am   82  GLN82      -0.1963
     74  CA         8.8410  -15.9300    5.1380 C.3    82  GLN82       0.1733
     75  C          8.0590  -16.3510    6.3860 C.2    82  GLN82       0.2616
     76  O          7.6790  -15.5020    7.1980 O.2    82  GLN82      -0.2715
     77  CB         7.9330  -15.9360    3.9070 C.3    82  GLN82       0.0408
     78  CG         6.7720  -14.9300    3.9450 C.3    82  GLN82       0.0908
     79  CD         5.4300  -15.5830    4.1400 C.2    82  GLN82       0.2608
     80  OE1        5.3420  -16.7040    4.6380 O.2    82  GLN82      -0.2717
     81  NE2        4.3580  -14.8760    3.7550 N.am   82  GLN82      -0.0878
     82  N          7.7970  -17.6510    6.5590 N.am   83  GLU83      -0.1963
     83  CA         7.0300  -18.0700    7.7340 C.3    83  GLU83       0.1733
     84  C          7.7500  -17.6930    9.0260 C.2    83  GLU83       0.2616
     85  O          7.1090  -17.3290   10.0190 O.2    83  GLU83      -0.2715
     86  CB         6.7510  -19.5800    7.7090 C.3    83  GLU83       0.0429
     87  CG         5.9200  -20.0590    8.9410 C.3    83  GLU83       0.1163
     88  CD         5.4730  -21.5220    8.8550 C.2    83  GLU83       0.3649
     89  OE1        4.4110  -21.8550    9.4130 O.co2  83  GLU83      -0.2457
     90  OE2        6.1870  -22.3430    8.2430 O.co2  83  GLU83      -0.2457
     91  N          9.0810  -17.7820    9.0320 N.am   84  GLU84      -0.1963
     92  CA         9.8450  -17.3750   10.2070 C.3    84  GLU84       0.1733
     93  C          9.6570  -15.8900   10.4860 C.2    84  GLU84       0.2616
     94  O          9.4720  -15.4830   11.6400 O.2    84  GLU84      -0.2715
     95  CB        11.3280  -17.6860   10.0140 C.3    84  GLU84       0.0429
     96  CG        11.7490  -19.0800   10.3730 C.3    84  GLU84       0.1163
     97  CD        13.2430  -19.1570   10.6660 C.2    84  GLU84       0.3649
     98  OE1       13.7210  -18.4160   11.5590 O.co2  84  GLU84      -0.2457
     99  OE2       13.9350  -19.9550    9.9960 O.co2  84  GLU84      -0.2457
    100  N          9.7490  -15.0600    9.4430 N.am   85  ASP85      -0.1957
    101  CA         9.4310  -13.6420    9.5900 C.3    85  ASP85       0.1840
    102  C          8.0550  -13.4610   10.2240 C.2    85  ASP85       0.2621
    103  O          7.9060  -12.7170   11.2000 O.2    85  ASP85      -0.2715
    104  CB         9.4820  -12.9330    8.2310 C.3    85  ASP85       0.1450
    105  CG        10.8760  -12.9320    7.6160 C.2    85  ASP85       0.3671
    106  OD1       11.8490  -13.2520    8.3300 O.co2  85  ASP85      -0.2456
    107  OD2       10.9950  -12.6140    6.4130 O.co2  85  ASP85      -0.2456
    108  N          7.0390  -14.1630    9.6920 N.am   86  LEU86      -0.1977
    109  CA         5.6850  -14.0180   10.2190 C.3    86  LEU86       0.1596
    110  C          5.6210  -14.3990   11.6960 C.2    86  LEU86       0.2287
    111  O          4.9810  -13.7040   12.4950 O.2    86  LEU86      -0.2864
    112  CB         4.6950  -14.8570    9.4130 C.3    86  LEU86       0.0297
    113  CG         4.6030  -14.5940    7.8950 C.3    86  LEU86       0.0022
    114  CD1        3.2590  -15.1000    7.3530 C.3    86  LEU86       0.0001
    115  CD2        4.7700  -13.1150    7.5930 C.3    86  LEU86       0.0001
    116  N          3.0670  -24.9030   -0.0070 N.3   150  ALA150     -0.1245
    117  CA         3.2280  -25.2200   -1.4130 C.3   150  ALA150      0.1562
    118  C          3.8570  -26.6090   -1.4970 C.2   150  ALA150      0.2260
    119  O          4.5270  -27.0350   -0.5570 O.2   150  ALA150     -0.2867
    120  CB         4.1070  -24.1740   -2.1090 C.3   150  ALA150      0.0290
    121  N          5.3140  -14.9500   -3.5060 N.3   194  ALA194     -0.1231
    122  CA         6.0930  -16.0140   -4.1590 C.3   194  ALA194      0.1694
    123  C          6.0460  -17.3310   -3.3690 C.2   194  ALA194      0.2592
    124  O          7.0600  -17.9450   -3.0270 O.2   194  ALA194     -0.2718
    125  CB         7.5260  -15.5440   -4.3690 C.3   194  ALA194      0.0304
    126  N          4.8220  -17.7800   -3.1270 N.am  195  TRP195     -0.1962
    127  CA         4.5700  -19.0290   -2.4220 C.3   195  TRP195      0.1771
    128  C          5.3480  -20.1920   -3.0430 C.2   195  TRP195      0.2620
    129  O          5.3040  -20.4070   -4.2550 O.2   195  TRP195     -0.2715
    130  CB         3.0630  -19.2830   -2.4650 C.3   195  TRP195      0.0590
    131  CG         2.5520  -20.3670   -1.6380 C.ar  195  TRP195      0.0006
    132  CD1        2.9290  -20.7030   -0.3550 C.ar  195  TRP195      0.0946
    133  CD2        1.5130  -21.2790   -2.0110 C.ar  195  TRP195      0.0152
    134  NE1        2.1730  -21.7860    0.0890 N.ar  195  TRP195     -0.2442
    135  CE2        1.3070  -22.1570   -0.9160 C.ar  195  TRP195      0.0810
    136  CE3        0.7410  -21.4450   -3.1700 C.ar  195  TRP195      0.0012
    137  CZ2        0.3580  -23.1790   -0.9510 C.ar  195  TRP195      0.0191
    138  CZ3       -0.2000  -22.4590   -3.1980 C.ar  195  TRP195      0.0001
    139  CH2       -0.3780  -23.3220   -2.0910 C.ar  195  TRP195      0.0015
    140  N          6.0960  -20.9180   -2.2110 N.am  196  GLY196     -0.1940
    141  CA         6.8630  -22.0650   -2.6740 C.3   196  GLY196      0.2014
    142  C          8.1020  -21.7700   -3.5010 C.2   196  GLY196      0.2639
    143  O          8.7560  -22.7170   -3.9480 O.2   196  GLY196     -0.2714
    144  N          8.4500  -20.5070   -3.7240 N.am  197  CYS197     -0.1953
    145  CA         9.5040  -20.1270   -4.6670 C.3   197  CYS197      0.1843
    146  C         10.8820  -19.9550   -4.0300 C.2   197  CYS197      0.2626
    147  O         11.8300  -19.5690   -4.7270 O.2   197  CYS197     -0.2714
    148  CB         9.1110  -18.8310   -5.3820 C.3   197  CYS197      0.0997
    149  SG         7.5720  -18.9850   -6.2980 S.3   197  CYS197     -0.0797
    150  N         11.0230  -20.2030   -2.7360 N.am  198  GLY198     -0.1940
    151  CA        12.3260  -20.0360   -2.1190 C.3   198  GLY198      0.2014
    152  C         12.8450  -21.3740   -1.6370 C.2   198  GLY198      0.2639
    153  O         13.4260  -22.1550   -2.3970 O.2   198  GLY198     -0.2714
    154  N         12.5880  -21.6550   -0.3640 N.am  199  VAL199     -0.1963
    155  CA        13.0000  -22.9150    0.2330 C.3   199  VAL199      0.1727
    156  C         12.4350  -24.1100   -0.5400 C.2   199  VAL199      0.2616
    157  O         13.1200  -25.1290   -0.7090 O.2   199  VAL199     -0.2715
    158  CB        12.5840  -22.9190    1.7110 C.3   199  VAL199      0.0290
    159  CG1       12.7980  -24.2960    2.3370 C.3   199  VAL199      0.0023
    160  CG2       13.3810  -21.8100    2.4600 C.3   199  VAL199      0.0023
    161  N         11.1920  -24.0120   -1.0330 N.am  200  PHE200     -0.1974
    162  CA        10.5530  -25.1460   -1.7040 C.3   200  PHE200      0.1639
    163  C         10.8370  -25.2060   -3.2000 C.2   200  PHE200      0.2290
    164  O         10.3390  -26.1190   -3.8700 O.2   200  PHE200     -0.2864
    165  CB         9.0310  -25.1420   -1.4890 C.3   200  PHE200      0.0560
    166  CG         8.6070  -25.6360   -0.1250 C.ar  200  PHE200     -0.0200
    167  CD1        9.5480  -26.0700    0.8010 C.ar  200  PHE200     -0.0042
    168  CD2        7.2700  -25.6110    0.2420 C.ar  200  PHE200     -0.0042
    169  CE1        9.1710  -26.5160    2.0640 C.ar  200  PHE200     -0.0003
    170  CE2        6.8740  -26.0510    1.5020 C.ar  200  PHE200     -0.0003
    171  CZ         7.8330  -26.5140    2.4190 C.ar  200  PHE200     -0.0000
    172  N          3.0200   -9.2160   -2.6090 N.3   229  ALA229     -0.1231
    173  CA         4.1680   -8.6270   -1.9220 C.3   229  ALA229      0.1694
    174  C          5.3220   -9.6190   -2.0000 C.2   229  ALA229      0.2592
    175  O          5.2700  -10.6930   -1.3910 O.2   229  ALA229     -0.2718
    176  CB         3.8330   -8.2750   -0.4700 C.3   229  ALA229      0.0304
    177  N          6.3640   -9.2610   -2.7480 N.am  230  VAL230     -0.1966
    178  CA         7.4520  -10.1740   -3.0570 C.3   230  VAL230      0.1727
    179  C          8.7190   -9.5550   -2.4910 C.2   230  VAL230      0.2616
    180  O          9.2610   -8.5840   -3.0370 O.2   230  VAL230     -0.2715
    181  CB         7.5820  -10.4490   -4.5590 C.3   230  VAL230      0.0290
    182  CG1        8.7420  -11.4300   -4.8300 C.3   230  VAL230      0.0023
    183  CG2        6.2590  -10.9930   -5.1100 C.3   230  VAL230      0.0023
    184  N          9.1890  -10.0920   -1.3800 N.am  231  LEU231     -0.1963
    185  CA        10.4920   -9.6760   -0.8880 C.3   231  LEU231      0.1728
    186  C         11.5570  -10.3100   -1.7600 C.2   231  LEU231      0.2616
    187  O         11.5060  -11.5100   -2.0260 O.2   231  LEU231     -0.2715
    188  CB        10.6830  -10.0940    0.5670 C.3   231  LEU231      0.0311
    189  CG        12.0660   -9.7650    1.1210 C.3   231  LEU231      0.0022
    190  CD1       12.2210   -8.2600    1.2110 C.3   231  LEU231      0.0001
    191  CD2       12.2340  -10.4230    2.4820 C.3   231  LEU231      0.0001
    192  N         12.5030   -9.5010   -2.2360 N.am  232  ASP232     -0.1971
    193  CA        13.5280   -9.9930   -3.1530 C.3   232  ASP232      0.1709
    194  C         14.7380   -9.0960   -2.9340 C.2   232  ASP232      0.2293
    195  O         14.8070   -7.9970   -3.4890 O.2   232  ASP232     -0.2864
    196  CB        13.0450   -9.9680   -4.6000 C.3   232  ASP232      0.1436
    197  CG        13.9900  -10.6830   -5.5570 C.2   232  ASP232      0.3671
    198  OD1       13.5270  -11.0960   -6.6510 O.co2 232  ASP232     -0.2456
    199  OD2       15.1900  -10.8350   -5.2300 O.co2 232  ASP232     -0.2456
    200  N         12.9540  -12.9800   -8.6460 N.3   239  THR239     -0.1218
    201  CA        11.6380  -13.4330   -8.2110 C.3   239  THR239      0.1862
    202  C         10.5880  -12.3300   -8.3490 C.2   239  THR239      0.2287
    203  O          9.5050  -12.5610   -8.9010 O.2   239  THR239     -0.2866
    204  CB        11.7140  -13.9370   -6.7680 C.3   239  THR239      0.1770
    205  OG1       12.6860  -14.9850   -6.6960 O.3   239  THR239     -0.2211
    206  CG2       10.3450  -14.4850   -6.3190 C.3   239  THR239      0.0375
@<TRIPOS>BOND
     1   203   202    2
     2   200   201    1
     3   202   201    1
     4   201   204    1
     5   204   205    1
     6   204   206    1
     7   198   197   ar
     8   149   148    1
     9   197   199   ar
    10   197   196    1
    11   148   145    1
    12   183   181    1
    13   182   181    1
    14   147   146    2
    15   145   146    1
    16   145   144    1
    17   196   193    1
    18   181   178    1
    19   125   122    1
    20   129   128    2
    21   122   121    1
    22   122   123    1
    23   146   150   am
    24   143   142    2
    25   164   163    2
    26   144   142   am
    27   142   141    1
    28   195   194    2
    29   123   126   am
    30   123   124    2
    31   163   162    1
    32   138   136   ar
    33   138   139   ar
    34   136   133   ar
    35   193   194    1
    36   193   192    1
    37   126   127    1
    38   178   177    1
    39   178   179    1
    40   128   127    1
    41   128   140   am
    42   180   179    2
    43   177   174   am
    44   150   151    1
    45   141   140    1
    46   172   173    1
    47   179   184   am
    48   130   127    1
    49   130   131    1
    50   153   152    2
    51   192   186   am
    52   151   152    1
    53   120   117    1
    54   139   137   ar
    55   187   186    2
    56   133   131   ar
    57   133   135   ar
    58   174   173    1
    59   174   175    2
    60   173   176    1
    61   186   185    1
    62   162   165    1
    63   162   161    1
    64   131   132   ar
    65   152   154   am
    66   118   117    1
    67   118   119    2
    68   165   166    1
    69   117   116    1
    70   184   185    1
    71   161   156   am
    72   137   135   ar
    73   135   134   ar
    74   185   188    1
    75   157   156    2
    76   156   155    1
    77   154   155    1
    78   132   134   ar
    79   166   168   ar
    80   166   167   ar
    81    36    34   ar
    82    36    35   ar
    83    34    32   ar
    84   155   158    1
    85   168   170   ar
    86    35    33   ar
    87   188   189    1
    88   167   169   ar
    89    32    31   ar
    90    33    31   ar
    91   189   190    1
    92   189   191    1
    93    31    30    1
    94   170   171   ar
    95   158   159    1
    96   158   160    1
    97   169   171   ar
    98     1     2    1
    99    30    27    1
   100     4     3    2
   101    67    65   am
   102     2     3    1
   103     2     5    1
   104    27    26    1
   105    27    28    1
   106     3     8   am
   107    13    12    1
   108    64    65    1
   109    64    63    1
   110     8     9    1
   111    62    61    2
   112     9    12    1
   113     9    10    1
   114    65    66    2
   115    81    79   am
   116    28    29    2
   117    77    78    1
   118    77    74    1
   119    78    79    1
   120    12    14    1
   121    79    80    2
   122    63    60    1
   123     7     5    1
   124     5     6    1
   125    11    10    2
   126    10    15   am
   127    61    60    1
   128    61    68   am
   129    73    74    1
   130    73    70   am
   131    74    75    1
   132    60    59    1
   133    69    68    1
   134    69    70    1
   135    69    72    1
   136    15    16    1
   137    70    71    2
   138    37    38    1
   139    75    82   am
   140    75    76    2
   141    38    39    1
   142    38    41    1
   143   107   105   ar
   144    39    40    2
   145    17    16    1
   146    17    18    2
   147    82    83    1
   148    16    19    1
   149   114   113    1
   150   115   113    1
   151   105   104    1
   152   105   106   ar
   153    41    42    1
   154    86    83    1
   155    86    87    1
   156    83    84    1
   157   113   112    1
   158    19    20    1
   159    54    53    2
   160   104   101    1
   161    90    88   ar
   162    21    20   ar
   163    21    23   ar
   164    88    87    1
   165    88    89   ar
   166    20    22   ar
   167    23    25   ar
   168    53    52    1
   169    84    91   am
   170    84    85    2
   171    91    92    1
   172   112   109    1
   173   100   101    1
   174   100    93   am
   175   101   102    1
   176   108   109    1
   177   108   102   am
   178    48    47    1
   179    48    49    1
   180    22    24   ar
   181    99    97   ar
   182    95    92    1
   183    95    96    1
   184    25    24   ar
   185    92    93    1
   186   109   110    1
   187   102   103    2
   188    96    97    1
   189    50    49    2
   190    52    55    1
   191    52    51    1
   192    93    94    2
   193    47    45   am
   194    55    56    1
   195    97    98   ar
   196    46    45    2
   197    45    44    1
   198    57    56    1
   199   110   111    2
   200    44    43    1
   201    56    58    1
