@<TRIPOS>MOLECULE
tmp/5zdkA00.pdb
 194 191 0 0 0
SMALL
GASTEIGER

@<TRIPOS>ATOM
      1  N         12.8130   -7.0820   16.4990 N.3    28  ARG28      -0.1231
      2  CA        14.2590   -7.2560   16.5250 C.3    28  ARG28       0.1694
      3  C         14.8790   -6.2590   17.4530 C.2    28  ARG28       0.2592
      4  O         14.2630   -5.2120   17.7370 O.2    28  ARG28      -0.2718
      5  CB        14.8540   -7.1220   15.1210 C.3    28  ARG28       0.0321
      6  CG        15.0630   -5.6720   14.6510 C.3    28  ARG28       0.0489
      7  CD        13.7740   -4.9970   14.2600 C.3    28  ARG28       0.2205
      8  NE        14.0160   -3.6110   13.9760 N.pl3  28  ARG28      -0.0865
      9  CZ        13.9120   -2.6220   14.8620 C.cat  28  ARG28       0.5346
     10  NH1       13.5540   -2.8610   16.1340 N.pl3  28  ARG28       0.1354
     11  NH2       14.1530   -1.3810   14.4380 N.pl3  28  ARG28       0.1354
     12  N         16.0740   -6.5750   17.9580 N.am   29  PHE29      -0.1963
     13  CA        16.9870   -5.5080   18.4510 C.3    29  PHE29       0.1756
     14  C         18.1520   -5.2510   17.4650 C.2    29  PHE29       0.2461
     15  O         18.9360   -6.1890   17.1470 O.2    29  PHE29      -0.2730
     16  CB        17.5090   -5.8550   19.8210 C.3    29  PHE29       0.0574
     17  CG        18.5470   -4.9030   20.3530 C.ar   29  PHE29      -0.0200
     18  CD1       18.2220   -3.5410   20.5890 C.ar   29  PHE29      -0.0042
     19  CD2       19.8280   -5.3540   20.6840 C.ar   29  PHE29      -0.0042
     20  CE1       19.1540   -2.6780   21.1150 C.ar   29  PHE29      -0.0003
     21  CE2       20.7600   -4.4700   21.2190 C.ar   29  PHE29      -0.0003
     22  CZ        20.3970   -3.1430   21.4490 C.ar   29  PHE29      -0.0000
     23  N         18.2550   -4.0100   16.9440 N.am   30  PRO30      -0.2716
     24  CA        19.2850   -3.9280   15.9130 C.3    30  PRO30       0.1521
     25  C         20.5960   -3.1220   15.9800 C.2    30  PRO30       0.2440
     26  O         20.9960   -2.6020   14.9650 O.2    30  PRO30      -0.2731
     27  CB        18.4670   -3.4770   14.6700 C.3    30  PRO30       0.0310
     28  CG        17.4060   -2.5590   15.2460 C.3    30  PRO30       0.0237
     29  CD        17.2170   -2.9640   16.7310 C.3    30  PRO30       0.0939
     30  N         21.3380   -3.1470   17.0850 N.am   31  PRO31      -0.2716
     31  CA        22.3890   -2.1230   17.1710 C.3    31  PRO31       0.1536
     32  C         23.5050   -2.2730   16.1470 C.2    31  PRO31       0.2598
     33  O         23.6210   -3.3270   15.4570 O.2    31  PRO31      -0.2715
     34  CB        22.9850   -2.3810   18.5440 C.3    31  PRO31       0.0310
     35  CG        22.9770   -3.9210   18.5880 C.3    31  PRO31       0.0237
     36  CD        21.7050   -4.3490   17.8810 C.3    31  PRO31       0.0939
     37  N         24.3410   -1.2270   16.0950 N.am   32  GLU32      -0.1978
     38  CA        25.4410   -1.1120   15.1380 C.3    32  GLU32       0.1602
     39  C         26.6590   -1.7060   15.8160 C.2    32  GLU32       0.2287
     40  O         26.9630   -1.3580   16.9260 O.2    32  GLU32      -0.2864
     41  CB        25.7290    0.3560   14.7990 C.3    32  GLU32       0.0415
     42  CG        24.5310    1.2410   14.4680 C.3    32  GLU32       0.1163
     43  CD        24.9250    2.6500   13.9740 C.2    32  GLU32       0.3649
     44  OE1       25.2800    3.5570   14.7770 O.co2  32  GLU32      -0.2457
     45  OE2       24.8830    2.8620   12.7560 O.co2  32  GLU32      -0.2457
     46  N         27.3750   -1.1690   24.3200 N.3    37  LEU37      -0.1231
     47  CA        26.0300   -0.7900   24.6370 C.3    37  LEU37       0.1693
     48  C         25.9770   -0.1460   26.0210 C.2    37  LEU37       0.2592
     49  O         26.8190   -0.4390   26.8590 O.2    37  LEU37      -0.2718
     50  CB        25.1260   -2.0050   24.5470 C.3    37  LEU37       0.0284
     51  CG        24.9890   -2.6340   23.1680 C.3    37  LEU37       0.0019
     52  CD1       24.1760   -3.9120   23.3480 C.3    37  LEU37       0.0001
     53  CD2       24.2950   -1.6750   22.1850 C.3    37  LEU37       0.0001
     54  N         24.9900    0.7210   26.2490 N.am   38  HIS38      -0.1976
     55  CA        24.8300    1.4320   27.5330 C.3    38  HIS38       0.1656
     56  C         23.3810    1.2630   28.1030 C.2    38  HIS38       0.2291
     57  O         22.5240    0.6800   27.4310 O.2    38  HIS38      -0.2864
     58  CB        25.2360    2.9280   27.3930 C.3    38  HIS38       0.0771
     59  CG        24.4540    3.6910   26.3420 C.ar   38  HIS38       0.0820
     60  ND1       23.0770    3.8120   26.3680 N.ar   38  HIS38      -0.2267
     61  CD2       24.8620    4.3730   25.2370 C.ar   38  HIS38       0.1154
     62  CE1       22.6670    4.5060   25.3140 C.ar   38  HIS38       0.1986
     63  NE2       23.7260    4.8520   24.6090 N.ar   38  HIS38      -0.2212
     64  N         20.7020    3.2220   28.1920 N.3    40  GLY40      -0.1210
     65  CA        19.7150    3.5430   27.1660 C.3    40  GLY40       0.1956
     66  C         19.4060    2.3390   26.2680 C.2    40  GLY40       0.2611
     67  O         18.2370    1.9550   26.1140 O.2    40  GLY40      -0.2717
     68  N         20.4180    1.7240   25.6540 N.am   41  HIS41      -0.1975
     69  CA        20.1170    0.5160   24.8730 C.3    41  HIS41       0.1656
     70  C         19.3190   -0.5330   25.6750 C.2    41  HIS41       0.2291
     71  O         18.4380   -1.1720   25.1560 O.2    41  HIS41      -0.2864
     72  CB        21.3810   -0.1100   24.2870 C.3    41  HIS41       0.0771
     73  CG        22.1670    0.8240   23.4140 C.ar   41  HIS41       0.0820
     74  ND1       23.2790    1.5140   23.8660 N.ar   41  HIS41      -0.2267
     75  CD2       21.9950    1.1850   22.1170 C.ar   41  HIS41       0.1154
     76  CE1       23.7700    2.2440   22.8770 C.ar   41  HIS41       0.1986
     77  NE2       23.0020    2.0730   21.8120 N.ar   41  HIS41      -0.2212
     78  N         16.7470   -0.1940   27.4240 N.3    43  ARG43      -0.1231
     79  CA        15.2920   -0.0370   27.1550 C.3    43  ARG43       0.1694
     80  C         14.8190   -0.7850   25.8650 C.2    43  ARG43       0.2592
     81  O         13.7840   -1.4790   25.8860 O.2    43  ARG43      -0.2718
     82  CB        14.8580    1.4290   27.1270 C.3    43  ARG43       0.0321
     83  CG        13.4300    1.6460   26.6860 C.3    43  ARG43       0.0489
     84  CD        13.0330    3.1040   26.8450 C.3    43  ARG43       0.2205
     85  NE        12.9750    3.4920   28.2520 N.pl3  43  ARG43      -0.0865
     86  CZ        12.7040    4.7130   28.7230 C.cat  43  ARG43       0.5346
     87  NH1       12.4680    5.7680   27.9050 N.pl3  43  ARG43       0.1354
     88  NH2       12.6740    4.8700   30.0500 N.pl3  43  ARG43       0.1354
     89  N         15.5770   -0.6100   24.7700 N.am   44  SER44      -0.1952
     90  CA        15.3120   -1.2740   23.5110 C.3    44  SER44       0.1924
     91  C         15.4860   -2.8400   23.6130 C.2    44  SER44       0.2314
     92  O         14.7740   -3.6120   22.9630 O.2    44  SER44      -0.2863
     93  CB        16.2200   -0.6990   22.4250 C.3    44  SER44       0.2116
     94  OG        15.8150   -1.2140   21.1430 O.3    44  SER44      -0.2180
     95  N         21.1970    3.3160    5.6320 N.3   204  TYR204     -0.1241
     96  CA        20.1740    2.9220    6.6080 C.3   204  TYR204      0.1605
     97  C         18.7170    2.8750    6.0850 C.2   204  TYR204      0.2264
     98  O         18.0100    1.8580    6.2680 O.2   204  TYR204     -0.2867
     99  CB        20.2460    3.8140    7.8170 C.3   204  TYR204      0.0534
    100  CG        19.2400    3.4440    8.8660 C.ar  204  TYR204     -0.0201
    101  CD1       19.4290    2.2910    9.6710 C.ar  204  TYR204     -0.0009
    102  CD2       18.0850    4.2430    9.0850 C.ar  204  TYR204     -0.0009
    103  CE1       18.4960    1.9510   10.6540 C.ar  204  TYR204      0.0417
    104  CE2       17.1450    3.8970   10.0750 C.ar  204  TYR204      0.0417
    105  CZ        17.3470    2.7660   10.8510 C.ar  204  TYR204      0.1957
    106  OH        16.4120    2.4300   11.8040 O.3   204  TYR204     -0.2866
    107  N         10.4380   -1.9250   16.1550 N.3   221  LEU221     -0.1231
    108  CA        10.4040   -0.8820   17.1980 C.3   221  LEU221      0.1693
    109  C         11.6240    0.0420   17.3160 C.2   221  LEU221      0.2592
    110  O         12.7390   -0.3830   17.6760 O.2   221  LEU221     -0.2718
    111  CB        10.1180   -1.4960   18.5310 C.3   221  LEU221      0.0284
    112  CG         8.9190   -2.4150   18.5080 C.3   221  LEU221      0.0019
    113  CD1        8.6990   -2.9740   19.8940 C.3   221  LEU221      0.0001
    114  CD2        7.6910   -1.6650   18.0620 C.3   221  LEU221      0.0001
    115  N         11.3830    1.3210   17.0570 N.am  222  CYS222     -0.1956
    116  CA        12.4510    2.3200   16.9920 C.3   222  CYS222      0.1843
    117  C         12.1770    3.4910   17.9340 C.2   222  CYS222      0.2626
    118  O         11.0450    3.7240   18.3300 O.2   222  CYS222     -0.2714
    119  CB        12.6410    2.7930   15.5300 C.3   222  CYS222      0.0997
    120  SG        11.1870    3.6360   14.8220 S.3   222  CYS222     -0.0797
    121  N         13.2310    4.1990   18.3170 N.am  223  THR223     -0.1950
    122  CA        13.1210    5.3860   19.1280 C.3   223  THR223      0.1897
    123  C         12.7380    6.4890   18.1920 C.2   223  THR223      0.2313
    124  O         12.8750    6.3130   16.9740 O.2   223  THR223     -0.2863
    125  CB        14.4600    5.8130   19.7180 C.3   223  THR223      0.1794
    126  OG1       15.3780    6.0720   18.6480 O.3   223  THR223     -0.2208
    127  CG2       15.0080    4.7460   20.6020 C.3   223  THR223      0.0378
    128  N         13.6510    9.3320   16.9520 N.3   225  GLU225     -0.1231
    129  CA        14.4270   10.0650   15.9300 C.3   225  GLU225      0.1699
    130  C         13.9330    9.7660   14.5000 C.2   225  GLU225      0.2592
    131  O         14.0640   10.6040   13.6010 O.2   225  GLU225     -0.2718
    132  CB        15.9470    9.8110   16.0550 C.3   225  GLU225      0.0402
    133  CG        16.5090    9.8110   17.4810 C.3   225  GLU225      0.1161
    134  CD        15.9470   10.9220   18.3860 C.2   225  GLU225      0.3649
    135  OE1       16.2110   12.1220   18.0920 O.co2 225  GLU225     -0.2457
    136  OE2       15.2490   10.5900   19.3960 O.co2 225  GLU225     -0.2457
    137  N         13.3510    8.5790   14.3050 N.am  226  PHE226     -0.1976
    138  CA        12.8270    8.1610   12.9960 C.3   226  PHE226      0.1639
    139  C         11.3500    8.5520   12.7970 C.2   226  PHE226      0.2290
    140  O         10.5230    7.7220   12.3880 O.2   226  PHE226     -0.2864
    141  CB        13.0370    6.6530   12.7790 C.3   226  PHE226      0.0560
    142  CG        14.4550    6.2110   13.0640 C.ar  226  PHE226     -0.0200
    143  CD1       15.5270    6.7550   12.3290 C.ar  226  PHE226     -0.0042
    144  CD2       14.7260    5.2840   14.0590 C.ar  226  PHE226     -0.0042
    145  CE1       16.8650    6.3660   12.6020 C.ar  226  PHE226     -0.0003
    146  CE2       16.0550    4.8900   14.3420 C.ar  226  PHE226     -0.0003
    147  CZ        17.1220    5.4420   13.6020 C.ar  226  PHE226     -0.0000
    148  N          8.9930    4.5870   20.4400 N.3   257  PHE257     -0.1241
    149  CA         8.9400    4.7360   21.9100 C.3   257  PHE257      0.1605
    150  C          9.9850    5.7900   22.3290 C.2   257  PHE257      0.2264
    151  O         10.8680    6.1310   21.5450 O.2   257  PHE257     -0.2867
    152  CB         9.1530    3.3650   22.6280 C.3   257  PHE257      0.0534
    153  CG        10.5060    2.7530   22.3650 C.ar  257  PHE257     -0.0203
    154  CD1       10.6970    1.9010   21.2850 C.ar  257  PHE257     -0.0042
    155  CD2       11.5970    3.0620   23.1760 C.ar  257  PHE257     -0.0042
    156  CE1       11.9430    1.3630   21.0100 C.ar  257  PHE257     -0.0003
    157  CE2       12.8490    2.5400   22.9020 C.ar  257  PHE257     -0.0003
    158  CZ        13.0160    1.6750   21.8310 C.ar  257  PHE257     -0.0000
    159  N         13.2270    7.4360   23.8770 N.3   259  ARG259     -0.1231
    160  CA        14.5710    6.9770   24.1410 C.3   259  ARG259      0.1694
    161  C         14.8170    7.4110   25.5390 C.2   259  ARG259      0.2591
    162  O         14.2630    8.3920   25.9550 O.2   259  ARG259     -0.2718
    163  CB        15.5820    7.6000   23.1670 C.3   259  ARG259      0.0321
    164  CG        15.8370    9.1100   23.2570 C.3   259  ARG259      0.0489
    165  CD        17.1400    9.4770   22.5320 C.3   259  ARG259      0.2205
    166  NE        17.1310    8.8750   21.1970 N.pl3 259  ARG259     -0.0865
    167  CZ        18.1390    8.1890   20.6600 C.cat 259  ARG259      0.5346
    168  NH1       19.2570    8.0350   21.3210 N.pl3 259  ARG259      0.1354
    169  NH2       18.0330    7.6640   19.4530 N.pl3 259  ARG259      0.1354
    170  N         15.6460    6.6770   26.2580 N.am  260  LEU260     -0.1980
    171  CA        15.9420    7.0020   27.6270 C.3   260  LEU260      0.1596
    172  C         17.0170    8.0890   27.7100 C.2   260  LEU260      0.2287
    173  O         18.0100    8.0860   26.9500 O.2   260  LEU260     -0.2864
    174  CB        16.3160    5.7260   28.4150 C.3   260  LEU260      0.0297
    175  CG        17.0920    5.8900   29.7340 C.3   260  LEU260      0.0022
    176  CD1       16.2670    6.6090   30.7900 C.3   260  LEU260      0.0001
    177  CD2       17.7090    4.5860   30.2730 C.3   260  LEU260      0.0001
    178  N         24.9730    9.6210   27.3050 N.3   267  LEU267     -0.1245
    179  CA        24.9380    8.3930   26.5350 C.3   267  LEU267      0.1561
    180  C         25.4160    8.5270   25.0750 C.2   267  LEU267      0.2260
    181  O         25.4360    7.5140   24.3490 O.2   267  LEU267     -0.2867
    182  CB        23.5210    7.8440   26.5390 C.3   267  LEU267      0.0270
    183  CG        22.8690    7.5780   27.9060 C.3   267  LEU267      0.0019
    184  CD1       21.4490    7.0890   27.7470 C.3   267  LEU267      0.0001
    185  CD2       23.6780    6.5860   28.7160 C.3   267  LEU267      0.0001
    186  N         27.6380    8.6340   21.8410 N.3   269  LYS269     -0.1245
    187  CA        28.8820    7.9210   21.5180 C.3   269  LYS269      0.1561
    188  C         30.0310    8.9140   21.4720 C.2   269  LYS269      0.2260
    189  O         31.1120    8.6380   22.0070 O.2   269  LYS269     -0.2867
    190  CB        28.7800    7.1600   20.1800 C.3   269  LYS269      0.0271
    191  CG        29.8020    6.0300   20.0740 C.3   269  LYS269      0.0035
    192  CD        30.2310    5.7110   18.6370 C.3   269  LYS269      0.0206
    193  CE        29.2370    4.8170   17.8880 C.3   269  LYS269      0.1093
    194  NZ        29.5480    4.6960   16.4170 N.3   269  LYS269     -0.1314
@<TRIPOS>BOND
     1    95    96    1
     2    97    98    2
     3    97    96    1
     4    96    99    1
     5    99   100    1
     6   100   102   ar
     7   100   101   ar
     8   102   104   ar
     9   101   103   ar
    10   104   105   ar
    11   103   105   ar
    12   105   106    1
    13   143   145   ar
    14   143   142   ar
    15   140   139    2
    16   145   147   ar
    17    45    43   ar
    18   141   138    1
    19   141   142    1
    20   139   138    1
    21   138   137    1
    22   142   144   ar
    23   131   130    2
    24   147   146   ar
    25    43    42    1
    26    43    44   ar
    27     8     7    1
    28     8     9    2
    29   144   146   ar
    30     7     6    1
    31   137   130   am
    32    11     9    1
    33    42    41    1
    34   130   129    1
    35     6     5    1
    36    27    28    1
    37    27    24    1
    38    41    38    1
    39   120   119    1
    40     9    10    1
    41    26    25    2
    42     5     2    1
    43    38    39    1
    44    38    37    1
    45    28    29    1
    46    33    32    2
    47   119   116    1
    48    39    40    2
    49    24    25    1
    50    24    23    1
    51   129   132    1
    52   129   128    1
    53    25    30   am
    54   132   133    1
    55    37    32   am
    56    32    31    1
    57   107   108    1
    58   194   193    1
    59     1     2    1
    60     2     3    1
    61    29    23    1
    62    23    14   am
    63   124   123    2
    64   116   115    1
    65   116   117    1
    66   115   109   am
    67    30    31    1
    68    30    36    1
    69    15    14    2
    70    31    34    1
    71   108   109    1
    72   108   111    1
    73   109   110    2
    74     3     4    2
    75     3    12   am
    76    14    13    1
    77   133   134    1
    78    36    35    1
    79   193   192    1
    80   117   121   am
    81   117   118    2
    82    12    13    1
    83   114   112    1
    84   135   134   ar
    85   123   122    1
    86   121   122    1
    87   134   136   ar
    88    13    16    1
    89   112   111    1
    90   112   113    1
    91    34    35    1
    92   192   191    1
    93   126   125    1
    94   122   125    1
    95   169   167    1
    96   125   127    1
    97    16    17    1
    98   191   190    1
    99   190   187    1
   100    17    18   ar
   101    17    19   ar
   102   148   149    1
   103    18    20   ar
   104   167   166    2
   105   167   168    1
   106    19    21   ar
   107   156   154   ar
   108   156   158   ar
   109    20    22   ar
   110    94    93    1
   111   166   165    1
   112    21    22   ar
   113   154   153   ar
   114   188   187    1
   115   188   189    2
   116   187   186    1
   117   151   150    2
   118    77    75   ar
   119    77    76   ar
   120   158   157   ar
   121   149   150    1
   122   149   152    1
   123    75    73   ar
   124    53    51    1
   125   153   152    1
   126   153   155   ar
   127    93    90    1
   128   165   164    1
   129    76    74   ar
   130   157   155   ar
   131    92    91    2
   132   163   164    1
   133   163   160    1
   134    51    52    1
   135    51    50    1
   136    73    74   ar
   137    73    72    1
   138    90    91    1
   139    90    89    1
   140   159   160    1
   141   160   161    1
   142    72    69    1
   143    46    47    1
   144   181   180    2
   145    50    47    1
   146    63    61   ar
   147    63    62   ar
   148    47    48    1
   149    89    80   am
   150    69    68    1
   151    69    70    1
   152   180   179    1
   153    71    70    2
   154    61    59   ar
   155    62    60   ar
   156   161   162    2
   157   161   170   am
   158    68    66   am
   159    80    81    2
   160    80    79    1
   161    48    54   am
   162    48    49    2
   163    67    66    2
   164    54    55    1
   165   170   171    1
   166    66    65    1
   167    59    60   ar
   168    59    58    1
   169   179   182    1
   170   179   178    1
   171   182   183    1
   172    83    84    1
   173    83    82    1
   174    84    85    1
   175   173   172    2
   176    82    79    1
   177    79    78    1
   178    65    64    1
   179    58    55    1
   180    57    56    2
   181    55    56    1
   182   171   172    1
   183   171   174    1
   184   184   183    1
   185    87    86    1
   186   183   185    1
   187    85    86    2
   188   174   175    1
   189    86    88    1
   190   175   177    1
   191   175   176    1
