@<TRIPOS>MOLECULE
tmp/5zdlA00.pdb
 212 208 0 0 0
SMALL
GASTEIGER

@<TRIPOS>ATOM
      1  N         12.9870   -7.3870   16.3420 N.3    26  ARG26      -0.1231
      2  CA        14.4200   -7.4560   16.2220 C.3    26  ARG26       0.1694
      3  C         15.1050   -6.3960   17.0240 C.2    26  ARG26       0.2592
      4  O         14.5450   -5.3890   17.2650 O.2    26  ARG26      -0.2718
      5  CB        14.8070   -7.2740   14.7620 C.3    26  ARG26       0.0321
      6  CG        14.9690   -5.8350   14.3240 C.3    26  ARG26       0.0489
      7  CD        13.6630   -5.1520   14.0260 C.3    26  ARG26       0.2205
      8  NE        13.8270   -3.8060   13.5370 N.pl3  26  ARG26      -0.0865
      9  CZ        13.8050   -2.7340   14.3030 C.cat  26  ARG26       0.5346
     10  NH1       13.6680   -2.8450   15.5930 N.pl3  26  ARG26       0.1354
     11  NH2       13.9230   -1.5500   13.7840 N.pl3  26  ARG26       0.1354
     12  N         16.3180   -6.6450   17.4630 N.am   27  PHE27      -0.1963
     13  CA        17.1030   -5.6150   18.0910 C.3    27  PHE27       0.1756
     14  C         18.1940   -5.4540   17.0660 C.2    27  PHE27       0.2461
     15  O         18.9000   -6.3790   16.7820 O.2    27  PHE27      -0.2730
     16  CB        17.6400   -6.0380   19.4310 C.3    27  PHE27       0.0574
     17  CG        18.5940   -5.0610   20.0340 C.ar   27  PHE27      -0.0200
     18  CD1       18.2550   -3.7520   20.1750 C.ar   27  PHE27      -0.0042
     19  CD2       19.8260   -5.4680   20.4620 C.ar   27  PHE27      -0.0042
     20  CE1       19.1320   -2.8580   20.7310 C.ar   27  PHE27      -0.0003
     21  CE2       20.7060   -4.5880   21.0100 C.ar   27  PHE27      -0.0003
     22  CZ        20.3580   -3.2810   21.1540 C.ar   27  PHE27      -0.0000
     23  N         18.3810   -4.2600   16.5540 N.am   28  PRO28      -0.2716
     24  CA        19.3030   -4.0740   15.4510 C.3    28  PRO28       0.1521
     25  C         20.3280   -2.9750   15.5930 C.2    28  PRO28       0.2440
     26  O         20.3030   -1.9860   14.9090 O.2    28  PRO28      -0.2731
     27  CB        18.3400   -3.7220   14.3390 C.3    28  PRO28       0.0310
     28  CG        17.3410   -2.9030   15.0370 C.3    28  PRO28       0.0237
     29  CD        17.3020   -3.2930   16.4690 C.3    28  PRO28       0.0939
     30  N         21.2650   -3.1970   16.4730 N.am   29  PRO29      -0.2716
     31  CA        22.3330   -2.2580   16.7120 C.3    29  PRO29       0.1536
     32  C         23.4300   -2.3480   15.6980 C.2    29  PRO29       0.2598
     33  O         23.6030   -3.3430   15.0610 O.2    29  PRO29      -0.2715
     34  CB        22.8600   -2.7160   18.0420 C.3    29  PRO29       0.0310
     35  CG        22.7050   -4.1690   17.9850 C.3    29  PRO29       0.0237
     36  CD        21.4140   -4.3900   17.2970 C.3    29  PRO29       0.0939
     37  N         24.1490   -1.2610   15.5360 N.am   30  GLU30      -0.1978
     38  CA        25.2950   -1.2410   14.6740 C.3    30  GLU30       0.1602
     39  C         26.4600   -1.6920   15.5020 C.2    30  GLU30       0.2287
     40  O         26.6100   -1.2780   16.6450 O.2    30  GLU30      -0.2864
     41  CB        25.5240    0.1380   14.1490 C.3    30  GLU30       0.0415
     42  CG        26.6910    0.2340   13.1920 C.3    30  GLU30       0.1163
     43  CD        26.7590    1.5780   12.5000 C.2    30  GLU30       0.3649
     44  OE1       25.9070    2.4690   12.7920 O.co2  30  GLU30      -0.2457
     45  OE2       27.6720    1.7270   11.6580 O.co2  30  GLU30      -0.2457
     46  N         29.5420   -0.8550   16.0520 N.3    32  ASN32      -0.1240
     47  CA        30.6170    0.1460   16.0010 C.3    32  ASN32       0.1653
     48  C         30.8600    0.7980   17.3480 C.2    32  ASN32       0.2266
     49  O         31.5150    1.8470   17.4700 O.2    32  ASN32      -0.2867
     50  CB        30.2750    1.2170   14.9850 C.3    32  ASN32       0.1155
     51  CG        28.9700    1.8980   15.2930 C.2    32  ASN32       0.2627
     52  OD1       28.0640    1.2900   15.8580 O.2    32  ASN32      -0.2716
     53  ND2       28.8630    3.1620   14.9110 N.am   32  ASN32      -0.0877
     54  N         27.2630   -1.2470   23.9890 N.3    35  LEU35      -0.1231
     55  CA        25.9250   -0.8710   24.3780 C.3    35  LEU35       0.1693
     56  C         25.9110   -0.0960   25.6960 C.2    35  LEU35       0.2592
     57  O         26.7140   -0.3360   26.5730 O.2    35  LEU35      -0.2718
     58  CB        25.0500   -2.1000   24.4310 C.3    35  LEU35       0.0284
     59  CG        24.8760   -2.7640   23.0750 C.3    35  LEU35       0.0019
     60  CD1       24.1560   -4.0850   23.3150 C.3    35  LEU35       0.0001
     61  CD2       24.0930   -1.9220   22.0900 C.3    35  LEU35       0.0001
     62  N         25.0320    0.8900   25.7890 N.am   36  HIS36      -0.1976
     63  CA        24.7420    1.5490   27.0430 C.3    36  HIS36       0.1656
     64  C         23.3820    1.1330   27.6010 C.2    36  HIS36       0.2291
     65  O         22.6700    0.3410   27.0130 O.2    36  HIS36      -0.2864
     66  CB        24.8900    3.0780   26.9050 C.3    36  HIS36       0.0771
     67  CG        24.0540    3.7060   25.8270 C.ar   36  HIS36       0.0820
     68  ND1       22.6810    3.6060   25.7840 N.ar   36  HIS36      -0.2267
     69  CD2       24.3950    4.5240   24.8030 C.ar   36  HIS36       0.1154
     70  CE1       22.2190    4.2890   24.7530 C.ar   36  HIS36       0.1986
     71  NE2       23.2390    4.8620   24.1430 N.ar   36  HIS36      -0.2212
     72  N         20.6840    2.9700   27.8140 N.3    38  GLY38      -0.1210
     73  CA        19.6620    3.2540   26.7880 C.3    38  GLY38       0.1956
     74  C         19.2620    2.0500   25.9350 C.2    38  GLY38       0.2611
     75  O         18.0920    1.7110   25.8450 O.2    38  GLY38      -0.2717
     76  N         20.2410    1.3830   25.3270 N.am   39  HIS39      -0.1975
     77  CA        19.9640    0.1920   24.4940 C.3    39  HIS39       0.1656
     78  C         19.2290   -0.8980   25.2660 C.2    39  HIS39       0.2291
     79  O         18.5270   -1.7030   24.6760 O.2    39  HIS39      -0.2864
     80  CB        21.2380   -0.4250   23.8810 C.3    39  HIS39       0.0771
     81  CG        22.0460    0.5200   23.0500 C.ar   39  HIS39       0.0820
     82  ND1       23.2040    1.1050   23.5170 N.ar   39  HIS39      -0.2267
     83  CD2       21.8690    0.9910   21.7930 C.ar   39  HIS39       0.1154
     84  CE1       23.7030    1.9070   22.5950 C.ar   39  HIS39       0.1986
     85  NE2       22.9090    1.8600   21.5370 N.ar   39  HIS39      -0.2212
     86  N         16.6420   -0.4640   27.0060 N.3    41  ARG41      -0.1231
     87  CA        15.2050   -0.2590   26.7890 C.3    41  ARG41       0.1694
     88  C         14.7330   -0.9900   25.5240 C.2    41  ARG41       0.2592
     89  O         13.7350   -1.7130   25.5540 O.2    41  ARG41      -0.2718
     90  CB        14.8530    1.2260   26.7560 C.3    41  ARG41       0.0321
     91  CG        13.3930    1.5270   26.4520 C.3    41  ARG41       0.0489
     92  CD        13.1110    3.0150   26.6310 C.3    41  ARG41       0.2205
     93  NE        12.8480    3.3480   28.0260 N.pl3  41  ARG41      -0.0865
     94  CZ        12.5950    4.5680   28.4820 C.cat  41  ARG41       0.5346
     95  NH1       12.5600    5.6300   27.6750 N.pl3  41  ARG41       0.1354
     96  NH2       12.3600    4.7260   29.7670 N.pl3  41  ARG41       0.1354
     97  N         15.4710   -0.8280   24.4320 N.am   42  SER42      -0.1952
     98  CA        15.1520   -1.5210   23.1860 C.3    42  SER42       0.1924
     99  C         15.2710   -3.0430   23.3240 C.2    42  SER42       0.2314
    100  O         14.4490   -3.7890   22.7730 O.2    42  SER42      -0.2863
    101  CB        16.0410   -1.0450   22.0530 C.3    42  SER42       0.2116
    102  OG        15.3800   -1.2430   20.8150 O.3    42  SER42      -0.2180
    103  N         21.2260    3.5460    5.4280 N.3   202  TYR202     -0.1241
    104  CA        20.2420    3.1920    6.4240 C.3   202  TYR202      0.1605
    105  C         18.7910    3.1400    5.8920 C.2   202  TYR202      0.2264
    106  O         18.1160    2.1100    6.0350 O.2   202  TYR202     -0.2867
    107  CB        20.3020    4.1360    7.6210 C.3   202  TYR202      0.0534
    108  CG        19.2990    3.6950    8.6550 C.ar  202  TYR202     -0.0201
    109  CD1       19.5290    2.5460    9.4390 C.ar  202  TYR202     -0.0009
    110  CD2       18.0750    4.3650    8.8060 C.ar  202  TYR202     -0.0009
    111  CE1       18.5970    2.1200   10.3680 C.ar  202  TYR202      0.0417
    112  CE2       17.1240    3.9280    9.7240 C.ar  202  TYR202      0.0417
    113  CZ        17.3900    2.8130   10.5030 C.ar  202  TYR202      0.1957
    114  OH        16.4530    2.4040   11.4350 O.3   202  TYR202     -0.2866
    115  N         17.4110   -0.7750    6.1880 N.3   206  HIS206     -0.1241
    116  CA        16.6010   -1.1640    7.2990 C.3   206  HIS206      0.1621
    117  C         15.2720   -1.8260    6.8940 C.2   206  HIS206      0.2264
    118  O         15.0070   -2.9490    7.2800 O.2   206  HIS206     -0.2867
    119  CB        16.3780   -0.0130    8.2600 C.3   206  HIS206      0.0745
    120  CG        16.3440   -0.4800    9.6730 C.ar  206  HIS206      0.0817
    121  ND1       17.4940   -0.7180   10.3910 N.ar  206  HIS206     -0.2268
    122  CD2       15.3170   -0.8830   10.4550 C.ar  206  HIS206      0.1154
    123  CE1       17.1710   -1.1840   11.5830 C.ar  206  HIS206      0.1986
    124  NE2       15.8570   -1.3020   11.6420 N.ar  206  HIS206     -0.2212
    125  N         10.2960   -1.7990   15.9530 N.3   219  LEU219     -0.1231
    126  CA        10.3100   -0.7920   17.0250 C.3   219  LEU219      0.1693
    127  C         11.6510   -0.0590   17.1290 C.2   219  LEU219      0.2592
    128  O         12.7210   -0.6730   17.3070 O.2   219  LEU219     -0.2718
    129  CB         9.9730   -1.4360   18.3680 C.3   219  LEU219      0.0284
    130  CG         8.7540   -2.3550   18.3720 C.3   219  LEU219      0.0019
    131  CD1        8.4800   -2.8630   19.7730 C.3   219  LEU219      0.0001
    132  CD2        7.5090   -1.6700   17.8100 C.3   219  LEU219      0.0001
    133  N         11.5710    1.2550   17.0220 N.am  220  CYS220     -0.1956
    134  CA        12.7250    2.1400   17.0940 C.3   220  CYS220      0.1843
    135  C         12.3180    3.4240   17.8290 C.2   220  CYS220      0.2626
    136  O         11.1360    3.6460   18.1020 O.2   220  CYS220     -0.2714
    137  CB        13.2050    2.4490   15.6790 C.3   220  CYS220      0.0997
    138  SG        11.7880    2.6960   14.5860 S.3   220  CYS220     -0.0797
    139  N         13.3070    4.2520   18.1470 N.am  221  THR221     -0.1950
    140  CA        13.1010    5.4440   18.9380 C.3   221  THR221      0.1897
    141  C         12.6370    6.5870   18.0460 C.2   221  THR221      0.2313
    142  O         12.7910    6.5120   16.8210 O.2   221  THR221     -0.2863
    143  CB        14.3910    5.9040   19.5970 C.3   221  THR221      0.1794
    144  OG1       15.3240    6.2310   18.5700 O.3   221  THR221     -0.2208
    145  CG2       14.9770    4.8400   20.5000 C.3   221  THR221      0.0378
    146  N         13.6740    9.4110   17.0210 N.3   223  GLU223     -0.1231
    147  CA        14.5100   10.1190   16.0470 C.3   223  GLU223      0.1699
    148  C         14.0600    9.7800   14.6180 C.2   223  GLU223      0.2592
    149  O         14.0680   10.6380   13.7230 O.2   223  GLU223     -0.2718
    150  CB        15.9950    9.7930   16.2460 C.3   223  GLU223      0.0402
    151  CG        16.5770   10.3510   17.5420 C.3   223  GLU223      0.1161
    152  CD        17.7470    9.5230   18.0640 C.2   223  GLU223      0.3649
    153  OE1       18.6510    9.1880   17.2590 O.co2 223  GLU223     -0.2457
    154  OE2       17.7580    9.2020   19.2790 O.co2 223  GLU223     -0.2457
    155  N         13.6190    8.5380   14.4330 N.am  224  PHE224     -0.1976
    156  CA        13.3080    8.0040   13.1090 C.3   224  PHE224      0.1639
    157  C         11.8230    8.1380   12.7130 C.2   224  PHE224      0.2290
    158  O         11.4250    7.5840   11.6840 O.2   224  PHE224     -0.2864
    159  CB        13.7950    6.5430   13.0030 C.3   224  PHE224      0.0560
    160  CG        15.2800    6.3760   13.2270 C.ar  224  PHE224     -0.0200
    161  CD1       16.1540    7.0460   12.4280 C.ar  224  PHE224     -0.0042
    162  CD2       15.7350    5.6420   14.3150 C.ar  224  PHE224     -0.0042
    163  CE1       17.5290    6.9410   12.6300 C.ar  224  PHE224     -0.0003
    164  CE2       17.0980    5.5640   14.5310 C.ar  224  PHE224     -0.0003
    165  CZ        17.9750    6.2700   13.7000 C.ar  224  PHE224     -0.0000
    166  N          9.0240    4.7560   19.9640 N.3   255  PHE255     -0.1241
    167  CA         8.8790    4.9120   21.3950 C.3   255  PHE255      0.1605
    168  C          9.9660    5.8760   21.8890 C.2   255  PHE255      0.2264
    169  O         10.8630    6.2520   21.1440 O.2   255  PHE255     -0.2867
    170  CB         8.9800    3.5420   22.0860 C.3   255  PHE255      0.0534
    171  CG        10.3220    2.9220   21.9870 C.ar  255  PHE255     -0.0203
    172  CD1       10.6730    2.2120   20.8820 C.ar  255  PHE255     -0.0042
    173  CD2       11.2530    3.0980   22.9880 C.ar  255  PHE255     -0.0042
    174  CE1       11.9340    1.6550   20.7760 C.ar  255  PHE255     -0.0003
    175  CE2       12.5110    2.5480   22.8980 C.ar  255  PHE255     -0.0003
    176  CZ        12.8530    1.8200   21.7930 C.ar  255  PHE255     -0.0000
    177  N         13.1500    7.3950   23.4410 N.3   257  ARG257     -0.1231
    178  CA        14.5600    7.3870   23.8500 C.3   257  ARG257      0.1694
    179  C         14.7270    7.5790   25.3520 C.2   257  ARG257      0.2591
    180  O         14.1140    8.4460   25.9230 O.2   257  ARG257     -0.2718
    181  CB        15.2700    8.5580   23.1140 C.3   257  ARG257      0.0321
    182  CG        16.7850    8.4600   22.8960 C.3   257  ARG257      0.0489
    183  CD        17.4060    9.7620   22.3640 C.3   257  ARG257      0.2205
    184  NE        17.3740   10.8320   23.3670 N.pl3 257  ARG257     -0.0865
    185  CZ        18.1970   10.9350   24.4200 C.cat 257  ARG257      0.5346
    186  NH1       19.1590   10.0350   24.6390 N.pl3 257  ARG257      0.1354
    187  NH2       18.0590   11.9490   25.2720 N.pl3 257  ARG257      0.1354
    188  N         15.5620    6.7730   26.0000 N.am  258  LEU258     -0.1980
    189  CA        15.8770    7.0080   27.4050 C.3   258  LEU258      0.1596
    190  C         17.0190    8.0400   27.5440 C.2   258  LEU258      0.2287
    191  O         17.9990    8.0600   26.7730 O.2   258  LEU258     -0.2864
    192  CB        16.2140    5.7080   28.1300 C.3   258  LEU258      0.0297
    193  CG        16.8260    5.8830   29.5280 C.3   258  LEU258      0.0022
    194  CD1       15.8220    6.5000   30.5040 C.3   258  LEU258      0.0001
    195  CD2       17.3440    4.5580   30.0660 C.3   258  LEU258      0.0001
    196  N         24.8690    9.6590   27.0460 N.3   265  LEU265     -0.1245
    197  CA        24.8370    8.4580   26.2140 C.3   265  LEU265      0.1561
    198  C         25.2020    8.6940   24.7210 C.2   265  LEU265      0.2260
    199  O         25.4060    7.7280   23.9720 O.2   265  LEU265     -0.2867
    200  CB        23.4520    7.8280   26.3250 C.3   265  LEU265      0.0270
    201  CG        22.9630    7.5840   27.7590 C.3   265  LEU265      0.0019
    202  CD1       21.4810    7.2450   27.7570 C.3   265  LEU265      0.0001
    203  CD2       23.7690    6.4900   28.4530 C.3   265  LEU265      0.0001
    204  N         27.2110    8.8360   21.7290 N.3   267  LYS267     -0.1245
    205  CA        28.4590    8.1370   21.4580 C.3   267  LYS267      0.1561
    206  C         29.6240    9.1270   21.4130 C.2   267  LYS267      0.2260
    207  O         30.6090    8.9550   22.1300 O.2   267  LYS267     -0.2867
    208  CB        28.3680    7.3310   20.1580 C.3   267  LYS267      0.0271
    209  CG        29.3780    6.1900   20.0800 C.3   267  LYS267      0.0035
    210  CD        30.0770    6.1180   18.7250 C.3   267  LYS267      0.0206
    211  CE        29.1420    5.7030   17.5920 C.3   267  LYS267      0.1093
    212  NZ        29.8210    5.7810   16.2600 N.3   267  LYS267     -0.1314
@<TRIPOS>BOND
     1   103   104    1
     2   105   106    2
     3   105   104    1
     4   115   116    1
     5   104   107    1
     6   117   118    2
     7   117   116    1
     8   116   119    1
     9   107   108    1
    10   119   120    1
    11   108   110   ar
    12   108   109   ar
    13   110   112   ar
    14   109   111   ar
    15   120   121   ar
    16   120   122   ar
    17   112   113   ar
    18   111   113   ar
    19   121   123   ar
    20   122   124   ar
    21   113   114    1
    22   123   124   ar
    23    45    43   ar
    24   158   157    2
    25   161   163   ar
    26   161   160   ar
    27    43    44   ar
    28    43    42    1
    29   163   165   ar
    30   157   156    1
    31   159   156    1
    32   159   160    1
    33   156   155    1
    34    42    41    1
    35   160   162   ar
    36     8     7    1
    37     8     9    2
    38   165   164   ar
    39   149   148    2
    40    11     9    1
    41     7     6    1
    42    41    38    1
    43     9    10    1
    44   162   164   ar
    45     6     5    1
    46    27    28    1
    47    27    24    1
    48   155   148   am
    49   138   137    1
    50   148   147    1
    51    38    39    1
    52    38    37    1
    53     5     2    1
    54    26    25    2
    55    53    51   am
    56    50    51    1
    57    50    47    1
    58    28    29    1
    59    33    32    2
    60    51    52    2
    61    24    25    1
    62    24    23    1
    63    39    40    2
    64    37    32   am
    65    25    30   am
    66   137   134    1
    67    32    31    1
    68   125   126    1
    69    47    46    1
    70    47    48    1
    71   147   150    1
    72   147   146    1
    73     2     1    1
    74     2     3    1
    75   150   151    1
    76   212   211    1
    77    29    23    1
    78    30    31    1
    79    30    36    1
    80    23    14   am
    81    31    34    1
    82    15    14    2
    83   142   141    2
    84   133   134    1
    85   133   127   am
    86     3     4    2
    87     3    12   am
    88   126   127    1
    89   126   129    1
    90    14    13    1
    91   134   135    1
    92   127   128    2
    93   153   152   ar
    94    36    35    1
    95    48    49    2
    96    12    13    1
    97   151   152    1
    98   211   210    1
    99   132   130    1
   100   135   136    2
   101   135   139   am
   102    35    34    1
   103   141   140    1
   104   152   154   ar
   105    13    16    1
   106   139   140    1
   107   129   130    1
   108   130   131    1
   109   144   143    1
   110   210   209    1
   111   140   143    1
   112    16    17    1
   113   143   145    1
   114   166   167    1
   115    17    18   ar
   116    17    19   ar
   117   209   208    1
   118   208   205    1
   119    18    20   ar
   120    19    21   ar
   121    20    22   ar
   122   174   172   ar
   123   174   176   ar
   124   102   101    1
   125   172   171   ar
   126    21    22   ar
   127   169   168    2
   128   167   168    1
   129   167   170    1
   130   206   205    1
   131   206   207    2
   132   205   204    1
   133    85    83   ar
   134    85    84   ar
   135   176   175   ar
   136    83    81   ar
   137   171   170    1
   138   171   173   ar
   139   101    98    1
   140    61    59    1
   141   183   182    1
   142   183   184    1
   143    84    82   ar
   144   100    99    2
   145   182   181    1
   146   175   173   ar
   147    81    82   ar
   148    81    80    1
   149    59    60    1
   150    59    58    1
   151   181   178    1
   152    98    99    1
   153    98    97    1
   154   184   185    2
   155   177   178    1
   156   178   179    1
   157    80    77    1
   158   199   198    2
   159    54    55    1
   160    71    70   ar
   161    71    69   ar
   162    55    58    1
   163    55    56    1
   164   185   186    1
   165   185   187    1
   166    97    88   am
   167    77    78    1
   168    77    76    1
   169    79    78    2
   170   198   197    1
   171    70    68   ar
   172    69    67   ar
   173    76    74   am
   174   179   180    2
   175   179   188   am
   176    88    89    2
   177    88    87    1
   178    56    62   am
   179    56    57    2
   180    68    67   ar
   181    62    63    1
   182    67    66    1
   183    75    74    2
   184    74    73    1
   185   188   189    1
   186   197   200    1
   187   197   196    1
   188   200   201    1
   189    91    92    1
   190    91    90    1
   191    92    93    1
   192    90    87    1
   193   191   190    2
   194    73    72    1
   195    87    86    1
   196    66    63    1
   197    65    64    2
   198    63    64    1
   199   189   190    1
   200   189   192    1
   201    95    94    1
   202   202   201    1
   203   201   203    1
   204    93    94    2
   205   192   193    1
   206    94    96    1
   207   193   195    1
   208   193   194    1
