@<TRIPOS>MOLECULE
tmp/5zdnA00.pdb
 130 130 0 0 0
SMALL
GASTEIGER

@<TRIPOS>ATOM
      1  N         24.3430    1.8700   38.4110 N.3    44  LEU44      -0.1245
      2  CA        23.5940    2.0200   37.1900 C.3    44  LEU44       0.1561
      3  C         23.4800    0.6780   36.5560 C.2    44  LEU44       0.2260
      4  O         24.5040    0.0300   36.2720 O.2    44  LEU44      -0.2867
      5  CB        24.3260    2.9440   36.2450 C.3    44  LEU44       0.0270
      6  CG        24.8250    4.2770   36.7530 C.3    44  LEU44       0.0019
      7  CD1       25.5740    5.0000   35.6540 C.3    44  LEU44       0.0001
      8  CD2       23.7090    5.1430   37.2260 C.3    44  LEU44       0.0001
      9  N         24.7520    5.5210   26.5310 N.3    57  PRO57      -0.2102
     10  CA        25.9390    6.3500   26.5360 C.3    57  PRO57       0.1504
     11  C         26.6300    6.4130   27.9270 C.2    57  PRO57       0.2575
     12  O         27.8570    6.5020   27.9830 O.2    57  PRO57      -0.2718
     13  CB        25.4390    7.7210   25.9940 C.3    57  PRO57       0.0282
     14  CG        23.9010    7.7200   26.1220 C.3    57  PRO57       0.0208
     15  CD        23.5070    6.2540   26.1800 C.3    57  PRO57       0.0893
     16  N         25.9100    6.2470   29.0450 N.am   58  TRP58      -0.1977
     17  CA        26.6260    6.3170   30.3470 C.3    58  TRP58       0.1640
     18  C         27.5640    5.1830   30.7260 C.2    58  TRP58       0.2290
     19  O         28.3150    5.3200   31.7290 O.2    58  TRP58      -0.2864
     20  CB        25.6320    6.6150   31.4910 C.3    58  TRP58       0.0576
     21  CG        25.0870    7.9980   31.5080 C.ar   58  TRP58       0.0006
     22  CD1       25.4100    9.0390   30.7030 C.ar   58  TRP58       0.0946
     23  CD2       24.1380    8.5050   32.4490 C.ar   58  TRP58       0.0152
     24  NE1       24.7360   10.1670   31.1060 N.ar   58  TRP58      -0.2442
     25  CE2       23.9600    9.8660   32.1780 C.ar   58  TRP58       0.0810
     26  CE3       23.4570    7.9430   33.5080 C.ar   58  TRP58       0.0012
     27  CZ2       23.0490   10.6620   32.8900 C.ar   58  TRP58       0.0191
     28  CZ3       22.5910    8.7480   34.2460 C.ar   58  TRP58       0.0001
     29  CH2       22.4140   10.0700   33.9450 C.ar   58  TRP58       0.0015
     30  N         30.2320    4.5500   29.1560 N.3    60  LEU60      -0.1231
     31  CA        31.5970    5.1270   29.1080 C.3    60  LEU60       0.1693
     32  C         32.2300    5.2810   30.5000 C.2    60  LEU60       0.2592
     33  O         33.4800    5.0130   30.7460 O.2    60  LEU60      -0.2718
     34  CB        31.5420    6.4580   28.4180 C.3    60  LEU60       0.0284
     35  CG        32.8110    7.3750   28.4150 C.3    60  LEU60       0.0019
     36  CD1       33.9330    6.8250   27.5620 C.3    60  LEU60       0.0001
     37  CD2       32.4250    8.7640   27.8810 C.3    60  LEU60       0.0001
     38  N         31.4090    5.7600   31.4210 N.am   61  PHE61      -0.1962
     39  CA        31.8190    5.9990   32.7900 C.3    61  PHE61       0.1771
     40  C         31.7770    4.7480   33.7100 C.2    61  PHE61       0.2620
     41  O         32.1620    4.8200   34.8630 O.2    61  PHE61      -0.2715
     42  CB        30.9670    7.1470   33.4040 C.3    61  PHE61       0.0574
     43  CG        31.4170    8.5380   33.0330 C.ar   61  PHE61      -0.0200
     44  CD1       31.0200    9.1110   31.8430 C.ar   61  PHE61      -0.0042
     45  CD2       32.2470    9.2700   33.8690 C.ar   61  PHE61      -0.0042
     46  CE1       31.3740   10.3720   31.4990 C.ar   61  PHE61      -0.0003
     47  CE2       32.6050   10.5790   33.5350 C.ar   61  PHE61      -0.0003
     48  CZ        32.1830   11.1180   32.3330 C.ar   61  PHE61      -0.0000
     49  N         31.2990    3.6100   33.2210 N.am   62  GLY62      -0.1954
     50  CA        31.1170    2.4120   34.0450 C.3    62  GLY62       0.1869
     51  C         29.7660    2.2520   34.6950 C.2    62  GLY62       0.2309
     52  O         28.7390    2.8190   34.2600 O.2    62  GLY62      -0.2863
     53  N         28.6800    2.8850   37.8950 N.3    64  ARG64      -0.1231
     54  CA        28.2410    3.7330   38.9590 C.3    64  ARG64       0.1694
     55  C         28.1740    5.1940   38.5520 C.2    64  ARG64       0.2592
     56  O         28.9730    5.6800   37.6580 O.2    64  ARG64      -0.2718
     57  CB        29.0750    3.4920   40.2100 C.3    64  ARG64       0.0321
     58  CG        30.4430    4.1320   40.1410 C.3    64  ARG64       0.0489
     59  CD        31.4740    3.4780   41.0740 C.3    64  ARG64       0.2205
     60  NE        31.3740    3.8930   42.4740 N.pl3  64  ARG64      -0.0865
     61  CZ        31.7480    5.0700   42.9710 C.cat  64  ARG64       0.5346
     62  NH1       32.2380    6.0200   42.1750 N.pl3  64  ARG64       0.1354
     63  NH2       31.6210    5.3000   44.2900 N.pl3  64  ARG64       0.1354
     64  N         27.2760    5.9160   39.2570 N.am   65  TRP65      -0.1962
     65  CA        27.1580    7.3860   39.1520 C.3    65  TRP65       0.1771
     66  C         28.3800    8.0100   39.7600 C.2    65  TRP65       0.2620
     67  O         28.5050    8.0200   40.9880 O.2    65  TRP65      -0.2715
     68  CB        25.9350    7.9430   39.8770 C.3    65  TRP65       0.0590
     69  CG        25.7420    9.4340   39.6100 C.ar   65  TRP65       0.0006
     70  CD1       25.8160   10.4100   40.5190 C.ar   65  TRP65       0.0946
     71  CD2       25.4660   10.0740   38.3330 C.ar   65  TRP65       0.0152
     72  NE1       25.6160   11.6260   39.9170 N.ar   65  TRP65      -0.2442
     73  CE2       25.3970   11.4370   38.5680 C.ar   65  TRP65       0.0810
     74  CE3       25.3010    9.6030   37.0150 C.ar   65  TRP65       0.0012
     75  CZ2       25.1220   12.3930   37.5240 C.ar   65  TRP65       0.0191
     76  CZ3       25.1060   10.4920   36.0040 C.ar   65  TRP65       0.0001
     77  CH2       24.9610   11.8970   36.2610 C.ar   65  TRP65       0.0015
     78  N         29.2890    8.4710   38.8990 N.am   66  GLN66      -0.1963
     79  CA        30.6410    8.9970   39.2970 C.3    66  GLN66       0.1733
     80  C         30.6900   10.4490   39.7830 C.2    66  GLN66       0.2617
     81  O         31.5100   10.7860   40.5990 O.2    66  GLN66      -0.2715
     82  CB        31.6260    8.8740   38.1390 C.3    66  GLN66       0.0408
     83  CG        31.6970    7.4840   37.5390 C.3    66  GLN66       0.0908
     84  CD        32.3450    6.4680   38.4380 C.2    66  GLN66       0.2608
     85  OE1       32.6520    6.7230   39.5910 O.2    66  GLN66      -0.2717
     86  NE2       32.6110    5.3110   37.8800 N.am   66  GLN66      -0.0878
     87  N         29.7940   11.2970   39.3040 N.am   67  SER67      -0.1950
     88  CA        29.7810   12.7010   39.6750 C.3    67  SER67       0.1924
     89  C         29.2160   12.9370   41.1100 C.2    67  SER67       0.2314
     90  O         28.9770   11.9770   41.8940 O.2    67  SER67      -0.2863
     91  CB        28.9210   13.4490   38.6510 C.3    67  SER67       0.2116
     92  OG        29.3610   14.7730   38.5180 O.3    67  SER67      -0.2180
     93  N         20.6460   21.6370   34.4950 N.3    97  TYR97      -0.1241
     94  CA        20.5720   20.8360   33.2840 C.3    97  TYR97       0.1605
     95  C         19.1230   20.3530   32.9560 C.2    97  TYR97       0.2264
     96  O         18.6030   19.4420   33.5970 O.2    97  TYR97      -0.2867
     97  CB        21.4130   19.6370   33.4950 C.3    97  TYR97       0.0534
     98  CG        21.7010   18.8550   32.2400 C.ar   97  TYR97      -0.0201
     99  CD1       20.9100   17.7940   31.8410 C.ar   97  TYR97      -0.0009
    100  CD2       22.8140   19.1360   31.5020 C.ar   97  TYR97      -0.0009
    101  CE1       21.2780   17.0160   30.7340 C.ar   97  TYR97       0.0417
    102  CE2       23.1370   18.3990   30.3840 C.ar   97  TYR97       0.0417
    103  CZ        22.3630   17.3500   30.0170 C.ar   97  TYR97       0.1957
    104  OH        22.7500   16.6850   28.9030 O.3    97  TYR97      -0.2866
    105  N         22.2710   22.2990   23.9180 N.3   132  LYS132     -0.1231
    106  CA        23.2240   21.2180   23.8230 C.3   132  LYS132      0.1693
    107  C         22.6200   20.1120   22.9940 C.2   132  LYS132      0.2592
    108  O         21.4150   19.7540   23.1890 O.2   132  LYS132     -0.2718
    109  CB        23.5310   20.7160   25.2230 C.3   132  LYS132      0.0285
    110  CG        24.2380   19.3560   25.2710 C.3   132  LYS132      0.0035
    111  CD        25.0170   19.2080   26.5840 C.3   132  LYS132      0.0206
    112  CE        25.5640   17.8250   26.8150 C.3   132  LYS132      0.1093
    113  NZ        24.6820   16.6280   26.7990 N.3   132  LYS132     -0.1314
    114  N         23.4240   19.5380   22.1200 N.am  133  ASP133     -0.1974
    115  CA        23.0480   18.3590   21.3620 C.3   133  ASP133      0.1709
    116  C         21.8550   18.5900   20.3690 C.2   133  ASP133      0.2293
    117  O         21.2180   17.6310   19.9790 O.2   133  ASP133     -0.2864
    118  CB        22.6310   17.1860   22.2640 C.3   133  ASP133      0.1436
    119  CG        23.7960   16.6180   23.1040 C.2   133  ASP133      0.3671
    120  OD1       24.9320   16.8490   22.7050 O.co2 133  ASP133     -0.2456
    121  OD2       23.5680   15.9060   24.1090 O.co2 133  ASP133     -0.2456
    122  N         23.0820   16.9410   16.9510 N.3   136  LYS136     -0.1245
    123  CA        23.0510   15.5060   17.3020 C.3   136  LYS136      0.1561
    124  C         21.5950   14.9560   17.2740 C.2   136  LYS136      0.2260
    125  O         21.3110   13.9570   16.6020 O.2   136  LYS136     -0.2867
    126  CB        23.6570   15.2560   18.6650 C.3   136  LYS136      0.0271
    127  CG        23.8170   13.7840   19.0280 C.3   136  LYS136      0.0035
    128  CD        24.6480   13.6860   20.2940 C.3   136  LYS136      0.0206
    129  CE        24.8410   12.2730   20.9040 C.3   136  LYS136      0.1093
    130  NZ        26.0240   12.2200   21.9100 N.3   136  LYS136     -0.1314
@<TRIPOS>BOND
     1   125   124    2
     2   122   123    1
     3   124   123    1
     4   123   126    1
     5   126   127    1
     6   127   128    1
     7   117   116    2
     8   128   129    1
     9   116   115    1
    10   129   130    1
    11   115   114    1
    12   115   118    1
    13   114   107   am
    14   118   119    1
    15   120   119   ar
    16   107   108    2
    17   107   106    1
    18   119   121   ar
    19   106   105    1
    20   106   109    1
    21   109   110    1
    22   110   111    1
    23    13    14    1
    24    13    10    1
    25    14    15    1
    26    15     9    1
    27     9    10    1
    28    10    11    1
    29   111   112    1
    30   113   112    1
    31    36    35    1
    32    37    35    1
    33    11    12    2
    34    11    16   am
    35    35    34    1
    36    34    31    1
    37   104   103    1
    38    16    17    1
    39    31    30    1
    40    31    32    1
    41   103   102   ar
    42   103   101   ar
    43    17    18    1
    44    17    20    1
    45   102   100   ar
    46    32    33    2
    47    32    38   am
    48    22    24   ar
    49    22    21   ar
    50    18    19    2
    51   101    99   ar
    52    24    25   ar
    53    38    39    1
    54    20    21    1
    55    46    44   ar
    56    46    48   ar
    57   100    98   ar
    58    21    23   ar
    59    99    98   ar
    60    44    43   ar
    61    25    23   ar
    62    25    27   ar
    63    98    97    1
    64    48    47   ar
    65    23    26   ar
    66    39    42    1
    67    39    40    1
    68    27    29   ar
    69    95    94    1
    70    95    96    2
    71    43    42    1
    72    43    45   ar
    73    49    40   am
    74    49    50    1
    75    94    97    1
    76    94    93    1
    77    26    28   ar
    78    47    45   ar
    79    40    41    2
    80    29    28   ar
    81    50    51    1
    82    52    51    2
    83     7     6    1
    84    76    77   ar
    85    76    74   ar
    86     5     6    1
    87     5     2    1
    88    77    75   ar
    89     4     3    2
    90     3     2    1
    91     6     8    1
    92    74    71   ar
    93     2     1    1
    94    75    73   ar
    95    83    82    1
    96    83    84    1
    97    56    55    2
    98    86    84   am
    99    53    54    1
   100    82    79    1
   101    71    73   ar
   102    71    69   ar
   103    84    85    2
   104    92    91    1
   105    55    54    1
   106    55    64   am
   107    73    72   ar
   108    91    88    1
   109    78    79    1
   110    78    66   am
   111    54    57    1
   112    65    64    1
   113    65    66    1
   114    65    68    1
   115    79    80    1
   116    87    88    1
   117    87    80   am
   118    69    68    1
   119    69    70   ar
   120    88    89    1
   121    66    67    2
   122    80    81    2
   123    72    70   ar
   124    58    57    1
   125    58    59    1
   126    59    60    1
   127    89    90    2
   128    62    61    1
   129    60    61    2
   130    61    63    1
