@<TRIPOS>MOLECULE
tmp/5zdpC00.pdb
 208 197 0 0 0
SMALL
GASTEIGER

@<TRIPOS>ATOM
      1  N        208.2990   -2.6490  123.0550 N.3    62  VAL62      -0.1245
      2  CA       208.7010   -1.6200  122.0830 C.3    62  VAL62       0.1561
      3  C        210.1920   -1.7190  121.6940 C.2    62  VAL62       0.2260
      4  O        210.5130   -1.7080  120.5020 O.2    62  VAL62      -0.2867
      5  CB       208.3670   -0.1930  122.5810 C.3    62  VAL62       0.0252
      6  CG1      208.9390    0.8640  121.6470 C.3    62  VAL62       0.0019
      7  CG2      206.8610   -0.0220  122.7020 C.3    62  VAL62       0.0019
      8  N        210.3930   -4.6390  119.5870 N.3    65  CYS65      -0.1221
      9  CA       209.7700   -4.2980  118.2980 C.3    65  CYS65       0.1808
     10  C        210.6750   -3.4050  117.4410 C.2    65  CYS65       0.2601
     11  O        210.7940   -3.6320  116.2360 O.2    65  CYS65      -0.2717
     12  CB       208.3980   -3.6280  118.4720 C.3    65  CYS65       0.0970
     13  SG       206.9790   -4.7600  118.5470 S.3    65  CYS65      -0.0800
     14  N        211.3150   -2.4020  118.0450 N.am   66  ARG66      -0.1979
     15  CA       212.1850   -1.5050  117.2750 C.3    66  ARG66       0.1597
     16  C        213.4180   -2.2090  116.7250 C.2    66  ARG66       0.2287
     17  O        213.7020   -2.1200  115.5320 O.2    66  ARG66      -0.2864
     18  CB       212.6090   -0.2620  118.0660 C.3    66  ARG66       0.0334
     19  CG       213.5530    0.6130  117.2420 C.3    66  ARG66       0.0492
     20  CD       213.5140    2.0960  117.5670 C.3    66  ARG66       0.2205
     21  NE       213.9720    2.8730  116.4120 N.pl3  66  ARG66      -0.0865
     22  CZ       213.8740    4.1950  116.2860 C.cat  66  ARG66       0.5346
     23  NH1      213.3380    4.9340  117.2520 N.pl3  66  ARG66       0.1354
     24  NH2      214.3210    4.7850  115.1790 N.pl3  66  ARG66       0.1354
     25  N        212.2390   -4.3790  113.9050 N.3    69  PHE69      -0.1241
     26  CA       211.7830   -3.5790  112.7690 C.3    69  PHE69       0.1605
     27  C        212.9500   -2.8320  112.0950 C.2    69  PHE69       0.2264
     28  O        213.0240   -2.7930  110.8630 O.2    69  PHE69      -0.2867
     29  CB       210.6820   -2.6060  113.2440 C.3    69  PHE69       0.0534
     30  CG       210.1120   -1.7250  112.1580 C.ar   69  PHE69      -0.0203
     31  CD1      208.9710   -2.0990  111.4660 C.ar   69  PHE69      -0.0042
     32  CD2      210.7100   -0.5090  111.8440 C.ar   69  PHE69      -0.0042
     33  CE1      208.4480   -1.2890  110.4670 C.ar   69  PHE69      -0.0003
     34  CE2      210.1930    0.3030  110.8470 C.ar   69  PHE69      -0.0003
     35  CZ       209.0590   -0.0860  110.1580 C.ar   69  PHE69      -0.0000
     36  N        209.2890    4.2180  105.7230 N.3    88  ARG88      -0.1231
     37  CA       209.2290    3.7780  107.1260 C.3    88  ARG88       0.1694
     38  C        208.0920    4.4470  107.9030 C.2    88  ARG88       0.2592
     39  O        207.4310    3.7970  108.7120 O.2    88  ARG88      -0.2718
     40  CB       210.5530    4.0810  107.8420 C.3    88  ARG88       0.0321
     41  CG       210.5880    3.7110  109.3270 C.3    88  ARG88       0.0489
     42  CD       211.5610    4.5840  110.1160 C.3    88  ARG88       0.2205
     43  NE       211.6510    4.1960  111.5210 N.pl3  88  ARG88      -0.0865
     44  CZ       212.3320    3.1430  111.9710 C.cat  88  ARG88       0.5346
     45  NH1      213.0000    2.3430  111.1300 N.pl3  88  ARG88       0.1354
     46  NH2      212.3420    2.8760  113.2740 N.pl3  88  ARG88       0.1354
     47  N        207.8860    5.7440  107.6770 N.am   89  CYS89      -0.1970
     48  CA       206.9210    6.5170  108.4540 C.3    89  CYS89       0.1712
     49  C        205.5060    6.1640  108.0230 C.2    89  CYS89       0.2296
     50  O        204.6140    5.9720  108.8510 O.2    89  CYS89      -0.2864
     51  CB       207.1650    8.0200  108.2760 C.3    89  CYS89       0.0983
     52  SG       208.7390    8.6070  108.9410 S.3    89  CYS89      -0.0798
     53  N        204.4090    3.3490  106.7680 N.3    91  PHE91      -0.1227
     54  CA       204.0650    2.0760  107.3900 C.3    91  PHE91       0.1736
     55  C        203.5660    2.3140  108.8160 C.2    91  PHE91       0.2595
     56  O        202.4370    1.9800  109.1410 O.2    91  PHE91      -0.2718
     57  CB       205.2870    1.1280  107.4000 C.3    91  PHE91       0.0547
     58  CG       205.0000   -0.2210  107.9970 C.ar   91  PHE91      -0.0202
     59  CD1      205.1500   -0.4390  109.3550 C.ar   91  PHE91      -0.0042
     60  CD2      204.5650   -1.2690  107.2030 C.ar   91  PHE91      -0.0042
     61  CE1      204.8700   -1.6840  109.9160 C.ar   91  PHE91      -0.0003
     62  CE2      204.2920   -2.5180  107.7510 C.ar   91  PHE91      -0.0003
     63  CZ       204.4360   -2.7260  109.1120 C.ar   91  PHE91      -0.0000
     64  N        204.4180    2.9110  109.6430 N.am   92  LEU92      -0.1966
     65  CA       204.1620    3.0670  111.0770 C.3    92  LEU92       0.1728
     66  C        202.9520    3.9580  111.4180 C.2    92  LEU92       0.2616
     67  O        202.3120    3.7470  112.4550 O.2    92  LEU92      -0.2715
     68  CB       205.4370    3.5730  111.7870 C.3    92  LEU92       0.0311
     69  CG       206.6340    2.6010  111.7560 C.3    92  LEU92       0.0022
     70  CD1      207.9130    3.2510  112.2650 C.3    92  LEU92       0.0001
     71  CD2      206.3560    1.3210  112.5400 C.3    92  LEU92       0.0001
     72  N        202.6170    4.9200  110.5510 N.am   93  GLU93      -0.1977
     73  CA       201.3800    5.6910  110.7330 C.3    93  GLU93       0.1602
     74  C        200.0810    4.8810  110.5100 C.2    93  GLU93       0.2287
     75  O        198.9950    5.3480  110.8740 O.2    93  GLU93      -0.2864
     76  CB       201.3490    6.9620  109.8550 C.3    93  GLU93       0.0415
     77  CG       202.4000    8.0320  110.1570 C.3    93  GLU93       0.1163
     78  CD       202.5440    8.3910  111.6300 C.2    93  GLU93       0.3649
     79  OE1      203.0990    9.4710  111.9120 O.co2  93  GLU93      -0.2457
     80  OE2      202.1410    7.5990  112.5190 O.co2  93  GLU93      -0.2457
     81  N        199.6060    1.8420  111.8320 N.3    95  VAL95      -0.1231
     82  CA       199.4260    1.2150  113.1260 C.3    95  VAL95       0.1692
     83  C        199.1570    2.2810  114.1800 C.2    95  VAL95       0.2591
     84  O        198.3080    2.1100  115.0560 O.2    95  VAL95      -0.2718
     85  CB       200.6960    0.4460  113.5280 C.3    95  VAL95       0.0266
     86  CG1      200.4470   -0.3570  114.7950 C.3    95  VAL95       0.0020
     87  CG2      201.1740   -0.4460  112.3740 C.3    95  VAL95       0.0020
     88  N        199.8980    3.3820  114.0930 N.am   96  ALA96      -0.1980
     89  CA       199.7030    4.5130  114.9920 C.3    96  ALA96       0.1597
     90  C        198.2390    5.0030  114.9940 C.2    96  ALA96       0.2287
     91  O        197.7000    5.4110  116.0240 O.2    96  ALA96      -0.2864
     92  CB       200.6540    5.6430  114.6120 C.3    96  ALA96       0.0319
     93  N        197.0450   10.8140  113.8090 N.3   132  GLU132     -0.1245
     94  CA       197.9670    9.8630  113.2120 C.3   132  GLU132      0.1567
     95  C        197.4930    9.5640  111.7770 C.2   132  GLU132      0.2260
     96  O        198.2930    9.5350  110.8450 O.2   132  GLU132     -0.2867
     97  CB       198.0940    8.6150  114.0880 C.3   132  GLU132      0.0388
     98  CG       198.6370    8.8770  115.5000 C.3   132  GLU132      0.1160
     99  CD       200.1700    8.8190  115.6160 C.2   132  GLU132      0.3649
    100  OE1      200.8720    8.7130  114.5780 O.co2 132  GLU132     -0.2457
    101  OE2      200.6990    8.8880  116.7580 O.co2 132  GLU132     -0.2457
    102  N        201.8280   -5.5800  102.8750 N.3   152  SER152     -0.1217
    103  CA       202.3180   -5.7400  104.2020 C.3   152  SER152      0.1889
    104  C        201.4720   -5.0100  105.1870 C.2   152  SER152      0.2288
    105  O        201.2260   -5.5180  106.2250 O.2   152  SER152     -0.2866
    106  CB       203.7590   -5.3090  104.3220 C.3   152  SER152      0.2089
    107  OG       204.3120   -5.8170  105.5040 O.3   152  SER152     -0.2183
    108  N        197.9660   -6.8660  106.2890 N.3   155  ILE155     -0.1231
    109  CA       198.0590   -7.9490  107.2180 C.3   155  ILE155      0.1692
    110  C        198.3280   -7.4430  108.6180 C.2   155  ILE155      0.2592
    111  O        197.8240   -7.9490  109.5690 O.2   155  ILE155     -0.2718
    112  CB       198.9320   -9.1030  106.6770 C.3   155  ILE155      0.0266
    113  CG1      199.9910   -9.5320  107.6690 C.3   155  ILE155      0.0019
    114  CG2      199.5110   -8.7430  105.3360 C.3   155  ILE155      0.0020
    115  CD1      199.5620   -9.3720  109.0980 C.3   155  ILE155      0.0001
    116  N        199.1240   -6.4080  108.7060 N.am  156  THR156     -0.1953
    117  CA       199.5320   -5.8190  109.9490 C.3   156  THR156      0.1897
    118  C        198.3860   -5.2550  110.7250 C.2   156  THR156      0.2313
    119  O        198.3350   -5.3340  111.9290 O.2   156  THR156     -0.2863
    120  CB       200.5000   -4.6950  109.6450 C.3   156  THR156      0.1794
    121  OG1      201.1550   -5.0100  108.4490 O.3   156  THR156     -0.2208
    122  CG2      201.5340   -4.6000  110.6520 C.3   156  THR156      0.0378
    123  N        196.4860   -7.8990  112.5940 N.3   159  ILE159     -0.1231
    124  CA       197.1570   -8.3990  113.7690 C.3   159  ILE159      0.1692
    125  C        197.1920   -7.4610  114.9390 C.2   159  ILE159      0.2591
    126  O        197.1150   -7.8440  116.0730 O.2   159  ILE159     -0.2718
    127  CB       198.5760   -8.8260  113.4350 C.3   159  ILE159      0.0266
    128  CG1      198.5320   -9.8930  112.3700 C.3   159  ILE159      0.0019
    129  CG2      199.2580   -9.3320  114.6770 C.3   159  ILE159      0.0020
    130  CD1      199.8810  -10.3210  111.8990 C.3   159  ILE159      0.0001
    131  N        197.3920   -6.2130  114.6310 N.am  160  MET160     -0.1979
    132  CA       197.5970   -5.1920  115.6480 C.3   160  MET160      0.1605
    133  C        196.2680   -4.7990  116.2690 C.2   160  MET160      0.2287
    134  O        196.1560   -4.7400  117.5050 O.2   160  MET160     -0.2864
    135  CB       198.3430   -3.9790  115.0770 C.3   160  MET160      0.0413
    136  CG       199.8380   -4.2290  114.8370 C.3   160  MET160      0.0598
    137  SD       200.7960   -4.5700  116.3410 S.3   160  MET160     -0.1393
    138  CE       200.5750   -3.0460  117.2740 C.3   160  MET160      0.0692
    139  N        202.6240    1.3660  126.4930 N.3   178  PHE178     -0.1241
    140  CA       203.1440    0.9080  125.2220 C.3   178  PHE178      0.1605
    141  C        202.9030    1.9080  124.0850 C.2   178  PHE178      0.2264
    142  O        203.5210    1.7960  123.0280 O.2   178  PHE178     -0.2867
    143  CB       202.4900   -0.4450  124.8950 C.3   178  PHE178      0.0534
    144  CG       202.8920   -1.0150  123.5730 C.ar  178  PHE178     -0.0203
    145  CD1      204.0030   -1.8190  123.4680 C.ar  178  PHE178     -0.0042
    146  CD2      202.1390   -0.7600  122.4400 C.ar  178  PHE178     -0.0042
    147  CE1      204.3690   -2.3480  122.2490 C.ar  178  PHE178     -0.0003
    148  CE2      202.4960   -1.2870  121.2140 C.ar  178  PHE178     -0.0003
    149  CZ       203.6160   -2.0800  121.1170 C.ar  178  PHE178     -0.0000
    150  N        206.2580    3.8640  122.4340 N.3   182  LEU182     -0.1231
    151  CA       206.2790    4.0250  120.9700 C.3   182  LEU182      0.1693
    152  C        206.4810    5.4870  120.5750 C.2   182  LEU182      0.2591
    153  O        207.1980    5.7890  119.6250 O.2   182  LEU182     -0.2718
    154  CB       204.9730    3.5490  120.3050 C.3   182  LEU182      0.0284
    155  CG       204.7320    2.0780  119.9290 C.3   182  LEU182      0.0019
    156  CD1      203.4590    1.9740  119.0840 C.3   182  LEU182      0.0001
    157  CD2      205.8980    1.4540  119.1800 C.3   182  LEU182      0.0001
    158  N        205.8290    6.3900  121.2910 N.am  183  GLU183     -0.1979
    159  CA       205.8550    7.7870  120.9400 C.3   183  GLU183      0.1602
    160  C        207.1380    8.4920  121.4410 C.2   183  GLU183      0.2287
    161  O        207.5280    9.5370  120.8950 O.2   183  GLU183     -0.2864
    162  CB       204.5690    8.4720  121.4330 C.3   183  GLU183      0.0415
    163  CG       203.2710    7.9030  120.8540 C.3   183  GLU183      0.1163
    164  CD       203.0650    8.2110  119.3780 C.2   183  GLU183      0.3649
    165  OE1      203.9390    7.8280  118.5720 O.co2 183  GLU183     -0.2457
    166  OE2      202.0140    8.8040  119.0050 O.co2 183  GLU183     -0.2457
    167  N        209.8240    6.8410  120.8640 N.3   185  GLU185     -0.1231
    168  CA       210.5950    6.4180  119.7110 C.3   185  GLU185      0.1699
    169  C        210.3490    7.2820  118.4630 C.2   185  GLU185      0.2592
    170  O        211.2680    7.4830  117.6550 O.2   185  GLU185     -0.2718
    171  CB       210.3410    4.9340  119.4040 C.3   185  GLU185      0.0402
    172  CG       210.8920    3.9630  120.4420 C.3   185  GLU185      0.1161
    173  CD       212.4060    3.9200  120.4790 C.2   185  GLU185      0.3649
    174  OE1      213.0530    4.5000  119.5900 O.co2 185  GLU185     -0.2457
    175  OE2      212.9660    3.3020  121.4030 O.co2 185  GLU185     -0.2457
    176  N        209.1250    7.7820  118.2990 N.am  186  ALA186     -0.1980
    177  CA       208.7880    8.6230  117.1490 C.3   186  ALA186      0.1597
    178  C        209.3100   10.0540  117.2900 C.2   186  ALA186      0.2287
    179  O        209.5440   10.7350  116.2880 O.2   186  ALA186     -0.2864
    180  CB       207.2900    8.6350  116.9370 C.3   186  ALA186      0.0319
    181  N        212.8810    9.3790  116.3760 N.3   189  THR189     -0.1203
    182  CA       212.9100    9.1450  114.9520 C.3   189  THR189      0.1994
    183  C        212.6680   10.3930  114.1320 C.2   189  THR189      0.2617
    184  O        213.3070   10.5730  113.0810 O.2   189  THR189     -0.2717
    185  CB       211.8490    8.1040  114.5640 C.3   189  THR189      0.1784
    186  OG1      212.2020    6.8510  115.1630 O.3   189  THR189     -0.2211
    187  CG2      211.7250    7.9670  113.0270 C.3   189  THR189      0.0376
    188  N        211.7430   11.2410  114.5720 N.am  190  TYR190     -0.1975
    189  CA       211.4750   12.4880  113.8360 C.3   190  TYR190      0.1639
    190  C        212.5420   13.5500  114.0650 C.2   190  TYR190      0.2290
    191  O        212.8650   14.3010  113.1480 O.2   190  TYR190     -0.2864
    192  CB       210.0810   13.0470  114.1360 C.3   190  TYR190      0.0560
    193  CG       209.0130   12.3030  113.3930 C.ar  190  TYR190     -0.0198
    194  CD1      209.0720   12.1810  111.9910 C.ar  190  TYR190     -0.0009
    195  CD2      207.9470   11.6980  114.0660 C.ar  190  TYR190     -0.0009
    196  CE1      208.1000   11.4850  111.2940 C.ar  190  TYR190      0.0417
    197  CE2      206.9700   11.0060  113.3650 C.ar  190  TYR190      0.0417
    198  CZ       207.0600   10.8980  111.9840 C.ar  190  TYR190      0.1957
    199  OH       206.1130   10.2100  111.2770 O.3   190  TYR190     -0.2866
    200  N        203.4850   14.0750  118.0700 N.3   236  GLU236     -0.1245
    201  CA       203.8940   12.7810  118.6250 C.3   236  GLU236      0.1567
    202  C        204.2720   12.9300  120.0960 C.2   236  GLU236      0.2260
    203  O        204.0840   12.0170  120.8960 O.2   236  GLU236     -0.2867
    204  CB       205.0670   12.1700  117.8500 C.3   236  GLU236      0.0388
    205  CG       204.8560   12.0370  116.3510 C.3   236  GLU236      0.1160
    206  CD       203.7990   11.0230  115.9840 C.2   236  GLU236      0.3649
    207  OE1      203.3000   11.1000  114.8160 O.co2 236  GLU236     -0.2457
    208  OE2      203.4730   10.1560  116.8510 O.co2 236  GLU236     -0.2457
@<TRIPOS>BOND
     1   102   103    1
     2   103   106    1
     3   103   104    1
     4   106   107    1
     5   104   105    2
     6   114   112    1
     7    36    37    1
     8   108   109    1
     9   112   109    1
    10   112   113    1
    11    53    54    1
    12    37    40    1
    13    37    38    1
    14    60    62   ar
    15    60    58   ar
    16   109   110    1
    17    54    57    1
    18    54    55    1
    19    57    58    1
    20   113   115    1
    21    47    38   am
    22    47    48    1
    23    62    63   ar
    24    40    41    1
    25    38    39    2
    26    58    59   ar
    27    49    48    1
    28    49    50    2
    29    51    48    1
    30    51    52    1
    31   121   120    1
    32   110   116   am
    33   110   111    2
    34   116   117    1
    35    55    56    2
    36    55    64   am
    37    63    61   ar
    38    41    42    1
    39    59    61   ar
    40    64    65    1
    41   120   117    1
    42   120   122    1
    43    76    77    1
    44    76    73    1
    45   117   118    1
    46    42    43    1
    47    77    78    1
    48    35    33   ar
    49    35    34   ar
    50    33    31   ar
    51    74    73    1
    52    74    75    2
    53    72    73    1
    54    72    66   am
    55   118   119    2
    56    96    95    2
    57    34    32   ar
    58    28    27    2
    59    65    66    1
    60    65    68    1
    61    45    44    1
    62   199   198    1
    63   196   198   ar
    64   196   194   ar
    65    66    67    2
    66    31    30   ar
    67    43    44    2
    68    78    79   ar
    69    78    80   ar
    70    69    68    1
    71    69    70    1
    72    69    71    1
    73    95    94    1
    74    81    82    1
    75    32    30   ar
    76   130   128    1
    77    44    46    1
    78   198   197   ar
    79   194   193   ar
    80    27    26    1
    81    30    29    1
    82   128   127    1
    83    87    85    1
    84   123   124    1
    85    26    29    1
    86    26    25    1
    87   187   185    1
    88   184   183    2
    89    82    85    1
    90    82    83    1
    91   191   190    2
    92    94    93    1
    93    94    97    1
    94   197   195   ar
    95   193   195   ar
    96   193   192    1
    97   127   124    1
    98   127   129    1
    99    85    86    1
   100   124   125    1
   101   189   190    1
   102   189   192    1
   103   189   188    1
   104    97    98    1
   105    88    83   am
   106    88    89    1
   107   183   188   am
   108   183   182    1
   109    83    84    2
   110   185   182    1
   111   185   186    1
   112   100    99   ar
   113    92    89    1
   114   131   125   am
   115   131   132    1
   116   207   206   ar
   117   136   135    1
   118   136   137    1
   119   125   126    2
   120   182   181    1
   121    89    90    1
   122    90    91    2
   123   135   132    1
   124    24    22    1
   125    98    99    1
   126    17    16    2
   127    99   101   ar
   128   132   133    1
   129   206   205    1
   130   206   208   ar
   131    11    10    2
   132   133   134    2
   133    22    21    2
   134    22    23    1
   135   179   178    2
   136   137   138    1
   137   205   204    1
   138    21    20    1
   139    16    15    1
   140   180   177    1
   141   177   178    1
   142   177   176    1
   143    19    20    1
   144    19    18    1
   145    15    14    1
   146    15    18    1
   147    10    14   am
   148    10     9    1
   149   170   169    2
   150   204   201    1
   151   200   201    1
   152     9    12    1
   153     9     8    1
   154   176   169   am
   155   169   168    1
   156    12    13    1
   157   165   164   ar
   158   201   202    1
   159   166   164   ar
   160   156   155    1
   161   157   155    1
   162   164   163    1
   163   171   168    1
   164   171   172    1
   165   174   173   ar
   166   153   152    2
   167   168   167    1
   168   155   154    1
   169   202   203    2
   170   154   151    1
   171   172   173    1
   172   173   175   ar
   173     4     3    2
   174   152   151    1
   175   152   158   am
   176   163   162    1
   177   161   160    2
   178   159   158    1
   179   159   162    1
   180   159   160    1
   181   151   150    1
   182   149   148   ar
   183   149   147   ar
   184   148   146   ar
   185     6     5    1
   186     3     2    1
   187     2     5    1
   188     2     1    1
   189   147   145   ar
   190   146   144   ar
   191     5     7    1
   192   142   141    2
   193   145   144   ar
   194   144   143    1
   195   141   140    1
   196   143   140    1
   197   140   139    1
