@<TRIPOS>MOLECULE
tmp/5ze6A00.pdb
 182 169 0 0 0
SMALL
GASTEIGER

@<TRIPOS>ATOM
      1  N          2.2760   10.8770   34.0990 N.3    48  ARG48      -0.1245
      2  CA         3.3230    9.9090   33.8610 C.3    48  ARG48       0.1563
      3  C          2.7490    8.5060   33.7060 C.2    48  ARG48       0.2260
      4  O          3.1230    7.7780   32.8020 O.2    48  ARG48      -0.2867
      5  CB         4.3760    9.9940   34.9650 C.3    48  ARG48       0.0307
      6  CG         5.0790   11.3490   35.0020 C.3    48  ARG48       0.0489
      7  CD         5.9900   11.4710   36.2120 C.3    48  ARG48       0.2205
      8  NE         6.5850   12.7930   36.3990 N.pl3  48  ARG48      -0.0865
      9  CZ         5.9100   13.8840   36.7440 C.cat  48  ARG48       0.5346
     10  NH1        4.5940   13.8550   36.8950 N.pl3  48  ARG48       0.1354
     11  NH2        6.5610   15.0230   36.9060 N.pl3  48  ARG48       0.1354
     12  N          7.4500    8.7610   41.1430 N.3    77  HIS77      -0.1241
     13  CA         7.1650   10.1910   41.1760 C.3    77  HIS77       0.1621
     14  C          6.6970   10.7240   42.5490 C.2    77  HIS77       0.2264
     15  O          7.1130   11.7990   42.9800 O.2    77  HIS77      -0.2867
     16  CB         6.1250   10.5270   40.1080 C.3    77  HIS77       0.0745
     17  CG         5.5670   11.9090   40.2270 C.ar   77  HIS77       0.0817
     18  ND1        6.3280   13.0410   40.0370 N.ar   77  HIS77      -0.2268
     19  CD2        4.3150   12.3370   40.4990 C.ar   77  HIS77       0.1154
     20  CE1        5.5720   14.1090   40.2070 C.ar   77  HIS77       0.1986
     21  NE2        4.3550   13.7070   40.5180 N.ar   77  HIS77      -0.2212
     22  N          7.3790    9.4150   45.4830 N.3    79  ALA79      -0.1231
     23  CA         8.5380    9.3900   46.3630 C.3    79  ALA79       0.1694
     24  C          9.4530   10.5790   46.0990 C.2    79  ALA79       0.2593
     25  O          9.9390   11.1970   47.0280 O.2    79  ALA79      -0.2718
     26  CB         9.2950    8.0680   46.2230 C.3    79  ALA79       0.0304
     27  N          9.6310   10.9430   44.8430 N.am   80  THR80      -0.1939
     28  CA        10.4460   12.1080   44.4990 C.3    80  THR80       0.2028
     29  C          9.7860   13.4050   44.9650 C.2    80  THR80       0.2642
     30  O         10.4960   14.3280   45.3340 O.2    80  THR80      -0.2714
     31  CB        10.8690   12.1830   42.9990 C.3    80  THR80       0.1808
     32  OG1        9.8680   12.8390   42.2260 O.3    80  THR80      -0.2208
     33  CG2       11.1160   10.7970   42.3870 C.3    80  THR80       0.0379
     34  N          8.4500   13.4690   45.0070 N.am   81  LEU81      -0.1977
     35  CA         7.7600   14.6380   45.5980 C.3    81  LEU81       0.1596
     36  C          8.0200   14.7810   47.0630 C.2    81  LEU81       0.2287
     37  O          8.1890   15.8810   47.5680 O.2    81  LEU81      -0.2864
     38  CB         6.2340   14.5260   45.5090 C.3    81  LEU81       0.0297
     39  CG         5.5250   14.7580   44.2040 C.3    81  LEU81       0.0022
     40  CD1        4.0610   15.1080   44.4580 C.3    81  LEU81       0.0001
     41  CD2        6.2550   15.8520   43.4540 C.3    81  LEU81       0.0001
     42  N         10.3400   13.6670   48.8240 N.3    83  HIS83      -0.1226
     43  CA        11.6950   14.1310   49.0720 C.3    83  HIS83       0.1752
     44  C         11.9370   15.5690   48.6400 C.2    83  HIS83       0.2596
     45  O         12.5220   16.3170   49.4200 O.2    83  HIS83      -0.2718
     46  CB        12.7130   13.1430   48.5000 C.3    83  HIS83       0.0759
     47  CG        12.7100   11.8320   49.2270 C.ar   83  HIS83       0.0818
     48  ND1       13.6430   10.8440   49.0060 N.ar   83  HIS83      -0.2268
     49  CD2       11.9040   11.3730   50.2180 C.ar   83  HIS83       0.1154
     50  CE1       13.4040    9.8270   49.8170 C.ar   83  HIS83       0.1986
     51  NE2       12.3500   10.1200   50.5590 N.ar   83  HIS83      -0.2212
     52  N         11.4350   15.9670   47.4640 N.am   84  ASP84      -0.1974
     53  CA        11.5380   17.3570   47.0060 C.3    84  ASP84       0.1709
     54  C         10.9590   18.3250   48.0370 C.2    84  ASP84       0.2293
     55  O         11.5770   19.3540   48.3320 O.2    84  ASP84      -0.2864
     56  CB        10.8430   17.5980   45.6590 C.3    84  ASP84       0.1436
     57  CG        11.1360   19.0080   45.0770 C.2    84  ASP84       0.3671
     58  OD1       12.1920   19.1560   44.4110 O.co2  84  ASP84      -0.2456
     59  OD2       10.3350   19.9780   45.2700 O.co2  84  ASP84      -0.2456
     60  N         13.3670   18.6040   51.0300 N.3    87  VAL87      -0.1231
     61  CA        14.5760   19.3030   50.5600 C.3    87  VAL87       0.1692
     62  C         14.3230   20.7920   50.3300 C.2    87  VAL87       0.2592
     63  O         15.1050   21.6080   50.7980 O.2    87  VAL87      -0.2718
     64  CB        15.0990   18.6650   49.2290 C.3    87  VAL87       0.0266
     65  CG1       16.0190   19.5940   48.4500 C.3    87  VAL87       0.0020
     66  CG2       15.7940   17.3400   49.5040 C.3    87  VAL87       0.0020
     67  N         13.2420   21.1090   49.6320 N.am   88  ASP88      -0.1974
     68  CA        12.8660   22.4620   49.3160 C.3    88  ASP88       0.1709
     69  C         12.1270   23.1380   50.4380 C.2    88  ASP88       0.2293
     70  O         11.7250   24.2370   50.2900 O.2    88  ASP88      -0.2864
     71  CB        11.9610   22.5040   48.0930 C.3    88  ASP88       0.1436
     72  CG        12.6610   22.1650   46.8050 C.2    88  ASP88       0.3671
     73  OD1       13.8740   21.9570   46.7880 O.co2  88  ASP88      -0.2456
     74  OD2       11.9540   22.1030   45.7930 O.co2  88  ASP88      -0.2456
     75  N          1.4790   22.4290   48.6630 N.3    93  ARG93      -0.1245
     76  CA         1.5210   21.9450   47.2740 C.3    93  ARG93       0.1563
     77  C          0.0950   21.7170   46.7860 C.2    93  ARG93       0.2260
     78  O         -0.6870   21.0090   47.4410 O.2    93  ARG93      -0.2867
     79  CB         2.3180   20.6180   47.1690 C.3    93  ARG93       0.0307
     80  CG         2.3550   19.9670   45.7800 C.3    93  ARG93       0.0489
     81  CD         3.0430   18.5970   45.7680 C.3    93  ARG93       0.2205
     82  NE         4.5080   18.6880   45.7900 N.pl3  93  ARG93      -0.0865
     83  CZ         5.2810   19.0210   44.7460 C.cat  93  ARG93       0.5346
     84  NH1        4.7640   19.2550   43.5450 N.pl3  93  ARG93       0.1354
     85  NH2        6.6030   19.1030   44.8960 N.pl3  93  ARG93       0.1354
     86  N         10.7960    6.3440   51.0260 N.3   113  ASP113     -0.1239
     87  CA        11.6980    5.2030   50.8040 C.3   113  ASP113      0.1674
     88  C         10.9000    3.9130   50.6740 C.2   113  ASP113      0.2266
     89  O         11.1480    3.1010   49.7740 O.2   113  ASP113     -0.2867
     90  CB        12.6910    5.0340   51.9520 C.3   113  ASP113      0.1410
     91  CG        13.6330    6.2170   52.1060 C.2   113  ASP113      0.3668
     92  OD1       13.7780    7.0060   51.1310 O.co2 113  ASP113     -0.2456
     93  OD2       14.2300    6.3400   53.2180 O.co2 113  ASP113     -0.2456
     94  N          9.2980    4.0610   47.3170 N.3   116  TYR116     -0.1227
     95  CA        10.2340    3.7690   46.2250 C.3   116  TYR116      0.1736
     96  C         10.5900    2.2770   46.1820 C.2   116  TYR116      0.2596
     97  O         10.5830    1.6500   45.1310 O.2   116  TYR116     -0.2718
     98  CB        11.5170    4.6240   46.2360 C.3   116  TYR116      0.0548
     99  CG        12.3190    4.2740   44.9940 C.ar  116  TYR116     -0.0200
    100  CD1       11.9580    4.7910   43.7540 C.ar  116  TYR116     -0.0009
    101  CD2       13.2630    3.2350   45.0130 C.ar  116  TYR116     -0.0009
    102  CE1       12.5930    4.3710   42.5910 C.ar  116  TYR116      0.0417
    103  CE2       13.8850    2.8020   43.8570 C.ar  116  TYR116      0.0417
    104  CZ        13.5560    3.3820   42.6410 C.ar  116  TYR116      0.1957
    105  OH        14.1710    2.9680   41.4670 O.3   116  TYR116     -0.2866
    106  N         10.8880    1.6840   47.3240 N.am  117  THR117     -0.1953
    107  CA        11.2930    0.2880   47.3310 C.3   117  THR117      0.1897
    108  C         10.1580   -0.6290   46.9000 C.2   117  THR117      0.2313
    109  O         10.4090   -1.6840   46.2950 O.2   117  THR117     -0.2863
    110  CB        11.8040   -0.1690   48.7070 C.3   117  THR117      0.1794
    111  OG1       10.7740   -0.0310   49.6710 O.3   117  THR117     -0.2208
    112  CG2       13.0060    0.6230   49.1520 C.3   117  THR117      0.0378
    113  N         16.3500    7.0750   37.6770 N.3   139  VAL139     -0.1245
    114  CA        16.0500    7.5990   38.9900 C.3   139  VAL139      0.1561
    115  C         17.3360    8.0140   39.6880 C.2   139  VAL139      0.2260
    116  O         17.3780    9.0000   40.4520 O.2   139  VAL139     -0.2867
    117  CB        15.2240    6.5580   39.7960 C.3   139  VAL139      0.0252
    118  CG1       15.4300    6.6810   41.2800 C.3   139  VAL139      0.0019
    119  CG2       13.7550    6.7330   39.4780 C.3   139  VAL139      0.0019
    120  N         18.4380   11.3460   38.2000 N.3   142  ILE142     -0.1231
    121  CA        17.6900   12.4460   38.8030 C.3   142  ILE142      0.1692
    122  C         18.2080   12.7770   40.2020 C.2   142  ILE142      0.2591
    123  O         18.4050   13.9310   40.5260 O.2   142  ILE142     -0.2718
    124  CB        16.1810   12.1420   38.8090 C.3   142  ILE142      0.0266
    125  CG1       15.6440   12.2170   37.3790 C.3   142  ILE142      0.0019
    126  CG2       15.3890   13.0990   39.6970 C.3   142  ILE142      0.0020
    127  CD1       14.4000   11.3740   37.1790 C.3   142  ILE142      0.0001
    128  N         18.4420   11.7750   41.0280 N.am  143  ALA143     -0.1980
    129  CA        18.9230   12.0050   42.3960 C.3   143  ALA143      0.1597
    130  C         20.3340   12.5750   42.4060 C.2   143  ALA143      0.2287
    131  O         20.6500   13.4600   43.2070 O.2   143  ALA143     -0.2864
    132  CB        18.8850   10.7210   43.2010 C.3   143  ALA143      0.0319
    133  N         20.0150   16.2450   41.7670 N.3   146  GLU146     -0.1245
    134  CA        19.6220   17.0140   42.9530 C.3   146  GLU146      0.1567
    135  C         20.7770   17.2730   43.8900 C.2   146  GLU146      0.2260
    136  O         20.8450   18.3210   44.4890 O.2   146  GLU146     -0.2867
    137  CB        18.5530   16.2910   43.7680 C.3   146  GLU146      0.0388
    138  CG        17.2310   16.1100   43.0500 C.3   146  GLU146      0.1160
    139  CD        16.5610   17.4140   42.6750 C.2   146  GLU146      0.3649
    140  OE1       15.7440   17.4100   41.7350 O.co2 146  GLU146     -0.2457
    141  OE2       16.8690   18.4450   43.2870 O.co2 146  GLU146     -0.2457
    142  N         16.8630   15.6720   34.0260 N.3   171  THR171     -0.1218
    143  CA        15.6210   16.0510   34.7200 C.3   171  THR171      0.1862
    144  C         14.3490   15.4240   34.1330 C.2   171  THR171      0.2287
    145  O         13.3400   15.2640   34.8280 O.2   171  THR171     -0.2866
    146  CB        15.4010   17.5870   34.8160 C.3   171  THR171      0.1770
    147  OG1       16.6380   18.2870   34.7130 O.3   171  THR171     -0.2211
    148  CG2       14.8280   17.9240   36.1510 C.3   171  THR171      0.0375
    149  N         12.5480   10.5150   33.8480 N.3   174  LEU174     -0.1245
    150  CA        11.3740    9.7430   34.2870 C.3   174  LEU174      0.1561
    151  C         10.2830    9.6680   33.2020 C.2   174  LEU174      0.2260
    152  O          9.6800    8.6140   32.9740 O.2   174  LEU174     -0.2867
    153  CB        10.7870   10.3330   35.5810 C.3   174  LEU174      0.0270
    154  CG         9.7810    9.4520   36.3210 C.3   174  LEU174      0.0019
    155  CD1       10.3550    8.0570   36.4410 C.3   174  LEU174      0.0001
    156  CD2        9.3770    9.9670   37.7060 C.3   174  LEU174      0.0001
    157  N          8.7940   20.5110   31.5330 N.3   208  GLN208     -0.1245
    158  CA         9.6870   21.1450   32.5040 C.3   208  GLN208      0.1566
    159  C          9.7920   22.6360   32.2050 C.2   208  GLN208      0.2260
    160  O          9.8180   23.4620   33.1200 O.2   208  GLN208     -0.2867
    161  CB        11.0790   20.5060   32.4460 C.3   208  GLN208      0.0367
    162  CG        11.7360   20.2410   33.7850 C.3   208  GLN208      0.0905
    163  CD        11.0490   19.1350   34.5810 C.2   208  GLN208      0.2608
    164  OE1       11.1210   17.9360   34.2460 O.2   208  GLN208     -0.2717
    165  NE2       10.3870   19.5360   35.6580 N.am  208  GLN208     -0.0878
    166  N          6.4600   24.3820   33.1630 N.3   211  ASP211     -0.1239
    167  CA         6.3670   24.4640   34.6300 C.3   211  ASP211      0.1674
    168  C          7.1820   25.6560   35.1650 C.2   211  ASP211      0.2266
    169  O          6.7100   26.4000   36.0210 O.2   211  ASP211     -0.2867
    170  CB         6.9060   23.1750   35.2470 C.3   211  ASP211      0.1410
    171  CG         6.5520   23.0260   36.7100 C.2   211  ASP211      0.3668
    172  OD1        5.3570   22.8160   37.0130 O.co2 211  ASP211     -0.2456
    173  OD2        7.4780   23.0860   37.5510 O.co2 211  ASP211     -0.2456
    174  N         16.7790   30.0460   41.8870 N.3   230  LYS230     -0.1245
    175  CA        17.0010   28.9120   40.9960 C.3   230  LYS230      0.1561
    176  C         17.2120   29.3460   39.5370 C.2   230  LYS230      0.2260
    177  O         16.3800   30.0610   38.9630 O.2   230  LYS230     -0.2867
    178  CB        15.8810   27.8760   41.0700 C.3   230  LYS230      0.0271
    179  CG        16.4070   26.4880   40.7340 C.3   230  LYS230      0.0035
    180  CD        15.3240   25.4460   40.5000 C.3   230  LYS230      0.0206
    181  CE        15.8080   24.4230   39.4760 C.3   230  LYS230      0.1093
    182  NZ        15.1880   23.1000   39.7270 N.3   230  LYS230     -0.1314
@<TRIPOS>BOND
     1   157   158    1
     2   159   158    1
     3   159   160    2
     4   161   158    1
     5   161   162    1
     6     4     3    2
     7   152   151    2
     8   166   167    1
     9   151   150    1
    10     3     2    1
    11   162   163    1
    12   149   150    1
    13     2     1    1
    14     2     5    1
    15   142   143    1
    16   144   143    1
    17   144   145    2
    18   164   163    2
    19   150   153    1
    20   163   165   am
    21   167   168    1
    22   167   170    1
    23   147   146    1
    24   143   146    1
    25   146   148    1
    26     5     6    1
    27     6     7    1
    28   168   169    2
    29   170   171    1
    30   153   154    1
    31     7     8    1
    32   154   155    1
    33   154   156    1
    34     8     9    2
    35   171   172   ar
    36   171   173   ar
    37     9    10    1
    38     9    11    1
    39   127   125    1
    40   125   124    1
    41   113   114    1
    42   120   121    1
    43   121   124    1
    44   121   122    1
    45   124   126    1
    46   177   176    2
    47   114   115    1
    48   114   117    1
    49   181   182    1
    50   181   180    1
    51   119   117    1
    52   176   175    1
    53   115   116    2
    54   117   118    1
    55    18    20   ar
    56    18    17   ar
    57    16    17    1
    58    16    13    1
    59   122   123    2
    60   122   128   am
    61    20    21   ar
    62    17    19   ar
    63    19    21   ar
    64   180   179    1
    65   179   178    1
    66   175   178    1
    67   175   174    1
    68   128   129    1
    69    12    13    1
    70    13    14    1
    71   105   104    1
    72   140   139   ar
    73   133   134    1
    74    32    31    1
    75    33    31    1
    76   129   130    1
    77   129   132    1
    78   130   131    2
    79    14    15    2
    80   102   104   ar
    81   102   100   ar
    82   104   103   ar
    83   139   138    1
    84   139   141   ar
    85   134   137    1
    86   134   135    1
    87    31    28    1
    88   138   137    1
    89    41    39    1
    90    84    83    1
    91   100    99   ar
    92   103   101   ar
    93   135   136    2
    94    39    40    1
    95    39    38    1
    96    58    57   ar
    97    28    27    1
    98    28    29    1
    99    83    85    1
   100    83    82    2
   101    27    24   am
   102    29    34   am
   103    29    30    2
   104    99   101   ar
   105    99    98    1
   106    34    35    1
   107    57    59   ar
   108    57    56    1
   109    97    96    2
   110    22    23    1
   111    38    35    1
   112    35    36    1
   113    56    53    1
   114    81    80    1
   115    81    82    1
   116    80    79    1
   117    74    72   ar
   118    24    23    1
   119    24    25    2
   120    96    95    1
   121    96   106   am
   122    26    23    1
   123    95    98    1
   124    95    94    1
   125   109   108    2
   126    77    76    1
   127    77    78    2
   128    73    72   ar
   129    72    71    1
   130   108   107    1
   131    53    52    1
   132    53    54    1
   133    36    37    2
   134    79    76    1
   135    76    75    1
   136   106   107    1
   137   107   110    1
   138    52    44   am
   139    54    55    2
   140    71    68    1
   141    65    64    1
   142    46    43    1
   143    46    47    1
   144    44    43    1
   145    44    45    2
   146   110   112    1
   147   110   111    1
   148    42    43    1
   149    48    47   ar
   150    48    50   ar
   151    47    49   ar
   152    64    66    1
   153    64    61    1
   154    68    67    1
   155    68    69    1
   156    67    62   am
   157    89    88    2
   158    50    51   ar
   159    49    51   ar
   160    70    69    2
   161    62    61    1
   162    62    63    2
   163    61    60    1
   164    88    87    1
   165    87    86    1
   166    87    90    1
   167    92    91   ar
   168    90    91    1
   169    91    93   ar
