@<TRIPOS>MOLECULE
tmp/5ze8A01.pdb
 224 217 0 0 0
SMALL
GASTEIGER

@<TRIPOS>ATOM
      1  N         49.2410   28.3050   21.7650 N.3    26  MET26      -0.1245
      2  CA        48.2860   28.8810   20.7930 C.3    26  MET26       0.1570
      3  C         48.8920   29.2170   19.4790 C.2    26  MET26       0.2261
      4  O         48.1810   29.3520   18.4890 O.2    26  MET26      -0.2867
      5  CB        47.5520   30.0640   21.3670 C.3    26  MET26       0.0387
      6  CG        46.6710   29.6930   22.5120 C.3    26  MET26       0.0595
      7  SD        45.4710   28.3980   22.1990 S.3    26  MET26      -0.1393
      8  CE        44.4780   29.1390   20.8720 C.3    26  MET26       0.0692
      9  N         41.6410   26.5610   16.6790 N.3    35  ASP35      -0.1239
     10  CA        41.2070   27.3800   17.7950 C.3    35  ASP35       0.1674
     11  C         39.7110   27.6630   17.5290 C.2    35  ASP35       0.2266
     12  O         39.3760   28.4060   16.5920 O.2    35  ASP35      -0.2867
     13  CB        41.9580   28.7180   17.7830 C.3    35  ASP35       0.1410
     14  CG        41.4430   29.6640   18.8140 C.2    35  ASP35       0.3668
     15  OD1       40.5120   29.3500   19.5100 O.co2  35  ASP35      -0.2456
     16  OD2       41.9550   30.7970   18.8870 O.co2  35  ASP35      -0.2456
     17  N         37.5730   29.5390   19.0580 N.3    37  ILE37      -0.1231
     18  CA        37.2030   30.9410   19.2000 C.3    37  ILE37       0.1692
     19  C         37.5440   31.7020   17.9390 C.2    37  ILE37       0.2592
     20  O         36.7200   32.3120   17.2890 O.2    37  ILE37      -0.2718
     21  CB        37.8870   31.5630   20.4500 C.3    37  ILE37       0.0266
     22  CG1       37.3100   30.9380   21.7380 C.3    37  ILE37       0.0019
     23  CG2       37.6800   33.0400   20.4630 C.3    37  ILE37       0.0020
     24  CD1       37.9980   31.4550   23.0330 C.3    37  ILE37       0.0001
     25  N         38.8190   31.6510   17.5490 N.am   38  HIS38      -0.1976
     26  CA        39.1900   32.2560   16.2890 C.3    38  HIS38       0.1656
     27  C         38.3790   31.6590   15.1440 C.2    38  HIS38       0.2291
     28  O         37.9800   32.3850   14.2190 O.2    38  HIS38      -0.2864
     29  CB        40.7000   32.0430   15.9770 C.3    38  HIS38       0.0771
     30  CG        41.1030   32.4590   14.5930 C.ar   38  HIS38       0.0820
     31  ND1       41.0350   33.7600   14.1540 N.ar   38  HIS38      -0.2267
     32  CD2       41.6440   31.7520   13.5760 C.ar   38  HIS38       0.1154
     33  CE1       41.4990   33.8170   12.9110 C.ar   38  HIS38       0.1986
     34  NE2       41.8350   32.6190   12.5270 N.ar   38  HIS38      -0.2212
     35  N         34.8940   33.3150   14.6660 N.3    41  PHE41      -0.1227
     36  CA        34.9890   34.6510   14.0890 C.3    41  PHE41       0.1736
     37  C         35.4410   34.5540   12.6090 C.2    41  PHE41       0.2595
     38  O         34.9190   35.2620   11.7420 O.2    41  PHE41      -0.2718
     39  CB        35.9330   35.5320   14.8630 C.3    41  PHE41       0.0547
     40  CG        35.3870   36.0740   16.1390 C.ar   41  PHE41      -0.0202
     41  CD1       35.2990   35.3260   17.2730 C.ar   41  PHE41      -0.0042
     42  CD2       34.8230   37.3610   16.1090 C.ar   41  PHE41      -0.0042
     43  CE1       34.8380   35.8720   18.4420 C.ar   41  PHE41      -0.0003
     44  CE2       34.3500   37.8910   17.2800 C.ar   41  PHE41      -0.0003
     45  CZ        34.3780   37.1570   18.4270 C.ar   41  PHE41      -0.0000
     46  N         36.4030   33.6680   12.3020 N.am   42  TYR42      -0.1976
     47  CA        36.8710   33.4630   10.9270 C.3    42  TYR42       0.1639
     48  C         35.7250   33.0080   10.0040 C.2    42  TYR42       0.2290
     49  O         35.5710   33.5910    8.8750 O.2    42  TYR42      -0.2864
     50  CB        38.0680   32.5440   10.8650 C.3    42  TYR42       0.0560
     51  CG        38.7050   32.3830    9.4990 C.ar   42  TYR42      -0.0198
     52  CD1       38.1980   31.4940    8.5320 C.ar   42  TYR42      -0.0009
     53  CD2       39.6700   33.2210    9.1080 C.ar   42  TYR42      -0.0009
     54  CE1       38.7560   31.3610    7.2840 C.ar   42  TYR42       0.0417
     55  CE2       40.2670   33.0870    7.8700 C.ar   42  TYR42       0.0417
     56  CZ        39.8450   32.1370    6.9830 C.ar   42  TYR42       0.1957
     57  OH        40.4230   32.0780    5.7560 O.3    42  TYR42      -0.2866
     58  N         33.4260   36.0790    9.5570 N.3    45  GLU45      -0.1245
     59  CA        33.9770   37.1970    8.8850 C.3    45  GLU45       0.1567
     60  C         34.6130   36.9790    7.4890 C.2    45  GLU45       0.2260
     61  O         34.7420   37.9100    6.6820 O.2    45  GLU45      -0.2867
     62  CB        35.0440   37.8410    9.7840 C.3    45  GLU45       0.0388
     63  CG        34.4180   38.3540   11.0510 C.3    45  GLU45       0.1160
     64  CD        35.3450   39.1720   11.9060 C.2    45  GLU45       0.3649
     65  OE1       36.3160   39.6780   11.3730 O.co2  45  GLU45      -0.2457
     66  OE2       35.0950   39.3530   13.1220 O.co2  45  GLU45      -0.2457
     67  N         37.6340   38.2350    2.6560 N.3    56  HIS56      -0.1241
     68  CA        36.8950   38.8640    3.7080 C.3    56  HIS56       0.1621
     69  C         35.4820   39.2950    3.2710 C.2    56  HIS56       0.2264
     70  O         35.2880   39.7770    2.1260 O.2    56  HIS56      -0.2867
     71  CB        37.7450   40.0070    4.1800 C.3    56  HIS56       0.0745
     72  CG        37.2970   40.5910    5.4610 C.ar   56  HIS56       0.0817
     73  ND1       36.2870   41.5290    5.5520 N.ar   56  HIS56      -0.2268
     74  CD2       37.7340   40.3730    6.7300 C.ar   56  HIS56       0.1154
     75  CE1       36.1490   41.8870    6.8260 C.ar   56  HIS56       0.1986
     76  NE2       37.0120   41.1810    7.5550 N.ar   56  HIS56      -0.2212
     77  N         42.9380   38.9580    5.7780 N.3    64  LEU64      -0.1231
     78  CA        44.0670   39.4990    6.4730 C.3    64  LEU64       0.1693
     79  C         44.4080   38.6640    7.7240 C.2    64  LEU64       0.2592
     80  O         45.5780   38.6730    8.1640 O.2    64  LEU64      -0.2718
     81  CB        43.8690   40.9750    6.8830 C.3    64  LEU64       0.0284
     82  CG        42.9010   41.2250    8.0320 C.3    64  LEU64       0.0019
     83  CD1       43.0560   42.6570    8.5060 C.3    64  LEU64       0.0001
     84  CD2       41.4220   40.9380    7.8500 C.3    64  LEU64       0.0001
     85  N         43.4180   37.9240    8.2780 N.am   65  CYS65      -0.1970
     86  CA        43.6360   37.0550    9.4140 C.3    65  CYS65       0.1712
     87  C         44.8360   36.1550    9.1820 C.2    65  CYS65       0.2296
     88  O         45.5480   35.7820   10.0980 O.2    65  CYS65      -0.2864
     89  CB        42.4180   36.2050    9.6850 C.3    65  CYS65       0.0983
     90  SG        40.7900   36.9360    9.3700 S.3    65  CYS65      -0.0798
     91  N         48.7200   36.6200   10.0880 N.3    68  CYS68      -0.1221
     92  CA        49.1120   36.3960   11.5260 C.3    68  CYS68       0.1808
     93  C         48.7680   35.0110   12.0140 C.2    68  CYS68       0.2601
     94  O         49.5340   34.4230   12.7390 O.2    68  CYS68      -0.2717
     95  CB        48.5080   37.4010   12.5160 C.3    68  CYS68       0.0970
     96  SG        48.8970   39.1410   11.9730 S.3    68  CYS68      -0.0800
     97  N         47.5780   34.4950   11.6230 N.am   69  HIS69      -0.1975
     98  CA        47.0560   33.2050   12.1420 C.3    69  HIS69       0.1656
     99  C         47.4690   32.0080   11.2970 C.2    69  HIS69       0.2291
    100  O         47.4210   30.8830   11.8090 O.2    69  HIS69      -0.2864
    101  CB        45.5410   33.2150   12.2420 C.3    69  HIS69       0.0771
    102  CG        44.9650   34.0660   13.3300 C.ar   69  HIS69       0.0820
    103  ND1       44.5720   33.5050   14.5390 N.ar   69  HIS69      -0.2267
    104  CD2       44.6680   35.4270   13.4110 C.ar   69  HIS69       0.1154
    105  CE1       44.0960   34.4770   15.3100 C.ar   69  HIS69       0.1986
    106  NE2       44.1360   35.6460   14.6700 N.ar   69  HIS69      -0.2212
    107  N         50.3110   43.6790    7.9790 N.3   114  TYR114     -0.1241
    108  CA        50.2430   42.8300    9.1940 C.3   114  TYR114      0.1605
    109  C         50.9700   41.5270    9.0230 C.2   114  TYR114      0.2264
    110  O         51.1270   40.9870    7.9230 O.2   114  TYR114     -0.2867
    111  CB        48.7630   42.5000    9.4090 C.3   114  TYR114      0.0534
    112  CG        47.8740   43.6520    9.8200 C.ar  114  TYR114     -0.0201
    113  CD1       48.1680   44.4570   10.8770 C.ar  114  TYR114     -0.0009
    114  CD2       46.7010   43.8460    9.1880 C.ar  114  TYR114     -0.0009
    115  CE1       47.3180   45.4600   11.2780 C.ar  114  TYR114      0.0417
    116  CE2       45.8630   44.8850    9.5560 C.ar  114  TYR114      0.0417
    117  CZ        46.1900   45.6750   10.5940 C.ar  114  TYR114      0.1957
    118  OH        45.3240   46.6670   11.0120 O.3   114  TYR114     -0.2866
    119  N         55.2680   42.1300   14.2830 N.3   177  GLY177     -0.1210
    120  CA        54.3940   42.1170   13.0720 C.3   177  GLY177      0.1956
    121  C         52.9870   41.5840   13.3590 C.2   177  GLY177      0.2612
    122  O         51.9680   42.0190   12.7980 O.2   177  GLY177     -0.2717
    123  N         52.9560   40.5910   14.2250 N.am  178  CYS178     -0.1956
    124  CA        51.6780   39.9610   14.6310 C.3   178  CYS178      0.1843
    125  C         51.0800   40.5090   15.8530 C.2   178  CYS178      0.2625
    126  O         49.8500   40.3110   16.0480 O.2   178  CYS178     -0.2714
    127  CB        51.8810   38.4490   14.8060 C.3   178  CYS178      0.0997
    128  SG        52.5230   37.7110   13.2750 S.3   178  CYS178     -0.0797
    129  N         51.8710   41.1450   16.7220 N.am  179  HIS179     -0.1973
    130  CA        51.3960   41.5940   18.0250 C.3   179  HIS179      0.1656
    131  C         51.3820   43.0990   18.2630 C.2   179  HIS179      0.2291
    132  O         50.9210   43.5230   19.3650 O.2   179  HIS179     -0.2864
    133  CB        52.2870   40.9300   19.0520 C.3   179  HIS179      0.0771
    134  CG        51.8980   39.4960   19.3120 C.ar  179  HIS179      0.0820
    135  ND1       50.8180   39.1850   20.1340 N.ar  179  HIS179     -0.2267
    136  CD2       52.4770   38.3200   18.9390 C.ar  179  HIS179      0.1154
    137  CE1       50.7730   37.8440   20.2040 C.ar  179  HIS179      0.1986
    138  NE2       51.7350   37.3160   19.4520 N.ar  179  HIS179     -0.2212
    139  N         49.8040   45.8120   16.5570 N.3   181  GLN181     -0.1231
    140  CA        48.5240   46.5580   16.4400 C.3   181  GLN181      0.1698
    141  C         47.6570   45.8780   15.4170 C.2   181  GLN181      0.2592
    142  O         48.1840   45.2330   14.5280 O.2   181  GLN181     -0.2718
    143  CB        48.7750   48.0300   16.0920 C.3   181  GLN181      0.0381
    144  CG        47.5760   48.9320   16.2620 C.3   181  GLN181      0.0905
    145  CD        47.8430   50.4480   16.3520 C.2   181  GLN181      0.2608
    146  OE1       48.8440   50.9150   16.9130 O.2   181  GLN181     -0.2717
    147  NE2       46.8960   51.2140   15.8320 N.am  181  GLN181     -0.0878
    148  N         46.3390   45.9440   15.6160 N.am  182  ARG182     -0.1980
    149  CA        45.4450   45.6880   14.5170 C.3   182  ARG182      0.1597
    150  C         44.3170   46.6130   14.6290 C.2   182  ARG182      0.2287
    151  O         43.7760   46.7720   15.7370 O.2   182  ARG182     -0.2864
    152  CB        44.9750   44.2160   14.5800 C.3   182  ARG182      0.0334
    153  CG        43.7470   43.9850   13.6920 C.3   182  ARG182      0.0492
    154  CD        43.3230   42.5460   13.5610 C.3   182  ARG182      0.2205
    155  NE        42.0860   42.4430   12.7650 N.pl3 182  ARG182     -0.0865
    156  CZ        40.9940   41.7570   13.1260 C.cat 182  ARG182      0.5346
    157  NH1       39.9740   41.7570   12.2960 N.pl3 182  ARG182      0.1354
    158  NH2       40.8860   41.1270   14.2980 N.pl3 182  ARG182      0.1354
    159  N         43.4950   45.6340   18.7140 N.3   191  CYS191     -0.1235
    160  CA        44.6540   45.0750   19.5160 C.3   191  CYS191      0.1677
    161  C         45.7340   46.1410   19.4890 C.2   191  CYS191      0.2270
    162  O         45.9920   46.7500   18.4420 O.2   191  CYS191     -0.2867
    163  CB        45.2740   43.7850   18.9110 C.3   191  CYS191      0.0956
    164  SG        47.1050   43.6150   19.2070 S.3   191  CYS191     -0.0801
    165  N         46.5990   34.0390   27.9170 N.3   225  GLY225     -0.1210
    166  CA        45.2230   33.9290   28.4340 C.3   225  GLY225      0.1956
    167  C         44.6550   32.5370   28.4640 C.2   225  GLY225      0.2611
    168  O         43.6730   32.3170   29.1720 O.2   225  GLY225     -0.2717
    169  N         45.2590   31.5640   27.7590 N.am  226  HIS226     -0.1975
    170  CA        44.7640   30.2040   27.8080 C.3   226  HIS226      0.1656
    171  C         45.4580   29.4330   28.9360 C.2   226  HIS226      0.2291
    172  O         45.2310   28.2030   29.0560 O.2   226  HIS226     -0.2864
    173  CB        44.9700   29.5130   26.4610 C.3   226  HIS226      0.0771
    174  CG        44.0590   29.9720   25.3730 C.ar  226  HIS226      0.0820
    175  ND1       44.2530   31.1380   24.6720 N.ar  226  HIS226     -0.2267
    176  CD2       42.9000   29.4570   24.9070 C.ar  226  HIS226      0.1154
    177  CE1       43.2590   31.3120   23.8110 C.ar  226  HIS226      0.1986
    178  NE2       42.4690   30.2330   23.8820 N.ar  226  HIS226     -0.2212
    179  N         46.1230   42.6480   27.7670 N.3   264  THR264     -0.1203
    180  CA        46.4730   43.1210   26.4370 C.3   264  THR264      0.1994
    181  C         45.8990   42.2040   25.3470 C.2   264  THR264      0.2618
    182  O         45.3820   41.1280   25.6140 O.2   264  THR264     -0.2717
    183  CB        47.9980   43.2600   26.2900 C.3   264  THR264      0.1784
    184  OG1       48.3070   44.1510   25.2060 O.3   264  THR264     -0.2211
    185  CG2       48.7000   41.9110   26.1490 C.3   264  THR264      0.0376
    186  N         46.0810   42.6200   24.0960 N.am  265  GLY265     -0.1942
    187  CA        45.7600   41.8610   22.9120 C.3   265  GLY265      0.2014
    188  C         44.3150   41.9960   22.4300 C.2   265  GLY265      0.2638
    189  O         43.8890   43.0970   22.1320 O.2   265  GLY265     -0.2714
    190  N         43.6440   40.8750   22.2320 N.am  266  ALA266     -0.1977
    191  CA        42.3090   40.8890   21.6620 C.3   266  ALA266      0.1597
    192  C         41.3850   41.7810   22.4380 C.2   266  ALA266      0.2287
    193  O         41.4570   41.9130   23.6640 O.2   266  ALA266     -0.2864
    194  CB        41.7610   39.4680   21.6120 C.3   266  ALA266      0.0319
    195  N         38.4290   41.7510   23.2320 N.3   268  PHE268     -0.1227
    196  CA        37.3690   41.2220   24.0720 C.3   268  PHE268      0.1736
    197  C         37.8660   40.6410   25.4090 C.2   268  PHE268      0.2595
    198  O         37.0420   40.1850   26.1830 O.2   268  PHE268     -0.2718
    199  CB        36.5030   40.2140   23.4490 C.3   268  PHE268      0.0547
    200  CG        37.0480   39.6540   22.2380 C.ar  268  PHE268     -0.0202
    201  CD1       38.0640   38.6920   22.3180 C.ar  268  PHE268     -0.0042
    202  CD2       36.6120   40.1200   21.0290 C.ar  268  PHE268     -0.0042
    203  CE1       38.6020   38.1770   21.1330 C.ar  268  PHE268     -0.0003
    204  CE2       37.1790   39.6330   19.8220 C.ar  268  PHE268     -0.0003
    205  CZ        38.1850   38.6720   19.8860 C.ar  268  PHE268     -0.0000
    206  N         39.1850   40.6370   25.6200 N.am  269  ARG269     -0.1980
    207  CA        39.6630   40.2360   26.8800 C.3   269  ARG269      0.1597
    208  C         39.1570   41.2080   27.9700 C.2   269  ARG269      0.2287
    209  O         39.1190   42.4320   27.8040 O.2   269  ARG269     -0.2864
    210  CB        41.1860   40.2630   26.9290 C.3   269  ARG269      0.0334
    211  CG        41.9340   39.4480   25.9350 C.3   269  ARG269      0.0492
    212  CD        41.4980   38.0050   25.9600 C.3   269  ARG269      0.2205
    213  NE        42.4370   37.1520   25.2380 N.pl3 269  ARG269     -0.0865
    214  CZ        42.1480   36.2880   24.2800 C.cat 269  ARG269      0.5346
    215  NH1       43.1250   35.5740   23.7460 N.pl3 269  ARG269      0.1354
    216  NH2       40.8790   36.1810   23.8100 N.pl3 269  ARG269      0.1354
    217  N         38.4510   35.3080   28.4170 N.3   356  LEU356     -0.1245
    218  CA        38.8300   35.4200   27.0030 C.3   356  LEU356      0.1561
    219  C         37.9050   36.2750   26.1430 C.2   356  LEU356      0.2260
    220  O         38.3480   36.8740   25.1780 O.2   356  LEU356     -0.2867
    221  CB        38.9230   34.0270   26.3850 C.3   356  LEU356      0.0270
    222  CG        40.1040   33.1800   26.9060 C.3   356  LEU356      0.0019
    223  CD1       39.9320   31.7470   26.3310 C.3   356  LEU356      0.0001
    224  CD2       41.4710   33.6750   26.4970 C.3   356  LEU356      0.0001
@<TRIPOS>BOND
     1    70    69    2
     2    67    68    1
     3    69    68    1
     4    68    71    1
     5    71    72    1
     6    72    73   ar
     7    72    74   ar
     8    73    75   ar
     9    57    56    1
    10    77    78    1
    11    78    81    1
    12    78    79    1
    13    61    60    2
    14    74    76   ar
    15    75    76   ar
    16    81    82    1
    17    56    54   ar
    18    56    55   ar
    19    54    52   ar
    20    60    59    1
    21    79    80    2
    22    79    85   am
    23    84    82    1
    24    55    53   ar
    25   110   109    2
    26   107   108    1
    27    82    83    1
    28    85    86    1
    29    52    51   ar
    30    49    48    2
    31    59    58    1
    32    59    62    1
    33   109   108    1
    34    53    51   ar
    35    87    86    1
    36    87    88    2
    37   114   116   ar
    38   114   112   ar
    39   108   111    1
    40    90    89    1
    41   111   112    1
    42    86    89    1
    43    51    50    1
    44   116   117   ar
    45    62    63    1
    46   112   113   ar
    47    48    47    1
    48    91    92    1
    49   117   118    1
    50   117   115   ar
    51    50    47    1
    52   113   115   ar
    53    47    46    1
    54    63    64    1
    55    99   100    2
    56    99    98    1
    57    65    64   ar
    58    92    93    1
    59    92    95    1
    60    97    93   am
    61    97    98    1
    62    38    37    2
    63    64    66   ar
    64    96    95    1
    65    93    94    2
    66    98   101    1
    67   101   102    1
    68   157   156    1
    69    46    37   am
    70    34    33   ar
    71    34    32   ar
    72    37    36    1
    73   155   156    2
    74   155   154    1
    75   122   121    2
    76    33    31   ar
    77   120   121    1
    78   120   119    1
    79   156   158    1
    80   128   127    1
    81   102   104   ar
    82   102   103   ar
    83   121   123   am
    84   104   106   ar
    85   154   153    1
    86    32    30   ar
    87   153   152    1
    88    36    35    1
    89    36    39    1
    90    31    30   ar
    91    28    27    2
    92   123   124    1
    93   149   152    1
    94   149   150    1
    95   149   148    1
    96   142   141    2
    97   103   105   ar
    98    30    29    1
    99   150   151    2
   100   124   127    1
   101   124   125    1
   102   106   105   ar
   103    39    40    1
   104    27    26    1
   105   141   148   am
   106   141   140    1
   107   147   145   am
   108   125   126    2
   109   125   129   am
   110    29    26    1
   111   143   144    1
   112   143   140    1
   113    42    40   ar
   114    42    44   ar
   115    40    41   ar
   116   144   145    1
   117    26    25    1
   118   145   146    2
   119   140   139    1
   120    12    11    2
   121     9    10    1
   122   129   130    1
   123    41    43   ar
   124    44    45   ar
   125    20    19    2
   126    11    10    1
   127    25    19   am
   128    13    10    1
   129    13    14    1
   130    19    18    1
   131   130   131    1
   132   130   133    1
   133   131   132    2
   134    45    43   ar
   135   162   161    2
   136     4     3    2
   137   159   160    1
   138    14    16   ar
   139    14    15   ar
   140   163   164    1
   141   163   160    1
   142   136   134   ar
   143   136   138   ar
   144   133   134    1
   145    17    18    1
   146    18    21    1
   147   134   135   ar
   148   138   137   ar
   149     3     2    1
   150   161   160    1
   151   204   205   ar
   152   204   202   ar
   153   205   203   ar
   154   135   137   ar
   155    21    23    1
   156    21    22    1
   157     2     5    1
   158     2     1    1
   159     8     7    1
   160   202   200   ar
   161   203   201   ar
   162     5     6    1
   163   194   191    1
   164   191   190    1
   165   191   192    1
   166    22    24    1
   167   189   188    2
   168     7     6    1
   169   190   188   am
   170   200   201   ar
   171   200   199    1
   172   188   187    1
   173   192   193    2
   174   187   186    1
   175   195   196    1
   176   199   196    1
   177   215   214    1
   178   216   214    1
   179   177   178   ar
   180   177   175   ar
   181   178   176   ar
   182   196   197    1
   183   186   181   am
   184   214   213    2
   185   175   174   ar
   186   176   174   ar
   187   220   219    2
   188   184   183    1
   189   213   212    1
   190   181   182    2
   191   181   180    1
   192   174   173    1
   193   197   206   am
   194   197   198    2
   195   206   207    1
   196   211   212    1
   197   211   210    1
   198   219   218    1
   199   185   183    1
   200   183   180    1
   201   223   222    1
   202   221   222    1
   203   221   218    1
   204   180   179    1
   205   173   170    1
   206   224   222    1
   207   207   210    1
   208   207   208    1
   209   218   217    1
   210   169   170    1
   211   169   167   am
   212   209   208    2
   213   170   171    1
   214   165   166    1
   215   166   167    1
   216   167   168    2
   217   171   172    2
