@<TRIPOS>MOLECULE
tmp/5ze8A02.pdb
 195 188 0 0 0
SMALL
GASTEIGER

@<TRIPOS>ATOM
      1  N         56.8400   21.0870   11.0870 N.3     8  SER8       -0.1217
      2  CA        57.4430   21.1550   12.4480 C.3     8  SER8        0.1889
      3  C         57.8460   19.7400   12.9490 C.2     8  SER8        0.2288
      4  O         58.6930   19.5970   13.8720 O.2     8  SER8       -0.2866
      5  CB        56.4900   21.8470   13.4200 C.3     8  SER8        0.2089
      6  OG        56.1200   23.1450   12.9130 O.3     8  SER8       -0.2183
      7  N         61.5520   19.1250   12.4280 N.3    11  CYS11      -0.1235
      8  CA        62.3230   19.7710   13.4560 C.3    11  CYS11       0.1677
      9  C         62.3320   19.0010   14.7330 C.2    11  CYS11       0.2270
     10  O         63.3380   18.9530   15.4150 O.2    11  CYS11      -0.2867
     11  CB        61.8170   21.2080   13.6730 C.3    11  CYS11       0.0956
     12  SG        61.5220   22.2200   12.2260 S.3    11  CYS11      -0.0801
     13  N         64.7650   18.6270   18.1050 N.3    15  HIS15      -0.1241
     14  CA        64.4270   19.7200   19.0300 C.3    15  HIS15       0.1621
     15  C         63.1000   19.2680   19.7130 C.2    15  HIS15       0.2264
     16  O         62.1090   20.0000   19.7380 O.2    15  HIS15      -0.2867
     17  CB        64.1570   21.0220   18.2230 C.3    15  HIS15       0.0745
     18  CG        65.3640   21.5330   17.5410 C.ar   15  HIS15       0.0817
     19  ND1       66.5060   21.9110   18.2250 N.ar   15  HIS15      -0.2268
     20  CD2       65.6710   21.6150   16.2300 C.ar   15  HIS15       0.1154
     21  CE1       67.4050   22.3130   17.3520 C.ar   15  HIS15       0.1986
     22  NE2       66.9280   22.1580   16.1240 N.ar   15  HIS15      -0.2212
     23  N         61.6170   21.6180   22.5740 N.3    18  ILE18      -0.1231
     24  CA        60.9610   22.8460   22.0440 C.3    18  ILE18       0.1692
     25  C         59.6800   22.4620   21.3120 C.2    18  ILE18       0.2592
     26  O         58.6600   23.1420   21.4630 O.2    18  ILE18      -0.2718
     27  CB        61.9330   23.6290   21.1400 C.3    18  ILE18       0.0266
     28  CG1       62.8410   24.4730   22.0590 C.3    18  ILE18       0.0019
     29  CG2       61.2330   24.6080   20.2450 C.3    18  ILE18       0.0020
     30  CD1       64.0570   25.0330   21.3890 C.3    18  ILE18       0.0001
     31  N         59.7340   21.3610   20.5200 N.am   19  TYR19      -0.1976
     32  CA        58.5340   20.8780   19.8780 C.3    19  TYR19       0.1639
     33  C         57.3810   20.6240   20.8520 C.2    19  TYR19       0.2290
     34  O         56.2450   21.0550   20.6240 O.2    19  TYR19      -0.2864
     35  CB        58.7950   19.5930   19.0660 C.3    19  TYR19       0.0560
     36  CG        57.5370   19.0380   18.3930 C.ar   19  TYR19      -0.0198
     37  CD1       57.0850   19.5350   17.1780 C.ar   19  TYR19      -0.0009
     38  CD2       56.7870   18.0960   19.0570 C.ar   19  TYR19      -0.0009
     39  CE1       55.9790   18.9900   16.6100 C.ar   19  TYR19       0.0417
     40  CE2       55.6390   17.5900   18.5240 C.ar   19  TYR19       0.0417
     41  CZ        55.2470   18.0740   17.3110 C.ar   19  TYR19       0.1957
     42  OH        54.1170   17.5300   16.8340 O.3    19  TYR19      -0.2866
     43  N         56.0270   24.0380   21.9810 N.3    22  TRP22      -0.1241
     44  CA        55.3880   24.6970   20.8640 C.3    22  TRP22       0.1605
     45  C         54.0390   24.0400   20.5490 C.2    22  TRP22       0.2264
     46  O         53.0720   24.7520   20.3030 O.2    22  TRP22      -0.2867
     47  CB        56.3020   24.7050   19.6160 C.3    22  TRP22       0.0550
     48  CG        55.5300   25.1480   18.3690 C.ar   22  TRP22       0.0003
     49  CD1       55.1930   26.3960   18.0330 C.ar   22  TRP22       0.0946
     50  CD2       54.9630   24.2960   17.4150 C.ar   22  TRP22       0.0152
     51  NE1       54.4160   26.3900   16.9370 N.ar   22  TRP22      -0.2442
     52  CE2       54.2520   25.1010   16.5220 C.ar   22  TRP22       0.0810
     53  CE3       54.9920   22.9260   17.2120 C.ar   22  TRP22       0.0012
     54  CZ2       53.5740   24.6030   15.4660 C.ar   22  TRP22       0.0191
     55  CZ3       54.2390   22.4210   16.1520 C.ar   22  TRP22       0.0001
     56  CH2       53.5930   23.2880   15.2730 C.ar   22  TRP22       0.0015
     57  N         50.2170   29.3910   19.3870 N.3    27  HIS27      -0.1241
     58  CA        50.8620   29.5260   18.0730 C.3    27  HIS27       0.1621
     59  C         50.6190   28.2900   17.1860 C.2    27  HIS27       0.2264
     60  O         50.2690   28.4180   16.0240 O.2    27  HIS27      -0.2867
     61  CB        52.3560   29.8140   18.1950 C.3    27  HIS27       0.0745
     62  CG        52.6720   31.1500   18.7320 C.ar   27  HIS27       0.0817
     63  ND1       53.6450   31.3950   19.6750 N.ar   27  HIS27      -0.2268
     64  CD2       52.1120   32.3480   18.4430 C.ar   27  HIS27       0.1154
     65  CE1       53.6100   32.6970   19.9490 C.ar   27  HIS27       0.1986
     66  NE2       52.7130   33.2860   19.2130 N.ar   27  HIS27      -0.2212
     67  N         51.2080   29.1960   13.3950 N.3    91  VAL91      -0.1231
     68  CA        52.4710   29.9040   13.5880 C.3    91  VAL91       0.1692
     69  C         53.4940   28.8540   14.0520 C.2    91  VAL91       0.2592
     70  O         53.6450   28.6040   15.2420 O.2    91  VAL91      -0.2718
     71  CB        52.2510   31.0390   14.6120 C.3    91  VAL91       0.0266
     72  CG1       53.5390   31.8280   14.8040 C.3    91  VAL91       0.0020
     73  CG2       51.2400   32.0420   14.1250 C.3    91  VAL91       0.0020
     74  N         54.1760   28.2900   13.0690 N.am   92  ASN92      -0.1960
     75  CA        55.0110   27.1190   13.2850 C.3    92  ASN92       0.1819
     76  C         56.4910   27.4450   13.2540 C.2    92  ASN92       0.2621
     77  O         56.8560   28.6150   13.1620 O.2    92  ASN92      -0.2715
     78  CB        54.5950   26.0220   12.3460 C.3    92  ASN92       0.1195
     79  CG        55.0360   26.1990   10.9460 C.2    92  ASN92       0.2630
     80  OD1       55.5930   27.2320   10.5860 O.2    92  ASN92      -0.2716
     81  ND2       54.8070   25.1300   10.0970 N.am   92  ASN92      -0.0877
     82  N         57.3550   26.4120   13.3950 N.am   93  CYS93      -0.1968
     83  CA        58.7960   26.6810   13.5060 C.3    93  CYS93       0.1712
     84  C         59.2910   27.5220   12.3990 C.2    93  CYS93       0.2296
     85  O         59.9420   28.5410   12.6360 O.2    93  CYS93      -0.2864
     86  CB        59.6540   25.3950   13.6000 C.3    93  CYS93       0.0983
     87  SG        58.9570   24.0150   14.5540 S.3    93  CYS93      -0.0798
     88  N         58.0480   31.3860   12.1650 N.3    96  CYS96      -0.1221
     89  CA        58.7970   32.3520   12.9370 C.3    96  CYS96       0.1808
     90  C         60.2640   32.3960   12.5020 C.2    96  CYS96       0.2601
     91  O         60.8610   33.4970   12.4730 O.2    96  CYS96      -0.2717
     92  CB        58.7710   31.9850   14.4010 C.3    96  CYS96       0.0970
     93  SG        57.2770   32.5750   15.1950 S.3    96  CYS96      -0.0800
     94  N         60.8550   31.2340   12.2160 N.am   97  HIS97      -0.1975
     95  CA        62.2800   31.1940   11.9590 C.3    97  HIS97       0.1656
     96  C         62.7070   31.5560   10.5390 C.2    97  HIS97       0.2291
     97  O         63.8770   31.4530   10.2210 O.2    97  HIS97      -0.2864
     98  CB        62.9480   29.8570   12.4420 C.3    97  HIS97       0.0771
     99  CG        63.0430   29.7730   13.9270 C.ar   97  HIS97       0.0820
    100  ND1       64.0860   30.3950   14.6270 N.ar   97  HIS97      -0.2267
    101  CD2       62.2230   29.2040   14.8720 C.ar   97  HIS97       0.1154
    102  CE1       63.8530   30.1960   15.9270 C.ar   97  HIS97       0.1986
    103  NE2       62.7640   29.4710   16.1050 N.ar   97  HIS97      -0.2212
    104  N         69.3180   32.9730   16.7820 N.3   128  PRO128     -0.2116
    105  CA        69.9330   34.0210   17.6190 C.3   128  PRO128      0.1372
    106  C         71.4230   34.0460   17.5510 C.2   128  PRO128      0.2244
    107  O         72.0060   35.1230   17.5520 O.2   128  PRO128     -0.2868
    108  CB        69.4250   33.6850   19.0230 C.3   128  PRO128      0.0268
    109  CG        68.8860   32.3240   18.9870 C.3   128  PRO128      0.0207
    110  CD        68.5430   31.9880   17.5750 C.3   128  PRO128      0.0892
    111  N         65.9310   37.8930   16.2300 N.3   169  LEU169     -0.1231
    112  CA        65.5320   36.8200   17.1380 C.3   169  LEU169      0.1693
    113  C         65.4880   37.2120   18.6250 C.2   169  LEU169      0.2591
    114  O         64.7720   36.6150   19.4390 O.2   169  LEU169     -0.2718
    115  CB        66.4510   35.5910   16.9930 C.3   169  LEU169      0.0284
    116  CG        66.0880   34.5930   15.8950 C.3   169  LEU169      0.0019
    117  CD1       64.7960   33.8470   16.1840 C.3   169  LEU169      0.0001
    118  CD2       66.0810   35.2120   14.5170 C.3   169  LEU169      0.0001
    119  N         66.3470   38.1670   19.0390 N.am  170  ARG170     -0.1980
    120  CA        66.4700   38.4760   20.4450 C.3   170  ARG170      0.1597
    121  C         65.6950   39.6810   20.9030 C.2   170  ARG170      0.2287
    122  O         65.6380   39.9290   22.1490 O.2   170  ARG170     -0.2864
    123  CB        67.9320   38.6510   20.8710 C.3   170  ARG170      0.0334
    124  CG        68.8450   37.4840   20.6580 C.3   170  ARG170      0.0492
    125  CD        69.9280   37.6400   21.7120 C.3   170  ARG170      0.2205
    126  NE        70.9820   36.6350   21.5550 N.pl3 170  ARG170     -0.0865
    127  CZ        71.0130   35.4660   22.1390 C.cat 170  ARG170      0.5346
    128  NH1       70.0320   35.0270   22.9060 N.pl3 170  ARG170      0.1354
    129  NH2       71.9920   34.6520   21.8440 N.pl3 170  ARG170      0.1354
    130  N         60.9140   40.0580   16.8160 N.3   174  ALA174     -0.1231
    131  CA        60.4690   38.6630   16.6580 C.3   174  ALA174      0.1694
    132  C         58.9560   38.5780   16.8000 C.2   174  ALA174      0.2592
    133  O         58.4090   37.5070   16.4040 O.2   174  ALA174     -0.2718
    134  CB        61.1300   37.7740   17.6740 C.3   174  ALA174      0.0304
    135  N         58.2920   39.5780   17.3770 N.am  175  CYS175     -0.1970
    136  CA        56.8760   39.4340   17.7430 C.3   175  CYS175      0.1712
    137  C         56.0050   40.5080   17.1000 C.2   175  CYS175      0.2296
    138  O         54.8030   40.3430   16.9850 O.2   175  CYS175     -0.2864
    139  CB        56.7260   39.5470   19.2780 C.3   175  CYS175      0.0983
    140  SG        57.9720   38.5790   20.1920 S.3   175  CYS175     -0.0798
    141  N         60.6090   38.4310   24.7780 N.3   207  GLN207     -0.1245
    142  CA        61.1940   37.1410   25.0760 C.3   207  GLN207      0.1566
    143  C         61.6870   36.9890   26.4990 C.2   207  GLN207      0.2260
    144  O         61.6980   35.8730   27.0130 O.2   207  GLN207     -0.2867
    145  CB        62.3400   36.8190   24.1270 C.3   207  GLN207      0.0367
    146  CG        61.9420   36.7330   22.6720 C.3   207  GLN207      0.0905
    147  CD        62.0820   38.0530   21.9420 C.2   207  GLN207      0.2608
    148  OE1       61.6180   39.1260   22.3820 O.2   207  GLN207     -0.2717
    149  NE2       62.6590   37.9810   20.7370 N.am  207  GLN207     -0.0878
    150  N         59.6950   33.8620   26.6500 N.3   211  MET211     -0.1245
    151  CA        60.5680   32.7740   26.2140 C.3   211  MET211      0.1570
    152  C         61.7060   32.5660   27.1790 C.2   211  MET211      0.2261
    153  O         62.8630   32.6160   26.8230 O.2   211  MET211     -0.2867
    154  CB        61.0690   32.9320   24.8120 C.3   211  MET211      0.0387
    155  CG        59.9800   33.0220   23.7520 C.3   211  MET211      0.0595
    156  SD        60.5860   33.0960   22.0290 S.3   211  MET211     -0.1393
    157  CE        61.2610   31.4190   21.9150 C.3   211  MET211      0.0692
    158  N         67.5970   25.3550   30.4680 N.3   216  GLY216     -0.1210
    159  CA        68.7550   25.6890   29.6060 C.3   216  GLY216      0.1956
    160  C         68.5720   26.1190   28.1990 C.2   216  GLY216      0.2612
    161  O         69.4770   26.1830   27.4000 O.2   216  GLY216     -0.2717
    162  N         67.3220   26.4350   27.8430 N.am  217  PHE217     -0.1962
    163  CA        67.0400   26.9520   26.4750 C.3   217  PHE217      0.1771
    164  C         65.7590   27.7500   26.5580 C.2   217  PHE217      0.2619
    165  O         65.0600   27.6580   27.5720 O.2   217  PHE217     -0.2715
    166  CB        66.8370   25.7950   25.4690 C.3   217  PHE217      0.0574
    167  CG        65.7460   24.8320   25.8400 C.ar  217  PHE217     -0.0200
    168  CD1       65.9390   23.7560   26.7050 C.ar  217  PHE217     -0.0042
    169  CD2       64.4370   25.0310   25.3260 C.ar  217  PHE217     -0.0042
    170  CE1       64.9350   22.9420   27.0900 C.ar  217  PHE217     -0.0003
    171  CE2       63.4300   24.2020   25.7090 C.ar  217  PHE217     -0.0003
    172  CZ        63.6640   23.1220   26.5600 C.ar  217  PHE217     -0.0000
    173  N         65.4870   28.4720   25.4890 N.am  218  ALA218     -0.1977
    174  CA        64.3280   29.4330   25.4620 C.3   218  ALA218      0.1597
    175  C         63.0160   28.6380   25.3690 C.2   218  ALA218      0.2287
    176  O         62.7790   27.8270   24.4460 O.2   218  ALA218     -0.2864
    177  CB        64.4180   30.4560   24.3080 C.3   218  ALA218      0.0319
    178  N         59.4930   27.6720   24.5660 N.3   220  HIS220     -0.1241
    179  CA        58.5590   28.0080   23.4520 C.3   220  HIS220      0.1621
    180  C         57.0750   27.8190   23.7990 C.2   220  HIS220      0.2264
    181  O         56.1930   27.8990   22.9120 O.2   220  HIS220     -0.2867
    182  CB        58.9240   27.2370   22.2340 C.3   220  HIS220      0.0745
    183  CG        60.0780   27.7770   21.4720 C.ar  220  HIS220      0.0817
    184  ND1       61.3670   27.9130   21.9990 N.ar  220  HIS220     -0.2268
    185  CD2       60.1530   28.1290   20.1600 C.ar  220  HIS220      0.1154
    186  CE1       62.1630   28.3050   20.9860 C.ar  220  HIS220      0.1986
    187  NE2       61.4380   28.4780   19.8880 N.ar  220  HIS220     -0.2212
    188  N         55.0140   29.8620   25.5100 N.3   222  MET222     -0.1245
    189  CA        54.4090   31.1580   25.1690 C.3   222  MET222      0.1570
    190  C         52.9170   31.1920   25.5100 C.2   222  MET222      0.2261
    191  O         52.0470   31.5180   24.6870 O.2   222  MET222     -0.2867
    192  CB        54.7000   31.4610   23.6970 C.3   222  MET222      0.0387
    193  CG        56.2010   31.6020   23.4730 C.3   222  MET222      0.0595
    194  SD        56.5970   32.2820   21.8160 S.3   222  MET222     -0.1393
    195  CE        57.6690   31.0600   21.2190 C.3   222  MET222      0.0692
@<TRIPOS>BOND
     1    81    79   am
     2    97    96    2
     3    96    95    1
     4    80    79    2
     5    79    78    1
     6     1     2    1
     7    95    94    1
     8    95    98    1
     9    88    89    1
    10    94    90   am
    11    12    11    1
    12    78    75    1
    13    84    85    2
    14    84    83    1
    15     7     8    1
    16    98    99    1
    17     2     3    1
    18     2     5    1
    19    91    90    2
    20    90    89    1
    21     6     5    1
    22    89    92    1
    23     3     4    2
    24    74    75    1
    25    74    69   am
    26    77    76    2
    27    76    75    1
    28    76    82   am
    29    82    83    1
    30    67    68    1
    31     8    11    1
    32     8     9    1
    33    83    86    1
    34    68    69    1
    35    68    71    1
    36    86    87    1
    37    99   100   ar
    38    99   101   ar
    39    69    70    2
    40    73    71    1
    41    92    93    1
    42   118   116    1
    43    71    72    1
    44   100   102   ar
    45     9    10    2
    46   101   103   ar
    47    56    54   ar
    48    56    55   ar
    49    54    52   ar
    50   116   117    1
    51   116   115    1
    52   102   103   ar
    53    60    59    2
    54    22    20   ar
    55    22    21   ar
    56    55    53   ar
    57    20    18   ar
    58   111   112    1
    59   133   132    2
    60    52    51   ar
    61    52    50   ar
    62    39    37   ar
    63    39    41   ar
    64   131   132    1
    65   131   130    1
    66   131   134    1
    67   104   110    1
    68   104   105    1
    69   132   135   am
    70    42    41    1
    71    51    49   ar
    72   138   137    2
    73   115   112    1
    74   137   136    1
    75   112   113    1
    76    37    36   ar
    77    59    58    1
    78    53    50   ar
    79    41    40   ar
    80    21    19   ar
    81   135   136    1
    82    50    48   ar
    83    18    17    1
    84    18    19   ar
    85   106   107    2
    86   106   105    1
    87   110   109    1
    88   105   108    1
    89   136   139    1
    90    49    48   ar
    91    58    61    1
    92    58    57    1
    93    13    14    1
    94    61    62    1
    95    17    14    1
    96    48    47    1
    97    36    38   ar
    98    36    35    1
    99    64    62   ar
   100    64    66   ar
   101    40    38   ar
   102   113   119   am
   103   113   114    2
   104    62    63   ar
   105   109   108    1
   106    14    15    1
   107   119   120    1
   108    35    32    1
   109    66    65   ar
   110   139   140    1
   111    47    44    1
   112    63    65   ar
   113    15    16    2
   114    32    31    1
   115    32    33    1
   116   187   185   ar
   117   187   186   ar
   118   185   183   ar
   119    29    27    1
   120    46    45    2
   121   120   123    1
   122   120   121    1
   123    31    25   am
   124    45    44    1
   125    34    33    2
   126   124   123    1
   127   124   125    1
   128   149   147   am
   129    44    43    1
   130   121   122    2
   131   186   184   ar
   132    27    24    1
   133    27    28    1
   134   195   194    1
   135    25    26    2
   136    25    24    1
   137    30    28    1
   138   183   184   ar
   139   183   182    1
   140   126   125    1
   141   126   127    2
   142   194   193    1
   143   129   127    1
   144   157   156    1
   145   147   148    2
   146   147   146    1
   147   156   155    1
   148    24    23    1
   149   127   128    1
   150   182   179    1
   151   146   145    1
   152   181   180    2
   153   179   180    1
   154   179   178    1
   155   193   192    1
   156   192   189    1
   157   155   154    1
   158   145   142    1
   159   177   174    1
   160   176   175    2
   161   191   190    2
   162   141   142    1
   163   154   151    1
   164   142   143    1
   165   189   190    1
   166   189   188    1
   167   169   171   ar
   168   169   167   ar
   169   175   174    1
   170   174   173    1
   171   166   167    1
   172   166   163    1
   173   173   164   am
   174   171   172   ar
   175   167   168   ar
   176   151   150    1
   177   151   152    1
   178   163   164    1
   179   163   162    1
   180   143   144    2
   181   164   165    2
   182   172   170   ar
   183   168   170   ar
   184   153   152    2
   185   161   160    2
   186   162   160   am
   187   160   159    1
   188   159   158    1
