@<TRIPOS>MOLECULE
tmp/5ze8A04.pdb
 211 204 0 0 0
SMALL
GASTEIGER

@<TRIPOS>ATOM
      1  N         62.0640   42.4950   20.2810 N.3   172  SER172     -0.1217
      2  CA        60.6920   42.4740   19.9720 C.3   172  SER172      0.1889
      3  C         60.4120   42.4310   18.5090 C.2   172  SER172      0.2288
      4  O         59.2350   42.1550   18.1300 O.2   172  SER172     -0.2866
      5  CB        59.9320   43.6460   20.6040 C.3   172  SER172      0.2089
      6  OG        60.2970   44.9160   20.0110 O.3   172  SER172     -0.2183
      7  N         58.2920   39.5780   17.3770 N.3   175  CYS175     -0.1221
      8  CA        56.8760   39.4340   17.7430 C.3   175  CYS175      0.1808
      9  C         56.0050   40.5080   17.1000 C.2   175  CYS175      0.2601
     10  O         54.8030   40.3430   16.9850 O.2   175  CYS175     -0.2717
     11  CB        56.7260   39.5470   19.2780 C.3   175  CYS175      0.0970
     12  SG        57.9720   38.5790   20.1920 S.3   175  CYS175     -0.0800
     13  N         56.5700   41.6890   16.7970 N.am  176  MET176     -0.1979
     14  CA        55.7430   42.8560   16.5710 C.3   176  MET176      0.1605
     15  C         54.8810   42.8080   15.3420 C.2   176  MET176      0.2287
     16  O         53.8080   43.4570   15.3700 O.2   176  MET176     -0.2864
     17  CB        56.5670   44.1890   16.5580 C.3   176  MET176      0.0413
     18  CG        57.0450   44.6480   17.8830 C.3   176  MET176      0.0598
     19  SD        55.6730   45.1230   18.9680 S.3   176  MET176     -0.1393
     20  CE        55.8290   43.6240   19.7420 C.3   176  MET176      0.0692
     21  N         51.8710   41.1450   16.7220 N.3   179  HIS179     -0.1241
     22  CA        51.3960   41.5940   18.0250 C.3   179  HIS179      0.1621
     23  C         51.3820   43.0990   18.2630 C.2   179  HIS179      0.2264
     24  O         50.9210   43.5230   19.3650 O.2   179  HIS179     -0.2867
     25  CB        52.2870   40.9300   19.0520 C.3   179  HIS179      0.0745
     26  CG        51.8980   39.4960   19.3120 C.ar  179  HIS179      0.0817
     27  ND1       50.8180   39.1850   20.1340 N.ar  179  HIS179     -0.2268
     28  CD2       52.4770   38.3200   18.9390 C.ar  179  HIS179      0.1154
     29  CE1       50.7730   37.8440   20.2040 C.ar  179  HIS179      0.1986
     30  NE2       51.7350   37.3160   19.4520 N.ar  179  HIS179     -0.2212
     31  N         48.8800   46.1020   21.6900 N.3   193  THR193     -0.1218
     32  CA        49.9530   45.6830   22.6470 C.3   193  THR193      0.1862
     33  C         51.2240   46.5270   22.4000 C.2   193  THR193      0.2287
     34  O         51.8970   46.9510   23.3520 O.2   193  THR193     -0.2866
     35  CB        50.3160   44.2080   22.4800 C.3   193  THR193      0.1770
     36  OG1       49.1860   43.4070   22.6800 O.3   193  THR193     -0.2211
     37  CG2       51.4350   43.7440   23.4780 C.3   193  THR193      0.0375
     38  N         52.9610   49.1210   25.0530 N.3   197  PHE197     -0.1241
     39  CA        54.3700   48.8780   25.3840 C.3   197  PHE197      0.1605
     40  C         55.2160   50.1560   25.2310 C.2   197  PHE197      0.2264
     41  O         55.9900   50.4970   26.1130 O.2   197  PHE197     -0.2867
     42  CB        54.9450   47.6940   24.5640 C.3   197  PHE197      0.0534
     43  CG        56.2870   47.2760   25.0570 C.ar  197  PHE197     -0.0203
     44  CD1       57.3850   48.0240   24.6690 C.ar  197  PHE197     -0.0042
     45  CD2       56.4290   46.3060   25.9970 C.ar  197  PHE197     -0.0042
     46  CE1       58.6370   47.7330   25.1840 C.ar  197  PHE197     -0.0003
     47  CE2       57.6970   45.9880   26.5090 C.ar  197  PHE197     -0.0003
     48  CZ        58.7710   46.7090   26.1000 C.ar  197  PHE197     -0.0000
     49  N         62.2440   46.0890   28.2160 N.3   204  VAL204     -0.1231
     50  CA        62.3980   44.6150   28.2860 C.3   204  VAL204      0.1692
     51  C         61.8120   44.0220   26.9770 C.2   204  VAL204      0.2592
     52  O         60.6780   44.3070   26.6380 O.2   204  VAL204     -0.2718
     53  CB        61.6320   44.0620   29.4550 C.3   204  VAL204      0.0266
     54  CG1       61.7480   42.5520   29.5750 C.3   204  VAL204      0.0020
     55  CG2       62.1770   44.7670   30.7200 C.3   204  VAL204      0.0020
     56  N         62.5820   43.1380   26.3090 N.am  205  ALA205     -0.1966
     57  CA        62.1790   42.3650   25.1150 C.3   205  ALA205      0.1728
     58  C         61.0860   41.3710   25.5340 C.2   205  ALA205      0.2616
     59  O         61.1450   40.8490   26.6510 O.2   205  ALA205     -0.2715
     60  CB        63.3610   41.5950   24.5800 C.3   205  ALA205      0.0334
     61  N         60.1070   41.1740   24.6300 N.am  206  CYS206     -0.1968
     62  CA        58.9800   40.2580   24.9420 C.3   206  CYS206      0.1712
     63  C         59.5070   38.9130   25.4310 C.2   206  CYS206      0.2296
     64  O         59.0020   38.2950   26.3380 O.2   206  CYS206     -0.2864
     65  CB        58.1050   40.0400   23.6610 C.3   206  CYS206      0.0983
     66  SG        57.7100   41.4710   22.6980 S.3   206  CYS206     -0.0798
     67  N         60.3050   37.7300   29.1880 N.3   209  CYS209     -0.1221
     68  CA        59.2350   37.1830   29.9600 C.3   209  CYS209      0.1808
     69  C         58.5730   35.9470   29.3300 C.2   209  CYS209      0.2601
     70  O         58.1560   35.0670   30.0270 O.2   209  CYS209     -0.2717
     71  CB        58.1520   38.2680   30.1460 C.3   209  CYS209      0.0970
     72  SG        58.8480   39.5860   31.1550 S.3   209  CYS209     -0.0800
     73  N         58.4210   35.9570   27.9850 N.am  210  HIS210     -0.1975
     74  CA        57.6110   34.9660   27.2720 C.3   210  HIS210      0.1656
     75  C         58.3490   33.7970   26.6770 C.2   210  HIS210      0.2291
     76  O         57.7480   32.8490   26.2760 O.2   210  HIS210     -0.2864
     77  CB        56.8280   35.6930   26.1740 C.3   210  HIS210      0.0771
     78  CG        55.6570   36.5000   26.6460 C.ar  210  HIS210      0.0820
     79  ND1       54.5770   35.9010   27.2220 N.ar  210  HIS210     -0.2267
     80  CD2       55.4350   37.8340   26.6990 C.ar  210  HIS210      0.1154
     81  CE1       53.6960   36.8390   27.5520 C.ar  210  HIS210      0.1986
     82  NE2       54.2130   38.0010   27.2770 N.ar  210  HIS210     -0.2212
     83  N         49.6060   32.6100   27.4990 N.3   224  GLY224     -0.1210
     84  CA        49.0070   33.8070   27.9440 C.3   224  GLY224      0.1956
     85  C         47.6390   33.4960   28.5370 C.2   224  GLY224      0.2612
     86  O         47.4990   32.8040   29.5340 O.2   224  GLY224     -0.2717
     87  N         46.5990   34.0390   27.9170 N.am  225  GLY225     -0.1956
     88  CA        45.2230   33.9290   28.4340 C.3   225  GLY225      0.1869
     89  C         44.6550   32.5370   28.4640 C.2   225  GLY225      0.2309
     90  O         43.6730   32.3170   29.1720 O.2   225  GLY225     -0.2863
     91  N         50.1560   31.3390   34.1530 N.3   230  MET230     -0.1230
     92  CA        50.6800   32.5580   33.7100 C.3   230  MET230      0.1702
     93  C         49.7590   33.6870   34.2410 C.2   230  MET230      0.2592
     94  O         50.2180   34.7460   34.5790 O.2   230  MET230     -0.2718
     95  CB        50.7300   32.5490   32.1580 C.3   230  MET230      0.0401
     96  CG        51.4900   33.6490   31.6180 C.3   230  MET230      0.0596
     97  SD        53.2790   33.4190   31.9960 S.3   230  MET230     -0.1393
     98  CE        53.8840   34.7990   31.0200 C.3   230  MET230      0.0692
     99  N         48.4690   33.5040   34.0620 N.am  231  LEU231     -0.1980
    100  CA        47.5040   34.5370   34.4960 C.3   231  LEU231      0.1596
    101  C         47.6320   34.8480   36.0020 C.2   231  LEU231      0.2287
    102  O         47.5590   35.9510   36.4050 O.2   231  LEU231     -0.2864
    103  CB        46.0980   34.0570   34.2100 C.3   231  LEU231      0.0297
    104  CG        45.7270   34.1030   32.6950 C.3   231  LEU231      0.0022
    105  CD1       44.4590   33.3120   32.4950 C.3   231  LEU231      0.0001
    106  CD2       45.5840   35.5280   32.2660 C.3   231  LEU231      0.0001
    107  N         50.2810   34.7000   37.8630 N.3   233  ARG233     -0.1231
    108  CA        51.4980   35.5090   37.9890 C.3   233  ARG233      0.1694
    109  C         51.4440   36.8360   37.4610 C.2   233  ARG233      0.2592
    110  O         52.3160   37.6460   37.7110 O.2   233  ARG233     -0.2718
    111  CB        52.7250   34.7550   37.3970 C.3   233  ARG233      0.0321
    112  CG        53.2470   33.6690   38.3160 C.3   233  ARG233      0.0489
    113  CD        54.0980   34.1460   39.5000 C.3   233  ARG233      0.2205
    114  NE        55.2730   34.8250   39.0040 N.pl3 233  ARG233     -0.0865
    115  CZ        56.3940   34.1800   38.7080 C.cat 233  ARG233      0.5346
    116  NH1       56.4410   32.8670   38.8270 N.pl3 233  ARG233      0.1354
    117  NH2       57.4110   34.8340   38.1580 N.pl3 233  ARG233      0.1354
    118  N         50.4070   37.1840   36.7130 N.am  234  SER234     -0.1952
    119  CA        50.4780   38.3680   35.9600 C.3   234  SER234      0.1924
    120  C         50.1430   39.6430   36.6720 C.2   234  SER234      0.2314
    121  O         50.4300   40.7360   36.1850 O.2   234  SER234     -0.2863
    122  CB        49.5810   38.2100   34.7320 C.3   234  SER234      0.2116
    123  OG        48.2150   38.3440   35.1220 O.3   234  SER234     -0.2180
    124  N         51.8840   43.5790   36.7110 N.3   257  LEU257     -0.1231
    125  CA        53.3270   43.2790   36.6050 C.3   257  LEU257      0.1693
    126  C         53.8400   43.3990   35.1690 C.2   257  LEU257      0.2592
    127  O         55.0740   43.1550   34.9380 O.2   257  LEU257     -0.2718
    128  CB        53.6130   41.8630   37.1140 C.3   257  LEU257      0.0284
    129  CG        53.4690   41.7750   38.6440 C.3   257  LEU257      0.0019
    130  CD1       53.3920   40.3110   39.0740 C.3   257  LEU257      0.0001
    131  CD2       54.4860   42.6450   39.4100 C.3   257  LEU257      0.0001
    132  N         52.9890   43.7050   34.1780 N.am  258  GLN258     -0.1966
    133  CA        53.3470   43.6460   32.7640 C.3   258  GLN258      0.1718
    134  C         53.6830   45.0290   32.2350 C.2   258  GLN258      0.2458
    135  O         53.1450   46.0560   32.7350 O.2   258  GLN258     -0.2730
    136  CB        52.1320   43.0770   32.0030 C.3   258  GLN258      0.0407
    137  CG        51.6640   41.7250   32.5560 C.3   258  GLN258      0.0908
    138  CD        50.1820   41.4950   32.3080 C.2   258  GLN258      0.2608
    139  OE1       49.6490   41.7720   31.1880 O.2   258  GLN258     -0.2717
    140  NE2       49.5150   40.9990   33.3090 N.am  258  GLN258     -0.0878
    141  N         54.4450   45.1500   31.1430 N.am  259  PRO259     -0.2716
    142  CA        54.7970   46.3960   30.5270 C.3   259  PRO259      0.1536
    143  C         53.7910   46.8060   29.4300 C.2   259  PRO259      0.2598
    144  O         53.9660   47.7840   28.7530 O.2   259  PRO259     -0.2715
    145  CB        56.1470   46.0490   29.8890 C.3   259  PRO259      0.0310
    146  CG        56.0370   44.6150   29.4940 C.3   259  PRO259      0.0237
    147  CD        55.2410   44.0130   30.6230 C.3   259  PRO259      0.0939
    148  N         52.8050   45.9280   29.1700 N.am  260  HIS260     -0.1974
    149  CA        51.6520   46.2090   28.3270 C.3   260  HIS260      0.1656
    150  C         50.4520   46.2810   29.2630 C.2   260  HIS260      0.2291
    151  O         50.5680   45.9750   30.4350 O.2   260  HIS260     -0.2864
    152  CB        51.4830   45.1660   27.2060 C.3   260  HIS260      0.0771
    153  CG        51.6410   43.7120   27.6410 C.ar  260  HIS260      0.0820
    154  ND1       50.8210   43.0460   28.5550 N.ar  260  HIS260     -0.2267
    155  CD2       52.5450   42.7790   27.2260 C.ar  260  HIS260      0.1154
    156  CE1       51.2350   41.7910   28.6680 C.ar  260  HIS260      0.1986
    157  NE2       52.2790   41.6040   27.8610 N.ar  260  HIS260     -0.2212
    158  N         46.9010   45.1330   31.0490 N.3   262  MET262     -0.1231
    159  CA        46.4110   43.8860   31.5240 C.3   262  MET262      0.1687
    160  C         44.8960   43.9670   31.5350 C.2   262  MET262      0.2434
    161  O         44.3680   44.6980   32.3610 O.2   262  MET262     -0.2733
    162  CB        46.9190   43.5320   32.9100 C.3   262  MET262      0.0400
    163  CG        46.2820   42.3340   33.5730 C.3   262  MET262      0.0596
    164  SD        46.1840   40.8360   32.6160 S.3   262  MET262     -0.1393
    165  CE        45.4920   39.6300   33.7890 C.3   262  MET262      0.0692
    166  N         44.1860   43.2750   30.6500 N.am  263  PRO263     -0.2718
    167  CA        44.6720   42.3400   29.6690 C.3   263  PRO263      0.1535
    168  C         44.9730   42.9780   28.3290 C.2   263  PRO263      0.2599
    169  O         44.1320   43.7030   27.7270 O.2   263  PRO263     -0.2715
    170  CB        43.4970   41.3510   29.5490 C.3   263  PRO263      0.0310
    171  CG        42.2710   42.2560   29.7420 C.3   263  PRO263      0.0237
    172  CD        42.7060   43.2550   30.7360 C.3   263  PRO263      0.0939
    173  N         46.1230   42.6480   27.7670 N.am  264  THR264     -0.1937
    174  CA        46.4730   43.1210   26.4370 C.3   264  THR264      0.2028
    175  C         45.8990   42.2040   25.3470 C.2   264  THR264      0.2643
    176  O         45.3820   41.1280   25.6140 O.2   264  THR264     -0.2714
    177  CB        47.9980   43.2600   26.2900 C.3   264  THR264      0.1808
    178  OG1       48.3070   44.1510   25.2060 O.3   264  THR264     -0.2208
    179  CG2       48.7000   41.9110   26.1490 C.3   264  THR264      0.0379
    180  N         46.0810   42.6200   24.0960 N.am  265  GLY265     -0.1939
    181  CA        45.7600   41.8610   22.9120 C.3   265  GLY265      0.2014
    182  C         44.3150   41.9960   22.4300 C.2   265  GLY265      0.2638
    183  O         43.8890   43.0970   22.1320 O.2   265  GLY265     -0.2714
    184  N         43.6440   40.8750   22.2320 N.am  266  ALA266     -0.1977
    185  CA        42.3090   40.8890   21.6620 C.3   266  ALA266      0.1597
    186  C         41.3850   41.7810   22.4380 C.2   266  ALA266      0.2287
    187  O         41.4570   41.9130   23.6640 O.2   266  ALA266     -0.2864
    188  CB        41.7610   39.4680   21.6120 C.3   266  ALA266      0.0319
    189  N         39.1850   40.6370   25.6200 N.3   269  ARG269     -0.1245
    190  CA        39.6630   40.2360   26.8800 C.3   269  ARG269      0.1563
    191  C         39.1570   41.2080   27.9700 C.2   269  ARG269      0.2260
    192  O         39.1190   42.4320   27.8040 O.2   269  ARG269     -0.2867
    193  CB        41.1860   40.2630   26.9290 C.3   269  ARG269      0.0307
    194  CG        41.9340   39.4480   25.9350 C.3   269  ARG269      0.0489
    195  CD        41.4980   38.0050   25.9600 C.3   269  ARG269      0.2205
    196  NE        42.4370   37.1520   25.2380 N.pl3 269  ARG269     -0.0865
    197  CZ        42.1480   36.2880   24.2800 C.cat 269  ARG269      0.5346
    198  NH1       43.1250   35.5740   23.7460 N.pl3 269  ARG269      0.1354
    199  NH2       40.8790   36.1810   23.8100 N.pl3 269  ARG269      0.1354
    200  N         39.4890   36.4960   35.1410 N.3   354  TYR354     -0.1241
    201  CA        39.8770   36.7640   33.7470 C.3   354  TYR354      0.1605
    202  C         38.9370   36.0530   32.7670 C.2   354  TYR354      0.2264
    203  O         38.4600   34.9220   32.9640 O.2   354  TYR354     -0.2867
    204  CB        41.2890   36.2810   33.5320 C.3   354  TYR354      0.0534
    205  CG        41.8140   36.3820   32.0950 C.ar  354  TYR354     -0.0201
    206  CD1       41.5790   35.3650   31.2210 C.ar  354  TYR354     -0.0009
    207  CD2       42.5420   37.5000   31.6060 C.ar  354  TYR354     -0.0009
    208  CE1       42.0590   35.3770   29.8980 C.ar  354  TYR354      0.0417
    209  CE2       43.0150   37.5480   30.2770 C.ar  354  TYR354      0.0417
    210  CZ        42.7660   36.4800   29.4520 C.ar  354  TYR354      0.1957
    211  OH        43.2620   36.4680   28.1710 O.3   354  TYR354     -0.2866
@<TRIPOS>BOND
     1    15    16    2
     2    15    14    1
     3    17    14    1
     4    17    18    1
     5    14    13    1
     6    21    22    1
     7    13     9   am
     8    10     9    2
     9     9     8    1
    10     7     8    1
    11     8    11    1
    12    18    19    1
    13    22    23    1
    14    22    25    1
    15     4     3    2
    16    23    24    2
    17     3     2    1
    18    28    26   ar
    19    28    30   ar
    20    19    20    1
    21    25    26    1
    22    11    12    1
    23    26    27   ar
    24    30    29   ar
    25     2     1    1
    26     2     5    1
    27     6     5    1
    28    27    29   ar
    29   188   185    1
    30   185   184    1
    31   185   186    1
    32    31    32    1
    33   183   182    2
    34   184   182   am
    35    33    32    1
    36    33    34    2
    37   182   181    1
    38   186   187    2
    39    35    32    1
    40    35    36    1
    41    35    37    1
    42    66    65    1
    43   181   180    1
    44    65    62    1
    45   198   197    1
    46   199   197    1
    47   180   175   am
    48   197   196    2
    49    42    43    1
    50    42    39    1
    51    60    57    1
    52    61    62    1
    53    61    58   am
    54    44    43   ar
    55    44    46   ar
    56    62    63    1
    57    38    39    1
    58    43    45   ar
    59    57    58    1
    60    57    56    1
    61    46    48   ar
    62   178   177    1
    63    40    39    1
    64    40    41    2
    65   196   195    1
    66   175   176    2
    67   175   174    1
    68    63    64    2
    69    58    59    2
    70   189   190    1
    71   194   195    1
    72   194   193    1
    73    45    47   ar
    74    48    47   ar
    75   179   177    1
    76    77    78    1
    77    77    74    1
    78    76    75    2
    79   177   174    1
    80    56    51   am
    81   174   173    1
    82    52    51    2
    83    78    80   ar
    84    78    79   ar
    85    75    74    1
    86    80    82   ar
    87   190   193    1
    88   190   191    1
    89    51    50    1
    90   152   153    1
    91   152   149    1
    92    79    81   ar
    93   155   153   ar
    94   155   157   ar
    95    74    73    1
    96    82    81   ar
    97    83    84    1
    98   153   154   ar
    99   169   168    2
   100   173   168   am
   101   192   191    2
   102   157   156   ar
   103    87    88    1
   104    87    85   am
   105    84    85    1
   106    73    69   am
   107   211   210    1
   108    49    50    1
   109    50    53    1
   110   149   148    1
   111   149   150    1
   112   168   167    1
   113    88    89    1
   114    89    90    2
   115    85    86    2
   116   154   156   ar
   117   144   143    2
   118   148   143   am
   119    67    68    1
   120   150   151    2
   121    69    68    1
   122    69    70    2
   123   143   142    1
   124   210   208   ar
   125   210   209   ar
   126    53    54    1
   127    53    55    1
   128   146   145    1
   129   146   147    1
   130   170   167    1
   131   170   171    1
   132   167   166    1
   133   171   172    1
   134   145   142    1
   135   208   206   ar
   136    68    71    1
   137    71    72    1
   138   209   207   ar
   139   142   141    1
   140   147   141    1
   141   166   172    1
   142   166   160   am
   143    98    97    1
   144   158   159    1
   145   141   134   am
   146   139   138    2
   147   206   205   ar
   148   159   160    1
   149   159   162    1
   150   160   161    2
   151   207   205   ar
   152    96    97    1
   153    96    95    1
   154   136   137    1
   155   136   133    1
   156   205   204    1
   157    95    92    1
   158   134   135    2
   159   134   133    1
   160   106   104    1
   161   138   137    1
   162   138   140   am
   163   105   104    1
   164   164   163    1
   165   164   165    1
   166   104   103    1
   167   133   132    1
   168   202   203    2
   169   202   201    1
   170   162   163    1
   171   204   201    1
   172    92    91    1
   173    92    93    1
   174   201   200    1
   175    99    93   am
   176    99   100    1
   177   132   126   am
   178   103   100    1
   179    93    94    2
   180   100   101    1
   181   122   123    1
   182   122   119    1
   183   127   126    2
   184   126   125    1
   185   119   120    1
   186   119   118    1
   187   101   102    2
   188   121   120    2
   189   125   124    1
   190   125   128    1
   191   118   109   am
   192   128   129    1
   193   111   108    1
   194   111   112    1
   195   109   110    2
   196   109   108    1
   197   107   108    1
   198   117   115    1
   199   112   113    1
   200   129   130    1
   201   129   131    1
   202   115   116    1
   203   115   114    2
   204   114   113    1
