@<TRIPOS>MOLECULE
tmp/5ze8A00.pdb
 208 202 0 0 0
SMALL
GASTEIGER

@<TRIPOS>ATOM
      1  N         61.6980   26.1070    2.4430 N.3     3  ILE3       -0.1245
      2  CA        61.7740   25.9960    3.8760 C.3     3  ILE3        0.1561
      3  C         60.4560   26.2770    4.5870 C.2     3  ILE3        0.2260
      4  O         60.1350   25.6490    5.5690 O.2     3  ILE3       -0.2867
      5  CB        62.9560   26.8400    4.4040 C.3     3  ILE3        0.0252
      6  CG1       63.0950   26.7750    5.9250 C.3     3  ILE3        0.0019
      7  CG2       62.7390   28.3050    4.1220 C.3     3  ILE3        0.0019
      8  CD1       63.3100   25.3740    6.4000 C.3     3  ILE3        0.0001
      9  N         58.2790   23.2290    5.1880 N.3     6  VAL6       -0.1245
     10  CA        58.8270   22.1470    6.0380 C.3     6  VAL6        0.1561
     11  C         58.0290   22.0060    7.3440 C.2     6  VAL6        0.2260
     12  O         57.8800   22.9840    8.1270 O.2     6  VAL6       -0.2867
     13  CB        60.3060   22.3720    6.3460 C.3     6  VAL6        0.0252
     14  CG1       60.7890   21.3150    7.3600 C.3     6  VAL6        0.0019
     15  CG2       61.1170   22.2610    5.1070 C.3     6  VAL6        0.0019
     16  N         59.4780   17.5940   11.2980 N.3    10  LEU10      -0.1231
     17  CA        60.8560   17.3580   10.9090 C.3    10  LEU10       0.1693
     18  C         61.7970   17.9170   11.9630 C.2    10  LEU10       0.2592
     19  O         62.6560   17.2210   12.4520 O.2    10  LEU10      -0.2718
     20  CB        61.2020   17.9830    9.5440 C.3    10  LEU10       0.0284
     21  CG        62.7280   17.8190    9.2450 C.3    10  LEU10       0.0019
     22  CD1       63.0680   16.3160    9.2140 C.3    10  LEU10       0.0001
     23  CD2       63.1740   18.4910    7.9990 C.3    10  LEU10       0.0001
     24  N         61.5520   19.1250   12.4280 N.am   11  CYS11      -0.1970
     25  CA        62.3230   19.7710   13.4560 C.3    11  CYS11       0.1712
     26  C         62.3320   19.0010   14.7330 C.2    11  CYS11       0.2296
     27  O         63.3380   18.9530   15.4150 O.2    11  CYS11      -0.2864
     28  CB        61.8170   21.2080   13.6730 C.3    11  CYS11       0.0983
     29  SG        61.5220   22.2200   12.2260 S.3    11  CYS11      -0.0798
     30  N         62.5040   16.0090   15.2510 N.3    13  ASN13      -0.1225
     31  CA        63.5390   14.9410   15.3420 C.3    13  ASN13       0.1785
     32  C         64.7150   15.2730   16.2030 C.2    13  ASN13       0.2597
     33  O         65.2560   14.3670   16.8400 O.2    13  ASN13      -0.2718
     34  CB        64.0060   14.5800   13.9680 C.3    13  ASN13       0.1169
     35  CG        62.9880   13.7890   13.1930 C.2    13  ASN13       0.2627
     36  OD1       62.7480   14.0680   12.0450 O.2    13  ASN13      -0.2716
     37  ND2       62.4180   12.7650   13.8210 N.am   13  ASN13      -0.0877
     38  N         65.1640   16.5560   16.2330 N.am   14  CYS14      -0.1956
     39  CA        66.2990   17.0210   16.9890 C.3    14  CYS14       0.1843
     40  C         66.0000   18.1000   18.0440 C.2    14  CYS14       0.2625
     41  O         66.9080   18.5110   18.7400 O.2    14  CYS14      -0.2714
     42  CB        67.3340   17.5230   16.0140 C.3    14  CYS14       0.0997
     43  SG        67.7770   16.2920   14.7720 S.3    14  CYS14      -0.0797
     44  N         64.7650   18.6270   18.1050 N.am   15  HIS15      -0.1973
     45  CA        64.4270   19.7200   19.0300 C.3    15  HIS15       0.1656
     46  C         63.1000   19.2680   19.7130 C.2    15  HIS15       0.2291
     47  O         62.1090   20.0000   19.7380 O.2    15  HIS15      -0.2864
     48  CB        64.1570   21.0220   18.2230 C.3    15  HIS15       0.0771
     49  CG        65.3640   21.5330   17.5410 C.ar   15  HIS15       0.0820
     50  ND1       66.5060   21.9110   18.2250 N.ar   15  HIS15      -0.2267
     51  CD2       65.6710   21.6150   16.2300 C.ar   15  HIS15       0.1154
     52  CE1       67.4050   22.3130   17.3520 C.ar   15  HIS15       0.1986
     53  NE2       66.9280   22.1580   16.1240 N.ar   15  HIS15      -0.2212
     54  N         57.3550   26.4120   13.3950 N.3    93  CYS93      -0.1221
     55  CA        58.7960   26.6810   13.5060 C.3    93  CYS93       0.1808
     56  C         59.2910   27.5220   12.3990 C.2    93  CYS93       0.2601
     57  O         59.9420   28.5410   12.6360 O.2    93  CYS93      -0.2717
     58  CB        59.6540   25.3950   13.6000 C.3    93  CYS93       0.0970
     59  SG        58.9570   24.0150   14.5540 S.3    93  CYS93      -0.0800
     60  N         59.0190   27.1260   11.1580 N.am   94  VAL94      -0.1979
     61  CA        59.5650   27.8540   10.0400 C.3    94  VAL94       0.1595
     62  C         58.8740   29.2200    9.8010 C.2    94  VAL94       0.2287
     63  O         59.5230   30.1320    9.2560 O.2    94  VAL94      -0.2864
     64  CB        59.6180   27.0140    8.7390 C.3    94  VAL94       0.0276
     65  CG1       60.4810   25.7920    8.9630 C.3    94  VAL94       0.0022
     66  CG2       58.2340   26.6810    8.3130 C.3    94  VAL94       0.0022
     67  N         60.8550   31.2340   12.2160 N.3    97  HIS97      -0.1241
     68  CA        62.2800   31.1940   11.9590 C.3    97  HIS97       0.1621
     69  C         62.7070   31.5560   10.5390 C.2    97  HIS97       0.2264
     70  O         63.8770   31.4530   10.2210 O.2    97  HIS97      -0.2867
     71  CB        62.9480   29.8570   12.4420 C.3    97  HIS97       0.0745
     72  CG        63.0430   29.7730   13.9270 C.ar   97  HIS97       0.0817
     73  ND1       64.0860   30.3950   14.6270 N.ar   97  HIS97      -0.2268
     74  CD2       62.2230   29.2040   14.8720 C.ar   97  HIS97       0.1154
     75  CE1       63.8530   30.1960   15.9270 C.ar   97  HIS97       0.1986
     76  NE2       62.7640   29.4710   16.1050 N.ar   97  HIS97      -0.2212
     77  N         66.6940   29.6260    7.5000 N.3   125  LEU125     -0.1231
     78  CA        66.3560   29.7420    8.8790 C.3   125  LEU125      0.1693
     79  C         67.2000   30.8000    9.5240 C.2   125  LEU125      0.2592
     80  O         68.3760   31.0400    9.1750 O.2   125  LEU125     -0.2718
     81  CB        66.6190   28.4130    9.5860 C.3   125  LEU125      0.0284
     82  CG        65.7610   27.2210    9.2240 C.3   125  LEU125      0.0019
     83  CD1       66.1130   25.9860   10.0150 C.3   125  LEU125      0.0001
     84  CD2       64.3270   27.5320    9.4800 C.3   125  LEU125      0.0001
     85  N         66.5860   31.4540   10.4860 N.am  126  GLN126     -0.1966
     86  CA        67.1570   32.6030   11.2280 C.3   126  GLN126      0.1733
     87  C         67.2900   32.2160   12.6690 C.2   126  GLN126      0.2616
     88  O         66.3370   31.7080   13.2740 O.2   126  GLN126     -0.2715
     89  CB        66.2860   33.8390   11.0740 C.3   126  GLN126      0.0408
     90  CG        65.9620   34.2150    9.6570 C.3   126  GLN126      0.0908
     91  CD        67.1910   34.7630    8.8610 C.2   126  GLN126      0.2608
     92  OE1       67.9180   35.6700    9.3240 O.2   126  GLN126     -0.2717
     93  NE2       67.4750   34.1530    7.6740 N.am  126  GLN126     -0.0878
     94  N         68.4810   32.4260   13.2460 N.am  127  ALA127     -0.1964
     95  CA        68.7550   31.9820   14.6160 C.3   127  ALA127      0.1713
     96  C         69.4330   33.0280   15.4530 C.2   127  ALA127      0.2458
     97  O         70.0980   33.8490   14.9140 O.2   127  ALA127     -0.2730
     98  CB        69.6470   30.7790   14.5480 C.3   127  ALA127      0.0333
     99  N         69.3180   32.9730   16.7820 N.am  128  PRO128     -0.2716
    100  CA        69.9330   34.0210   17.6190 C.3   128  PRO128      0.1536
    101  C         71.4230   34.0460   17.5510 C.2   128  PRO128      0.2598
    102  O         72.0060   35.1230   17.5520 O.2   128  PRO128     -0.2715
    103  CB        69.4250   33.6850   19.0230 C.3   128  PRO128      0.0310
    104  CG        68.8860   32.3240   18.9870 C.3   128  PRO128      0.0237
    105  CD        68.5430   31.9880   17.5750 C.3   128  PRO128      0.0939
    106  N         72.0470   32.8670   17.4620 N.am  129  ILE129     -0.1964
    107  CA        73.5450   32.7820   17.3140 C.3   129  ILE129      0.1727
    108  C         73.9790   32.1580   15.9880 C.2   129  ILE129      0.2617
    109  O         74.9610   32.6070   15.3880 O.2   129  ILE129     -0.2715
    110  CB        74.1400   31.9100   18.3730 C.3   129  ILE129      0.0290
    111  CG1       73.6400   32.3060   19.7620 C.3   129  ILE129      0.0022
    112  CG2       75.7070   31.9070   18.3150 C.3   129  ILE129      0.0023
    113  CD1       74.0850   33.6860   20.0780 C.3   129  ILE129      0.0001
    114  N         73.2510   31.1370   15.5210 N.am  130  GLY130     -0.1940
    115  CA        73.6560   30.4000   14.3700 C.3   130  GLY130      0.2014
    116  C         74.8880   29.5760   14.7020 C.2   130  GLY130      0.2638
    117  O         75.1340   29.1760   15.8570 O.2   130  GLY130     -0.2714
    118  N         75.7010   29.3820   13.6560 N.am  131  PHE131     -0.1973
    119  CA        76.9260   28.5920   13.7930 C.3   131  PHE131      0.1639
    120  C         78.0990   29.3240   13.1530 C.2   131  PHE131      0.2290
    121  O         78.4560   29.0610   11.9790 O.2   131  PHE131     -0.2864
    122  CB        76.6700   27.2500   13.1240 C.3   131  PHE131      0.0560
    123  CG        75.5850   26.4800   13.8040 C.ar  131  PHE131     -0.0200
    124  CD1       75.8150   25.8600   14.9290 C.ar  131  PHE131     -0.0042
    125  CD2       74.2990   26.4270   13.2460 C.ar  131  PHE131     -0.0042
    126  CE1       74.8540   25.1960   15.6300 C.ar  131  PHE131     -0.0003
    127  CE2       73.3140   25.7910   13.9220 C.ar  131  PHE131     -0.0003
    128  CZ        73.5650   25.1990   15.1440 C.ar  131  PHE131     -0.0000
    129  N         74.3420   16.0600   18.1930 N.3   141  LYS141     -0.1231
    130  CA        73.4100   15.5790   17.1670 C.3   141  LYS141      0.1678
    131  C         73.8560   15.9550   15.8010 C.2   141  LYS141      0.2434
    132  O         74.6320   16.9090   15.6720 O.2   141  LYS141     -0.2733
    133  CB        71.9980   16.0800   17.3910 C.3   141  LYS141      0.0284
    134  CG        71.3580   15.5530   18.6870 C.3   141  LYS141      0.0035
    135  CD        69.9540   16.1050   18.8660 C.3   141  LYS141      0.0206
    136  CE        70.0010   17.6340   18.9610 C.3   141  LYS141      0.1093
    137  NZ        69.0040   18.2250   19.8950 N.3   141  LYS141     -0.1314
    138  N         73.4560   15.1610   14.7640 N.am  142  PRO142     -0.2718
    139  CA        73.7660   15.5970   13.4490 C.3   142  PRO142      0.1535
    140  C         73.1860   17.0130   13.2790 C.2   142  PRO142      0.2599
    141  O         72.1230   17.2950   13.8020 O.2   142  PRO142     -0.2715
    142  CB        73.1020   14.5710   12.5050 C.3   142  PRO142      0.0310
    143  CG        72.8320   13.3900   13.3820 C.3   142  PRO142      0.0237
    144  CD        72.5530   13.9930   14.7630 C.3   142  PRO142      0.0939
    145  N         73.9090   17.8020   12.5250 N.am  143  ASN143     -0.1959
    146  CA        73.6060   19.2630   12.3830 C.3   143  ASN143      0.1804
    147  C         73.3740   19.5520   10.9370 C.2   143  ASN143      0.2463
    148  O         74.3320   19.6680   10.1500 O.2   143  ASN143     -0.2730
    149  CB        74.7300   20.1040   12.9730 C.3   143  ASN143      0.1195
    150  CG        74.3620   21.5990   13.0150 C.2   143  ASN143      0.2630
    151  OD1       73.4470   22.0090   12.3330 O.2   143  ASN143     -0.2716
    152  ND2       74.9910   22.3260   13.8820 N.am  143  ASN143     -0.0877
    153  N         72.0810   19.7310   10.5170 N.am  144  PRO144     -0.2716
    154  CA        71.7460   20.0070    9.1560 C.3   144  PRO144      0.1536
    155  C         71.8330   21.5070    8.7580 C.2   144  PRO144      0.2598
    156  O         71.4920   21.8410    7.6490 O.2   144  PRO144     -0.2715
    157  CB        70.2760   19.6160    9.1200 C.3   144  PRO144      0.0310
    158  CG        69.7560   20.0420   10.4900 C.3   144  PRO144      0.0237
    159  CD        70.8840   19.7610   11.4250 C.3   144  PRO144      0.0939
    160  N         72.2880   22.3250    9.7090 N.am  145  HIS145     -0.1974
    161  CA        72.3530   23.7690    9.5650 C.3   145  HIS145      0.1656
    162  C         73.7650   24.2680    9.1520 C.2   145  HIS145      0.2291
    163  O         73.9840   25.4850    9.1730 O.2   145  HIS145     -0.2864
    164  CB        71.9800   24.4380   10.8570 C.3   145  HIS145      0.0771
    165  CG        70.6900   23.9810   11.4480 C.ar  145  HIS145      0.0820
    166  ND1       69.5120   24.0620   10.7430 N.ar  145  HIS145     -0.2267
    167  CD2       70.3780   23.5330   12.6950 C.ar  145  HIS145      0.1154
    168  CE1       68.5450   23.5970   11.5280 C.ar  145  HIS145      0.1986
    169  NE2       69.0320   23.3100   12.7150 N.ar  145  HIS145     -0.2212
    170  N         72.2120   15.7720    6.2130 N.3   150  VAL150     -0.1245
    171  CA        72.8170   14.8800    7.1550 C.3   150  VAL150      0.1561
    172  C         71.9720   13.6520    7.2820 C.2   150  VAL150      0.2260
    173  O         70.8360   13.6210    6.9250 O.2   150  VAL150     -0.2867
    174  CB        73.1170   15.5440    8.5310 C.3   150  VAL150      0.0252
    175  CG1       74.1040   16.7020    8.3480 C.3   150  VAL150      0.0019
    176  CG2       71.8600   16.0300    9.2540 C.3   150  VAL150      0.0019
    177  N         70.2430   10.9970    9.8300 N.3   152  LEU152     -0.1245
    178  CA        69.8880   10.8290   11.2280 C.3   152  LEU152      0.1561
    179  C         69.1290    9.4950   11.3290 C.2   152  LEU152      0.2260
    180  O         68.1080    9.3330   10.6180 O.2   152  LEU152     -0.2867
    181  CB        68.9550   11.9500   11.6810 C.3   152  LEU152      0.0270
    182  CG        68.3310   11.8340   13.0660 C.3   152  LEU152      0.0019
    183  CD1       69.3580   12.1990   14.0960 C.3   152  LEU152      0.0001
    184  CD2       67.1590   12.8060   13.1220 C.3   152  LEU152      0.0001
    185  N         68.1910   13.8340    6.2710 N.3   157  ILE157     -0.1245
    186  CA        67.6490   15.1640    6.6440 C.3   157  ILE157      0.1561
    187  C         68.1770   16.1570    5.6120 C.2   157  ILE157      0.2260
    188  O         69.3630   16.2980    5.4390 O.2   157  ILE157     -0.2867
    189  CB        68.0940   15.5940    8.0560 C.3   157  ILE157      0.0252
    190  CG1       67.7400   14.5000    9.0980 C.3   157  ILE157      0.0019
    191  CG2       67.5040   16.9800    8.4530 C.3   157  ILE157      0.0019
    192  CD1       66.2620   14.1560    9.2600 C.3   157  ILE157      0.0001
    193  N         69.2020   22.3990    5.9800 N.3   160  LEU160     -0.1245
    194  CA        68.3110   23.3970    6.6130 C.3   160  LEU160      0.1561
    195  C         69.1620   24.6210    6.9290 C.2   160  LEU160      0.2260
    196  O         69.5140   24.8640    8.0520 O.2   160  LEU160     -0.2867
    197  CB        67.6690   22.7760    7.9010 C.3   160  LEU160      0.0270
    198  CG        66.7110   21.6220    7.5670 C.3   160  LEU160      0.0019
    199  CD1       66.2690   21.0930    8.9180 C.3   160  LEU160      0.0001
    200  CD2       65.4790   22.0790    6.7450 C.3   160  LEU160      0.0001
    201  N         71.0140   28.0310    7.5100 N.3   162  MET162     -0.1245
    202  CA        70.7360   28.9140    8.6670 C.3   162  MET162      0.1570
    203  C         71.6470   30.1270    8.6500 C.2   162  MET162      0.2261
    204  O         72.7670   30.0230    8.1680 O.2   162  MET162     -0.2867
    205  CB        70.9850   28.1720    9.9210 C.3   162  MET162      0.0387
    206  CG        70.6040   28.8950   11.2110 C.3   162  MET162      0.0595
    207  SD        70.8000   27.8620   12.6820 S.3   162  MET162     -0.1393
    208  CE        69.2200   27.0580   12.6000 C.3   162  MET162      0.0692
@<TRIPOS>BOND
     1     1     2    1
     2     2     5    1
     3     2     3    1
     4     7     5    1
     5     5     6    1
     6     3     4    2
     7    15    13    1
     8     9    10    1
     9   188   187    2
    10   187   186    1
    11     6     8    1
    12   193   194    1
    13    10    13    1
    14    10    11    1
    15   170   171    1
    16   185   186    1
    17    13    14    1
    18   194   195    1
    19   194   197    1
    20   186   189    1
    21   200   198    1
    22   173   172    2
    23   195   196    2
    24   171   172    1
    25   171   174    1
    26    11    12    2
    27    77    78    1
    28   201   202    1
    29   198   197    1
    30   198   199    1
    31   156   155    2
    32    93    91   am
    33    23    21    1
    34   189   191    1
    35   189   190    1
    36   204   203    2
    37    66    64    1
    38   175   174    1
    39   174   176    1
    40   203   202    1
    41   202   205    1
    42    64    65    1
    43    64    61    1
    44   155   154    1
    45   155   160   am
    46    91    92    2
    47    91    90    1
    48    78    79    1
    49    78    81    1
    50   190   192    1
    51   157   154    1
    52   157   158    1
    53   162   163    2
    54   162   161    1
    55   154   153    1
    56    80    79    2
    57    22    21    1
    58    82    84    1
    59    82    81    1
    60    82    83    1
    61    21    20    1
    62    63    62    2
    63    79    85   am
    64    20    17    1
    65   161   160    1
    66   161   164    1
    67    90    89    1
    68    62    61    1
    69   177   178    1
    70   205   206    1
    71    61    60    1
    72   148   147    2
    73    70    69    2
    74    85    86    1
    75   158   159    1
    76   153   147   am
    77   153   159    1
    78    69    68    1
    79   180   179    2
    80   166   165   ar
    81   166   168   ar
    82   164   165    1
    83    17    16    1
    84    17    18    1
    85   147   146    1
    86    89    86    1
    87    60    56   am
    88   206   207    1
    89    86    87    1
    90   178   179    1
    91   178   181    1
    92   165   167   ar
    93   168   169   ar
    94   181   182    1
    95    68    67    1
    96    68    71    1
    97    18    24   am
    98    18    19    2
    99   121   120    2
   100    36    35    2
   101    29    28    1
   102   151   150    2
   103   146   145    1
   104   146   149    1
   105    56    57    2
   106    56    55    1
   107    24    25    1
   108    71    72    1
   109   142   143    1
   110   142   139    1
   111   145   140   am
   112   208   207    1
   113    87    94   am
   114    87    88    2
   115   167   169   ar
   116   149   150    1
   117   150   152   am
   118   182   184    1
   119   182   183    1
   120   122   119    1
   121   122   123    1
   122   120   119    1
   123    35    37   am
   124    35    34    1
   125   125   123   ar
   126   125   127   ar
   127    94    95    1
   128   140   139    1
   129   140   141    2
   130   143   144    1
   131    54    55    1
   132   139   138    1
   133    25    28    1
   134    25    26    1
   135    55    58    1
   136    58    59    1
   137   118   119    1
   138   118   116   am
   139   123   124   ar
   140   127   128   ar
   141    72    73   ar
   142    72    74   ar
   143    34    31    1
   144   115   116    1
   145   115   114    1
   146    98    95    1
   147    95    96    1
   148    73    75   ar
   149   116   117    2
   150    26    27    2
   151   144   138    1
   152   138   131   am
   153    43    42    1
   154    74    76   ar
   155    97    96    2
   156   124   126   ar
   157   128   126   ar
   158    30    31    1
   159    31    32    1
   160   109   108    2
   161    96    99   am
   162   114   108   am
   163   132   131    2
   164   131   130    1
   165    75    76   ar
   166   108   107    1
   167    42    39    1
   168    53    51   ar
   169    53    52   ar
   170    32    38   am
   171    32    33    2
   172    51    49   ar
   173    38    39    1
   174    99   105    1
   175    99   100    1
   176    39    40    1
   177   130   133    1
   178   130   129    1
   179   107   106    1
   180   107   110    1
   181    52    50   ar
   182   133   134    1
   183   106   101   am
   184    49    48    1
   185    49    50   ar
   186   101   102    2
   187   101   100    1
   188   105   104    1
   189   100   103    1
   190    40    44   am
   191    40    41    2
   192    44    45    1
   193    48    45    1
   194   112   110    1
   195   110   111    1
   196   134   135    1
   197   135   136    1
   198   136   137    1
   199   104   103    1
   200    45    46    1
   201    46    47    2
   202   111   113    1
