@<TRIPOS>MOLECULE
tmp/5ze9B00.pdb
 177 171 0 0 0
SMALL
GASTEIGER

@<TRIPOS>ATOM
      1  N        -51.3070  -30.7900  -30.7510 N.3   214  GLN214     -0.1245
      2  CA       -50.9580  -29.3780  -30.6560 C.3   214  GLN214      0.1566
      3  C        -51.1240  -28.7450  -32.0410 C.2   214  GLN214      0.2260
      4  O        -50.3580  -29.0470  -32.9590 O.2   214  GLN214     -0.2867
      5  CB       -49.5290  -29.2150  -30.1400 C.3   214  GLN214      0.0367
      6  CG       -49.2030  -30.0730  -28.9180 C.3   214  GLN214      0.0905
      7  CD       -50.2560  -29.9740  -27.8140 C.2   214  GLN214      0.2608
      8  OE1      -50.3870  -28.9360  -27.1560 O.2   214  GLN214     -0.2717
      9  NE2      -50.9950  -31.0680  -27.5930 N.am  214  GLN214     -0.0878
     10  N        -35.3620  -19.0900  -21.4980 N.3   235  PHE235     -0.1227
     11  CA       -35.9740  -19.6520  -20.2990 C.3   235  PHE235      0.1736
     12  C        -37.4110  -19.1600  -20.1600 C.2   235  PHE235      0.2596
     13  O        -37.7320  -18.0180  -20.4920 O.2   235  PHE235     -0.2718
     14  CB       -35.1540  -19.3190  -19.0310 C.3   235  PHE235      0.0547
     15  CG       -35.2350  -17.8670  -18.5600 C.ar  235  PHE235     -0.0202
     16  CD1      -36.3290  -17.4030  -17.8300 C.ar  235  PHE235     -0.0042
     17  CD2      -34.1770  -16.9950  -18.7840 C.ar  235  PHE235     -0.0042
     18  CE1      -36.3960  -16.0860  -17.3900 C.ar  235  PHE235     -0.0003
     19  CE2      -34.2220  -15.6720  -18.3280 C.ar  235  PHE235     -0.0003
     20  CZ       -35.3390  -15.2150  -17.6380 C.ar  235  PHE235     -0.0000
     21  N        -38.2770  -20.0340  -19.6580 N.am  236  GLY236     -0.1942
     22  CA       -39.6780  -19.7080  -19.5020 C.3   236  GLY236      0.2014
     23  C        -40.5060  -19.7500  -20.7730 C.2   236  GLY236      0.2639
     24  O        -41.7100  -19.5060  -20.7070 O.2   236  GLY236     -0.2714
     25  N        -39.9140  -20.0650  -21.9270 N.am  237  ALA237     -0.1963
     26  CA       -40.6610  -19.9520  -23.1780 C.3   237  ALA237      0.1728
     27  C        -41.6300  -21.1060  -23.4210 C.2   237  ALA237      0.2617
     28  O        -42.5530  -20.9540  -24.2340 O.2   237  ALA237     -0.2715
     29  CB       -39.7060  -19.8340  -24.3610 C.3   237  ALA237      0.0334
     30  N        -41.4370  -22.2560  -22.7710 N.am  238  GLY238     -0.1940
     31  CA       -42.3770  -23.3530  -22.8950 C.3   238  GLY238      0.2014
     32  C        -41.8630  -24.6540  -23.4960 C.2   238  GLY238      0.2639
     33  O        -42.6650  -25.4850  -23.9340 O.2   238  GLY238     -0.2714
     34  N        -40.5390  -24.8420  -23.5250 N.am  239  LYS239     -0.1963
     35  CA       -39.9600  -26.0750  -24.0670 C.3   239  LYS239      0.1728
     36  C        -40.4390  -27.2920  -23.2900 C.2   239  LYS239      0.2617
     37  O        -40.8210  -28.3130  -23.8730 O.2   239  LYS239     -0.2715
     38  CB       -38.4270  -26.0080  -24.0270 C.3   239  LYS239      0.0311
     39  CG       -37.8340  -24.8590  -24.8120 C.3   239  LYS239      0.0038
     40  CD       -36.3090  -24.7760  -24.5870 C.3   239  LYS239      0.0206
     41  CE       -35.9700  -24.4710  -23.1530 C.3   239  LYS239      0.1093
     42  NZ       -36.2490  -23.0570  -22.8010 N.3   239  LYS239     -0.1314
     43  N        -40.4210  -27.2060  -21.9640 N.am  240  THR240     -0.1937
     44  CA       -40.7560  -28.3860  -21.1830 C.3   240  THR240      0.2028
     45  C        -42.2330  -28.7330  -21.3340 C.2   240  THR240      0.2642
     46  O        -42.5800  -29.9090  -21.4780 O.2   240  THR240     -0.2714
     47  CB       -40.3500  -28.1700  -19.7200 C.3   240  THR240      0.1808
     48  OG1      -38.9270  -28.0830  -19.6270 O.3   240  THR240     -0.2208
     49  CG2      -40.8450  -29.3390  -18.8320 C.3   240  THR240      0.0379
     50  N        -43.1110  -27.7240  -21.3600 N.am  241  VAL241     -0.1963
     51  CA       -44.5390  -27.9830  -21.5630 C.3   241  VAL241      0.1727
     52  C        -44.7860  -28.6630  -22.9060 C.2   241  VAL241      0.2616
     53  O        -45.5770  -29.6100  -22.9970 O.2   241  VAL241     -0.2715
     54  CB       -45.3620  -26.6870  -21.4210 C.3   241  VAL241      0.0290
     55  CG1      -46.8140  -26.9280  -21.8430 C.3   241  VAL241      0.0023
     56  CG2      -45.3190  -26.1890  -19.9580 C.3   241  VAL241      0.0023
     57  N        -44.1190  -28.1930  -23.9650 N.am  242  VAL242     -0.1977
     58  CA       -44.2650  -28.8130  -25.2810 C.3   242  VAL242      0.1596
     59  C        -43.8940  -30.2950  -25.2080 C.2   242  VAL242      0.2287
     60  O        -44.5830  -31.1610  -25.7670 O.2   242  VAL242     -0.2864
     61  CB       -43.3970  -28.0790  -26.3280 C.3   242  VAL242      0.0276
     62  CG1      -43.1270  -28.9760  -27.5160 C.3   242  VAL242      0.0022
     63  CG2      -44.0710  -26.8050  -26.7960 C.3   242  VAL242      0.0022
     64  N        -46.5280  -32.2080  -23.2300 N.3   245  GLN245     -0.1245
     65  CA       -47.7110  -32.3710  -24.0590 C.3   245  GLN245      0.1566
     66  C        -47.5330  -33.5260  -25.0310 C.2   245  GLN245      0.2260
     67  O        -48.4380  -34.3480  -25.2080 O.2   245  GLN245     -0.2867
     68  CB       -48.0110  -31.0690  -24.8150 C.3   245  GLN245      0.0367
     69  CG       -48.6590  -29.9990  -23.9610 C.3   245  GLN245      0.0905
     70  CD       -50.0020  -30.4340  -23.4160 C.2   245  GLN245      0.2608
     71  OE1      -50.1020  -30.9480  -22.3080 O.2   245  GLN245     -0.2717
     72  NE2      -51.0480  -30.2270  -24.1990 N.am  245  GLN245     -0.0878
     73  N        -32.1620  -30.7230  -15.6110 N.3   262  GLU262     -0.1231
     74  CA       -33.2260  -29.7610  -15.3350 C.3   262  GLU262      0.1699
     75  C        -33.7700  -29.8910  -13.9130 C.2   262  GLU262      0.2592
     76  O        -33.0610  -30.3820  -13.0290 O.2   262  GLU262     -0.2718
     77  CB       -34.3470  -29.9240  -16.3650 C.3   262  GLU262      0.0402
     78  CG       -33.9040  -29.5990  -17.7960 C.3   262  GLU262      0.1161
     79  CD       -33.5650  -28.1180  -17.9780 C.2   262  GLU262      0.3649
     80  OE1      -34.2220  -27.2470  -17.3370 O.co2 262  GLU262     -0.2457
     81  OE2      -32.6380  -27.8290  -18.7640 O.co2 262  GLU262     -0.2457
     82  N        -35.0220  -29.4760  -13.6840 N.am  263  ARG263     -0.1980
     83  CA       -35.5650  -29.3790  -12.3270 C.3   263  ARG263      0.1597
     84  C        -36.0610  -30.7210  -11.7930 C.2   263  ARG263      0.2287
     85  O        -36.7620  -31.4620  -12.4840 O.2   263  ARG263     -0.2864
     86  CB       -36.7170  -28.3720  -12.2850 C.3   263  ARG263      0.0334
     87  CG       -36.3080  -26.9490  -12.6660 C.3   263  ARG263      0.0492
     88  CD       -37.4650  -25.9270  -12.6320 C.3   263  ARG263      0.2205
     89  NE       -37.0080  -24.6250  -13.1460 N.pl3 263  ARG263     -0.0865
     90  CZ       -36.8730  -24.3310  -14.4440 C.cat 263  ARG263      0.5346
     91  NH1      -37.1850  -25.2210  -15.3740 N.pl3 263  ARG263      0.1354
     92  NH2      -36.4490  -23.1240  -14.8140 N.pl3 263  ARG263      0.1354
     93  N        -39.9350  -31.2270  -11.8930 N.3   266  GLU266     -0.1245
     94  CA       -40.5490  -31.5700  -13.1770 C.3   266  GLU266      0.1567
     95  C        -40.6310  -33.0820  -13.3810 C.2   266  GLU266      0.2260
     96  O        -41.6190  -33.5900  -13.9260 O.2   266  GLU266     -0.2867
     97  CB       -39.7770  -30.9120  -14.3150 C.3   266  GLU266      0.0388
     98  CG       -40.0530  -29.4160  -14.3930 C.3   266  GLU266      0.1160
     99  CD       -39.0370  -28.6420  -15.2000 C.2   266  GLU266      0.3649
    100  OE1      -38.0570  -29.2490  -15.7080 O.co2 266  GLU266     -0.2457
    101  OE2      -39.2340  -27.4130  -15.3220 O.co2 266  GLU266     -0.2457
    102  N        -34.7110  -33.2260  -22.3940 N.3   330  ASP330     -0.1239
    103  CA       -34.9420  -31.9330  -21.7630 C.3   330  ASP330      0.1674
    104  C        -33.8540  -31.7320  -20.7140 C.2   330  ASP330      0.2266
    105  O        -34.0210  -32.2090  -19.5930 O.2   330  ASP330     -0.2867
    106  CB       -36.3270  -31.9210  -21.1080 C.3   330  ASP330      0.1410
    107  CG       -36.7480  -30.5330  -20.6490 C.2   330  ASP330      0.3668
    108  OD1      -36.0770  -29.5600  -21.0570 O.co2 330  ASP330     -0.2456
    109  OD2      -37.7480  -30.4210  -19.8880 O.co2 330  ASP330     -0.2456
    110  N        -27.7750  -29.0340  -21.5510 N.3   334  ARG334     -0.1245
    111  CA       -27.1080  -29.4550  -20.3150 C.3   334  ARG334      0.1563
    112  C        -26.1120  -30.5720  -20.5700 C.2   334  ARG334      0.2260
    113  O        -25.0680  -30.6270  -19.9090 O.2   334  ARG334     -0.2867
    114  CB       -28.1330  -29.9090  -19.2740 C.3   334  ARG334      0.0307
    115  CG       -29.2560  -28.8960  -19.0770 C.3   334  ARG334      0.0489
    116  CD       -28.7300  -27.5010  -18.7260 C.3   334  ARG334      0.2205
    117  NE       -29.8280  -26.5370  -18.8020 N.pl3 334  ARG334     -0.0865
    118  CZ       -29.6950  -25.2540  -19.1280 C.cat 334  ARG334      0.5346
    119  NH1      -28.5010  -24.7480  -19.4150 N.pl3 334  ARG334      0.1354
    120  NH2      -30.7730  -24.4750  -19.1680 N.pl3 334  ARG334      0.1354
    121  N        -31.4620  -24.8830  -24.9940 N.3   392  SER392     -0.1217
    122  CA       -31.5790  -23.7950  -24.0240 C.3   392  SER392      0.1889
    123  C        -30.4720  -22.7650  -24.2170 C.2   392  SER392      0.2288
    124  O        -29.6130  -22.5960  -23.3470 O.2   392  SER392     -0.2866
    125  CB       -31.5460  -24.3410  -22.5990 C.3   392  SER392      0.2089
    126  OG       -32.4890  -25.3850  -22.4570 O.3   392  SER392     -0.2183
    127  N        -49.3290  -19.0570  -26.1700 N.3   426  PHE426     -0.1228
    128  CA       -48.7330  -20.3880  -26.0590 C.3   426  PHE426      0.1721
    129  C        -49.3850  -21.3690  -27.0220 C.2   426  PHE426      0.2437
    130  O        -50.5790  -21.2670  -27.2860 O.2   426  PHE426     -0.2733
    131  CB       -48.8670  -20.9570  -24.6410 C.3   426  PHE426      0.0547
    132  CG       -48.1110  -20.1980  -23.6150 C.ar  426  PHE426     -0.0202
    133  CD1      -46.7350  -20.1130  -23.6910 C.ar  426  PHE426     -0.0042
    134  CD2      -48.7690  -19.5640  -22.5720 C.ar  426  PHE426     -0.0042
    135  CE1      -46.0200  -19.4020  -22.7530 C.ar  426  PHE426     -0.0003
    136  CE2      -48.0620  -18.8490  -21.6260 C.ar  426  PHE426     -0.0003
    137  CZ       -46.6880  -18.7670  -21.7150 C.ar  426  PHE426     -0.0000
    138  N        -48.6310  -22.3570  -27.5460 N.am  427  PRO427     -0.2729
    139  CA       -47.1670  -22.4720  -27.4670 C.3   427  PRO427      0.1401
    140  C        -46.4980  -21.2810  -28.1470 C.2   427  PRO427      0.2269
    141  O        -47.0240  -20.8170  -29.1670 O.2   427  PRO427     -0.2865
    142  CB       -46.8650  -23.7640  -28.2310 C.3   427  PRO427      0.0296
    143  CG       -48.1270  -24.5370  -28.1980 C.3   427  PRO427      0.0237
    144  CD       -49.2430  -23.5400  -28.1810 C.3   427  PRO427      0.0939
    145  N        -53.0610  -22.0390  -27.7660 N.3   504  GLN504     -0.1231
    146  CA       -53.6290  -23.2730  -27.2290 C.3   504  GLN504      0.1698
    147  C        -53.0650  -23.5160  -25.8330 C.2   504  GLN504      0.2592
    148  O        -51.8660  -23.7760  -25.6740 O.2   504  GLN504     -0.2718
    149  CB       -53.3260  -24.4460  -28.1580 C.3   504  GLN504      0.0381
    150  CG       -54.0180  -25.7590  -27.8050 C.3   504  GLN504      0.0905
    151  CD       -53.6760  -26.8890  -28.7810 C.2   504  GLN504      0.2608
    152  OE1      -53.1010  -26.6510  -29.8480 O.2   504  GLN504     -0.2717
    153  NE2      -54.0380  -28.1230  -28.4210 N.am  504  GLN504     -0.0878
    154  N        -53.9330  -23.4410  -24.8320 N.am  505  ASN505     -0.1960
    155  CA       -53.5400  -23.5300  -23.4310 C.3   505  ASN505      0.1819
    156  C        -53.4400  -24.9940  -23.0060 C.2   505  ASN505      0.2621
    157  O        -54.4320  -25.7320  -23.0340 O.2   505  ASN505     -0.2715
    158  CB       -54.5520  -22.7810  -22.5670 C.3   505  ASN505      0.1195
    159  CG       -54.0910  -22.6100  -21.1330 C.2   505  ASN505      0.2630
    160  OD1      -53.2880  -23.3870  -20.6210 O.2   505  ASN505     -0.2716
    161  ND2      -54.6070  -21.5810  -20.4740 N.am  505  ASN505     -0.0877
    162  N        -52.2420  -25.4080  -22.6140 N.am  506  ALA506     -0.1963
    163  CA       -52.0110  -26.8030  -22.2730 C.3   506  ALA506      0.1728
    164  C        -52.6930  -27.2050  -20.9750 C.2   506  ALA506      0.2616
    165  O        -52.9270  -28.3980  -20.7640 O.2   506  ALA506     -0.2715
    166  CB       -50.5060  -27.0810  -22.1880 C.3   506  ALA506      0.0334
    167  N        -53.0260  -26.2510  -20.1100 N.am  507  PHE507     -0.1974
    168  CA       -53.6610  -26.5320  -18.8300 C.3   507  PHE507      0.1639
    169  C        -55.1900  -26.4890  -18.8910 C.2   507  PHE507      0.2290
    170  O        -55.8440  -26.6170  -17.8530 O.2   507  PHE507     -0.2864
    171  CB       -53.1350  -25.5550  -17.7670 C.3   507  PHE507      0.0560
    172  CG       -51.6380  -25.6420  -17.5640 C.ar  507  PHE507     -0.0200
    173  CD1      -51.1020  -26.5660  -16.6960 C.ar  507  PHE507     -0.0042
    174  CD2      -50.7790  -24.8220  -18.2730 C.ar  507  PHE507     -0.0042
    175  CE1      -49.7330  -26.6580  -16.5080 C.ar  507  PHE507     -0.0003
    176  CE2      -49.4150  -24.9170  -18.1030 C.ar  507  PHE507     -0.0003
    177  CZ       -48.8890  -25.8340  -17.2170 C.ar  507  PHE507     -0.0000
@<TRIPOS>BOND
     1     4     3    2
     2     3     2    1
     3     1     2    1
     4     2     5    1
     5     5     6    1
     6   152   151    2
     7   141   140    2
     8     6     7    1
     9   151   153   am
    10   151   150    1
    11   142   143    1
    12   142   139    1
    13   143   144    1
    14   144   138    1
    15   149   150    1
    16   149   146    1
    17   140   139    1
    18     7     9   am
    19     7     8    2
    20   145   146    1
    21   138   139    1
    22   138   129   am
    23    62    61    1
    24   130   129    2
    25   146   147    1
    26   129   128    1
    27    63    61    1
    28    61    58    1
    29   127   128    1
    30   128   131    1
    31   147   148    2
    32   147   154   am
    33    60    59    2
    34    58    59    1
    35    58    57    1
    36    67    66    2
    37    66    65    1
    38   121   122    1
    39   154   155    1
    40    68    65    1
    41    68    69    1
    42    39    40    1
    43    39    38    1
    44   131   132    1
    45    40    41    1
    46    29    26    1
    47    28    27    2
    48   123   122    1
    49   123   124    2
    50    72    70   am
    51    35    38    1
    52    35    34    1
    53    35    36    1
    54    65    64    1
    55   122   125    1
    56    57    52   am
    57    69    70    1
    58    33    32    2
    59    37    36    2
    60   133   132   ar
    61   133   135   ar
    62   132   134   ar
    63    34    32   am
    64    32    31    1
    65   155   156    1
    66   155   158    1
    67    27    26    1
    68    27    30   am
    69    70    71    2
    70    36    43   am
    71    26    25    1
    72    41    42    1
    73   157   156    2
    74   156   162   am
    75    53    52    2
    76    52    51    1
    77    31    30    1
    78   135   137   ar
    79   162   163    1
    80   125   126    1
    81   134   136   ar
    82   158   159    1
    83   102   103    1
    84   163   166    1
    85   163   164    1
    86    43    44    1
    87    25    23   am
    88    55    54    1
    89   103   106    1
    90   103   104    1
    91   137   136   ar
    92    51    54    1
    93    51    50    1
    94   110   111    1
    95    10    11    1
    96    46    45    2
    97    54    56    1
    98    50    45   am
    99    45    44    1
   100    44    47    1
   101   159   160    2
   102   159   161   am
   103   106   107    1
   104   108   107   ar
   105   164   165    2
   106   164   167   am
   107    23    24    2
   108    23    22    1
   109   104   105    2
   110   107   109   ar
   111   112   111    1
   112   112   113    2
   113    13    12    2
   114   111   114    1
   115    11    12    1
   116    11    14    1
   117    12    21   am
   118   167   168    1
   119    47    48    1
   120    47    49    1
   121    21    22    1
   122   119   118    1
   123   114   115    1
   124   120   118    1
   125   118   117    2
   126   115   116    1
   127    14    15    1
   128   169   168    1
   129   169   170    2
   130   168   171    1
   131   117   116    1
   132    17    15   ar
   133    17    19   ar
   134    81    79   ar
   135    15    16   ar
   136    19    20   ar
   137   174   176   ar
   138   174   172   ar
   139   176   177   ar
   140    79    78    1
   141    79    80   ar
   142    16    18   ar
   143    78    77    1
   144   171   172    1
   145    20    18   ar
   146   172   173   ar
   147   177   175   ar
   148   173   175   ar
   149    77    74    1
   150   100    99   ar
   151    73    74    1
   152    91    90    1
   153    74    75    1
   154   101    99   ar
   155    99    98    1
   156    92    90    1
   157    90    89    2
   158    98    97    1
   159    97    94    1
   160    96    95    2
   161    75    82   am
   162    75    76    2
   163    82    83    1
   164    95    94    1
   165    94    93    1
   166    89    88    1
   167    87    88    1
   168    87    86    1
   169    85    84    2
   170    83    86    1
   171    83    84    1
