@<TRIPOS>MOLECULE
tmp/5zeqA00.pdb
 156 146 0 0 0
SMALL
GASTEIGER

@<TRIPOS>ATOM
      1  N         28.7000  -19.1420    8.0590 N.3    64  HIS64      -0.1241
      2  CA        29.7300  -18.4890    8.8460 C.3    64  HIS64       0.1621
      3  C         29.1350  -17.2910    9.4720 C.2    64  HIS64       0.2264
      4  O         28.6680  -16.3760    8.7810 O.2    64  HIS64      -0.2867
      5  CB        30.9280  -18.1700    7.9740 C.3    64  HIS64       0.0745
      6  CG        31.7180  -19.4040    7.6560 C.ar   64  HIS64       0.0817
      7  ND1       32.2950  -19.6560    6.4280 N.ar   64  HIS64      -0.2268
      8  CD2       31.9640  -20.5030    8.4060 C.ar   64  HIS64       0.1154
      9  CE1       32.8850  -20.8290    6.4410 C.ar   64  HIS64       0.1986
     10  NE2       32.7240  -21.3560    7.6420 N.ar   64  HIS64      -0.2212
     11  N         29.5820  -13.4940    8.4490 N.3    67  GLU67      -0.1245
     12  CA        29.4580  -13.1330    7.0280 C.3    67  GLU67       0.1567
     13  C         28.0310  -12.6760    6.7830 C.2    67  GLU67       0.2260
     14  O         27.2520  -13.2770    5.9990 O.2    67  GLU67      -0.2867
     15  CB        29.8670  -14.3090    6.1170 C.3    67  GLU67       0.0388
     16  CG        31.3300  -14.6940    6.2520 C.3    67  GLU67       0.1160
     17  CD        31.7020  -16.0470    5.6920 C.2    67  GLU67       0.3649
     18  OE1       30.9560  -16.6440    4.9050 O.co2  67  GLU67      -0.2457
     19  OE2       32.7700  -16.6060    6.0390 O.co2  67  GLU67      -0.2457
     20  N         32.9850  -16.9610   13.7730 N.3   122  ARG122     -0.1245
     21  CA        32.8090  -17.7050   12.5040 C.3   122  ARG122      0.1563
     22  C         32.0830  -19.0020   12.6890 C.2   122  ARG122      0.2260
     23  O         31.2350  -19.3820   11.8700 O.2   122  ARG122     -0.2867
     24  CB        34.1840  -18.0660   11.9460 C.3   122  ARG122      0.0307
     25  CG        34.2430  -18.9190   10.6990 C.3   122  ARG122      0.0489
     26  CD        35.6930  -19.2050   10.3400 C.3   122  ARG122      0.2205
     27  NE        35.8770  -20.2340    9.3310 N.pl3 122  ARG122     -0.0865
     28  CZ        35.8060  -20.0290    8.0110 C.cat 122  ARG122      0.5346
     29  NH1       35.4930  -18.8200    7.5170 N.pl3 122  ARG122      0.1354
     30  NH2       36.0140  -21.0670    7.1520 N.pl3 122  ARG122      0.1354
     31  N         31.8190  -25.3620    7.5120 N.3   139  ASN139     -0.1225
     32  CA        32.2860  -25.6460    6.1650 C.3   139  ASN139      0.1785
     33  C         33.5680  -26.4170    6.0780 C.2   139  ASN139      0.2597
     34  O         34.1980  -26.3980    5.0190 O.2   139  ASN139     -0.2718
     35  CB        32.3400  -24.3820    5.2990 C.3   139  ASN139      0.1169
     36  CG        31.9850  -24.6650    3.8360 C.2   139  ASN139      0.2627
     37  OD1       31.1930  -25.5630    3.5530 O.2   139  ASN139     -0.2716
     38  ND2       32.6330  -23.9630    2.9040 N.am  139  ASN139     -0.0877
     39  N         33.9790  -26.9780    7.2080 N.am  140  ARG140     -0.1979
     40  CA        34.9770  -27.9950    7.2690 C.3   140  ARG140      0.1597
     41  C         34.3950  -29.2670    7.8860 C.2   140  ARG140      0.2287
     42  O         35.1260  -30.2130    8.0810 O.2   140  ARG140     -0.2864
     43  CB        36.1750  -27.5140    8.0840 C.3   140  ARG140      0.0334
     44  CG        36.8410  -26.2800    7.5260 C.3   140  ARG140      0.0492
     45  CD        37.4310  -26.4210    6.1600 C.3   140  ARG140      0.2205
     46  NE        38.0900  -25.1560    5.7810 N.pl3 140  ARG140     -0.0865
     47  CZ        37.4570  -24.0670    5.3280 C.cat 140  ARG140      0.5346
     48  NH1       36.1700  -24.0860    5.0390 N.pl3 140  ARG140      0.1354
     49  NH2       38.1510  -22.9510    5.0630 N.pl3 140  ARG140      0.1354
     50  N         28.5520  -17.1500    0.9170 N.3   192  HIS192     -0.1226
     51  CA        29.5370  -16.6800    1.8410 C.3   192  HIS192      0.1752
     52  C         29.9840  -15.2880    1.5300 C.2   192  HIS192      0.2596
     53  O         29.5840  -14.6810    0.5850 O.2   192  HIS192     -0.2718
     54  CB        30.7730  -17.5590    1.8240 C.3   192  HIS192      0.0759
     55  CG        30.5430  -18.9130    2.3230 C.ar  192  HIS192      0.0818
     56  ND1       31.0350  -19.3510    3.5220 N.ar  192  HIS192     -0.2268
     57  CD2       29.8300  -19.9380    1.8110 C.ar  192  HIS192      0.1154
     58  CE1       30.6720  -20.6070    3.7050 C.ar  192  HIS192      0.1986
     59  NE2       29.9630  -20.9860    2.6760 N.ar  192  HIS192     -0.2212
     60  N         30.8300  -14.7870    2.4110 N.am  193  SER193     -0.1952
     61  CA        31.6610  -13.6380    2.1140 C.3   193  SER193      0.1924
     62  C         32.9810  -13.8640    2.7710 C.2   193  SER193      0.2314
     63  O         33.0830  -14.6970    3.6570 O.2   193  SER193     -0.2863
     64  CB        31.0250  -12.3310    2.5960 C.3   193  SER193      0.2116
     65  OG        31.1340  -12.1590    4.0190 O.3   193  SER193     -0.2180
     66  N         32.9360  -20.0670   -6.9150 N.3   199  LEU199     -0.1245
     67  CA        33.8160  -21.2410   -6.7820 C.3   199  LEU199      0.1561
     68  C         32.9710  -22.5020   -7.0250 C.2   199  LEU199      0.2260
     69  O         31.7750  -22.5210   -6.7390 O.2   199  LEU199     -0.2867
     70  CB        34.3630  -21.3300   -5.3590 C.3   199  LEU199      0.0270
     71  CG        35.0920  -20.1200   -4.8550 C.3   199  LEU199      0.0019
     72  CD1       35.3130  -20.2410   -3.3620 C.3   199  LEU199      0.0001
     73  CD2       36.4110  -19.9310   -5.5780 C.3   199  LEU199      0.0001
     74  N         37.5310  -28.2620   -3.7410 N.3   203  SER203     -0.1217
     75  CA        38.4350  -27.6200   -2.7730 C.3   203  SER203      0.1889
     76  C         39.2080  -28.6520   -1.9160 C.2   203  SER203      0.2288
     77  O         40.3160  -28.3180   -1.4090 O.2   203  SER203     -0.2866
     78  CB        37.6180  -26.7150   -1.8340 C.3   203  SER203      0.2089
     79  OG        37.0230  -25.6300   -2.4920 O.3   203  SER203     -0.2183
     80  N         40.5770  -20.1070   -4.5490 N.3   243  ILE243     -0.1231
     81  CA        40.6250  -19.4490   -3.2300 C.3   243  ILE243      0.1692
     82  C         41.7040  -20.1390   -2.4020 C.2   243  ILE243      0.2592
     83  O         42.6820  -19.5050   -2.0500 O.2   243  ILE243     -0.2718
     84  CB        39.2290  -19.2900   -2.6020 C.3   243  ILE243      0.0266
     85  CG1       39.2760  -18.2110   -1.4930 C.3   243  ILE243      0.0019
     86  CG2       38.6720  -20.5880   -2.0320 C.3   243  ILE243      0.0020
     87  CD1       37.9060  -17.7780   -0.9720 C.3   243  ILE243      0.0001
     88  N         41.5850  -21.4390   -2.0910 N.am  244  TYR244     -0.1976
     89  CA        42.6300  -22.1850   -1.3020 C.3   244  TYR244      0.1639
     90  C         42.1020  -23.6480   -1.1950 C.2   244  TYR244      0.2290
     91  O         40.9110  -23.8120   -1.3660 O.2   244  TYR244     -0.2864
     92  CB        42.8990  -21.6160    0.1440 C.3   244  TYR244      0.0560
     93  CG        41.7100  -21.0680    0.8880 C.ar  244  TYR244     -0.0198
     94  CD1       40.6160  -21.8800    1.2280 C.ar  244  TYR244     -0.0009
     95  CD2       41.6770  -19.6820    1.3150 C.ar  244  TYR244     -0.0009
     96  CE1       39.5310  -21.3500    1.9100 C.ar  244  TYR244      0.0417
     97  CE2       40.5750  -19.1560    1.9820 C.ar  244  TYR244      0.0417
     98  CZ        39.5050  -19.9990    2.2800 C.ar  244  TYR244      0.1957
     99  OH        38.4250  -19.4570    2.9380 O.3   244  TYR244     -0.2866
    100  N         40.7080  -26.6580    0.7830 N.3   246  ALA246     -0.1231
    101  CA        40.0520  -26.7060    2.0740 C.3   246  ALA246      0.1694
    102  C         39.1280  -27.8850    1.9920 C.2   246  ALA246      0.2591
    103  O         38.4260  -28.0820    0.9790 O.2   246  ALA246     -0.2718
    104  CB        39.2380  -25.4390    2.3750 C.3   246  ALA246      0.0304
    105  N         39.1990  -28.7070    3.0070 N.am  247  ALA247     -0.1980
    106  CA        38.4330  -29.9580    3.0090 C.3   247  ALA247      0.1597
    107  C         37.1860  -29.7860    3.8450 C.2   247  ALA247      0.2287
    108  O         37.1770  -28.9780    4.7400 O.2   247  ALA247     -0.2864
    109  CB        39.2720  -31.0500    3.6050 C.3   247  ALA247      0.0319
    110  N         34.0460  -29.1040    2.8410 N.3   249  GLY249     -0.1225
    111  CA        33.0600  -28.1310    2.4220 C.3   249  GLY249      0.1811
    112  C         31.7810  -28.7340    1.9180 C.2   249  GLY249      0.2280
    113  O         31.7630  -29.8080    1.2850 O.2   249  GLY249     -0.2866
    114  N         29.8170  -27.6420   -0.5540 N.3   251  ASP251     -0.1225
    115  CA        29.6710  -27.7040   -2.0070 C.3   251  ASP251      0.1805
    116  C         30.3330  -28.9460   -2.6270 C.2   251  ASP251      0.2597
    117  O         29.7710  -29.5610   -3.5310 O.2   251  ASP251     -0.2718
    118  CB        30.1040  -26.3990   -2.6900 C.3   251  ASP251      0.1424
    119  CG        31.5760  -26.1020   -2.5270 C.2   251  ASP251      0.3668
    120  OD1       32.2340  -26.7370   -1.6830 O.co2 251  ASP251     -0.2456
    121  OD2       32.0760  -25.2210   -3.2520 O.co2 251  ASP251     -0.2456
    122  N         31.5040  -29.3250   -2.1230 N.am  252  ASP252     -0.1974
    123  CA        32.1980  -30.5190   -2.6010 C.3   252  ASP252      0.1709
    124  C         31.4030  -31.7650   -2.2550 C.2   252  ASP252      0.2293
    125  O         31.2660  -32.7120   -3.0790 O.2   252  ASP252     -0.2864
    126  CB        33.5780  -30.6120   -1.9400 C.3   252  ASP252      0.1436
    127  CG        34.6080  -29.6610   -2.5930 C.2   252  ASP252      0.3671
    128  OD1       34.3410  -29.0140   -3.6150 O.co2 252  ASP252     -0.2456
    129  OD2       35.7210  -29.6430   -2.1310 O.co2 252  ASP252     -0.2456
    130  N         29.8950  -22.1870   -4.5350 N.3   264  THR264     -0.1218
    131  CA        30.0450  -21.2720   -3.4200 C.3   264  THR264      0.1862
    132  C         30.2020  -19.8950   -3.9740 C.2   264  THR264      0.2287
    133  O         31.0080  -19.6850   -4.8970 O.2   264  THR264     -0.2866
    134  CB        31.3030  -21.6320   -2.6000 C.3   264  THR264      0.1770
    135  OG1       31.1790  -22.9670   -2.0890 O.3   264  THR264     -0.2211
    136  CG2       31.4970  -20.5790   -1.4590 C.3   264  THR264      0.0375
    137  N         31.1910  -16.1280   -2.8850 N.3   266  GLU266     -0.1301
    138  CA        31.8530  -15.2980   -1.9170 C.3   266  GLU266      0.1252
    139  C         31.5480  -13.8770   -2.3210 C.3   266  GLU266      0.2009
    140  O         32.0280  -13.3950   -3.4150 O.3   266  GLU266     -0.2188
    141  CB        33.3730  -15.5220   -1.9440 C.3   266  GLU266      0.0335
    142  CG        33.9340  -16.7240   -1.2340 C.3   266  GLU266      0.1156
    143  CD        34.0640  -16.4510    0.2530 C.2   266  GLU266      0.3649
    144  OE1       33.2100  -15.8160    0.7980 O.co2 266  GLU266     -0.2457
    145  OE2       35.1510  -16.6700    0.8070 O.co2 266  GLU266     -0.2457
    146  N         34.2670   -8.6580    6.3410 N.3   275  PHE275     -0.1241
    147  CA        33.0260   -9.1330    6.9400 C.3   275  PHE275      0.1605
    148  C         32.1070   -8.0420    7.4490 C.2   275  PHE275      0.2264
    149  O         30.9000   -8.2470    7.4830 O.2   275  PHE275     -0.2867
    150  CB        33.3710  -10.0420    8.1200 C.3   275  PHE275      0.0534
    151  CG        34.2100  -11.1640    7.7100 C.ar  275  PHE275     -0.0203
    152  CD1       33.7470  -12.0680    6.7620 C.ar  275  PHE275     -0.0042
    153  CD2       35.5020  -11.3210    8.2220 C.ar  275  PHE275     -0.0042
    154  CE1       34.5540  -13.1100    6.3250 C.ar  275  PHE275     -0.0003
    155  CE2       36.3190  -12.3840    7.7980 C.ar  275  PHE275     -0.0003
    156  CZ        35.8500  -13.2690    6.8190 C.ar  275  PHE275     -0.0000
@<TRIPOS>BOND
     1    68    67    1
     2    68    69    2
     3    66    67    1
     4    67    70    1
     5    73    71    1
     6    70    71    1
     7   133   132    2
     8    71    72    1
     9    80    81    1
    10   130   131    1
    11   132   131    1
    12    74    75    1
    13   128   127   ar
    14   117   116    2
    15   131   134    1
    16   140   139    1
    17   121   119   ar
    18    81    84    1
    19    81    82    1
    20   125   124    2
    21   137   138    1
    22    75    76    1
    23    75    78    1
    24   118   119    1
    25   118   115    1
    26   116   122   am
    27   116   115    1
    28    84    86    1
    29    84    85    1
    30   123   124    1
    31   123   122    1
    32   123   126    1
    33   134   135    1
    34   134   136    1
    35   127   129   ar
    36   127   126    1
    37   119   120   ar
    38    79    78    1
    39    82    88   am
    40    82    83    2
    41   139   138    1
    42    88    89    1
    43   115   114    1
    44   141   138    1
    45   141   142    1
    46    76    77    2
    47    85    87    1
    48    91    90    2
    49    89    90    1
    50    89    92    1
    51   142   143    1
    52    92    93    1
    53   143   144   ar
    54   143   145   ar
    55    53    52    2
    56   100   101    1
    57    93    94   ar
    58    93    95   ar
    59    50    51    1
    60   103   102    2
    61    94    96   ar
    62   113   112    2
    63    95    97   ar
    64    52    51    1
    65    52    60   am
    66    57    55   ar
    67    57    59   ar
    68    54    51    1
    69    54    55    1
    70    96    98   ar
    71   112   111    1
    72    97    98   ar
    73   102   101    1
    74   102   105   am
    75   101   104    1
    76    61    60    1
    77    61    64    1
    78    61    62    1
    79    98    99    1
    80    55    56   ar
    81   111   110    1
    82    64    65    1
    83    59    58   ar
    84    62    63    2
    85    38    36   am
    86   105   106    1
    87   106   109    1
    88   106   107    1
    89    56    58   ar
    90    37    36    2
    91    36    35    1
    92   107   108    2
    93    18    17   ar
    94    34    33    2
    95    48    47    1
    96    49    47    1
    97    35    32    1
    98    47    46    2
    99    17    19   ar
   100    17    16    1
   101    46    45    1
   102    14    13    2
   103    33    32    1
   104    33    39   am
   105    15    16    1
   106    15    12    1
   107    45    44    1
   108    32    31    1
   109   154   152   ar
   110   154   156   ar
   111   146   147    1
   112     7     9   ar
   113     7     6   ar
   114     9    10   ar
   115   152   151   ar
   116    13    12    1
   117   156   155   ar
   118   147   148    1
   119   147   150    1
   120    12    11    1
   121    30    28    1
   122    39    40    1
   123    40    41    1
   124    40    43    1
   125   148   149    2
   126    29    28    1
   127    44    43    1
   128    10     8   ar
   129     6     5    1
   130     6     8   ar
   131   151   150    1
   132   151   153   ar
   133   155   153   ar
   134    41    42    2
   135     5     2    1
   136    28    27    2
   137     1     2    1
   138     4     3    2
   139     2     3    1
   140    27    26    1
   141    26    25    1
   142    25    24    1
   143    23    22    2
   144    24    21    1
   145    21    22    1
   146    21    20    1
