@<TRIPOS>MOLECULE
tmp/5zf3A02.pdb
 162 158 0 0 0
SMALL
GASTEIGER

@<TRIPOS>ATOM
      1  N         18.8350   39.8380  -19.5500 N.3    17  TRP17      -0.1241
      2  CA        18.2620   40.5050  -20.7040 C.3    17  TRP17       0.1605
      3  C         17.3510   41.6240  -20.2230 C.2    17  TRP17       0.2264
      4  O         16.6540   41.4790  -19.2170 O.2    17  TRP17      -0.2867
      5  CB        17.4380   39.5010  -21.5260 C.3    17  TRP17       0.0550
      6  CG        16.5990   40.1310  -22.5930 C.ar   17  TRP17       0.0003
      7  CD1       16.9840   40.4480  -23.8650 C.ar   17  TRP17       0.0946
      8  CD2       15.2310   40.5410  -22.4730 C.ar   17  TRP17       0.0152
      9  NE1       15.9350   41.0320  -24.5430 N.ar   17  TRP17      -0.2442
     10  CE2       14.8480   41.0980  -23.7100 C.ar   17  TRP17       0.0810
     11  CE3       14.2880   40.4810  -21.4390 C.ar   17  TRP17       0.0012
     12  CZ2       13.5600   41.5970  -23.9390 C.ar   17  TRP17       0.0191
     13  CZ3       13.0210   40.9770  -21.6620 C.ar   17  TRP17       0.0001
     14  CH2       12.6630   41.5220  -22.9040 C.ar   17  TRP17       0.0015
     15  N         10.8730   45.7370  -19.1400 N.3    43  ASN43      -0.1240
     16  CA        10.8230   44.2710  -19.0860 C.3    43  ASN43       0.1653
     17  C         12.2660   43.7590  -19.0110 C.2    43  ASN43       0.2266
     18  O         13.1150   44.1880  -19.7770 O.2    43  ASN43      -0.2867
     19  CB        10.1540   43.7530  -20.3660 C.3    43  ASN43       0.1155
     20  CG         9.7420   42.2820  -20.3120 C.2    43  ASN43       0.2627
     21  OD1        9.4780   41.7110  -21.3510 O.2    43  ASN43      -0.2716
     22  ND2        9.6670   41.6850  -19.1310 N.am   43  ASN43      -0.0877
     23  N         14.7660   40.0520  -17.5680 N.3    45  VAL45      -0.1245
     24  CA        14.8800   38.7060  -17.0040 C.3    45  VAL45       0.1561
     25  C         16.3530   38.4610  -16.6970 C.2    45  VAL45       0.2260
     26  O         17.1970   38.6000  -17.5860 O.2    45  VAL45      -0.2867
     27  CB        14.4010   37.6250  -17.9930 C.3    45  VAL45       0.0252
     28  CG1       14.7110   36.2280  -17.4480 C.3    45  VAL45       0.0019
     29  CG2       12.9200   37.7730  -18.3300 C.3    45  VAL45       0.0019
     30  N          8.0900   38.0790  -11.5860 N.3    72  TYR72      -0.1241
     31  CA         8.0440   36.6480  -11.3000 C.3    72  TYR72       0.1605
     32  C          9.3800   36.1750  -10.7410 C.2    72  TYR72       0.2264
     33  O         10.4330   36.7440  -11.0490 O.2    72  TYR72      -0.2867
     34  CB         7.7790   35.7960  -12.5620 C.3    72  TYR72       0.0534
     35  CG         6.7590   36.3290  -13.5430 C.ar   72  TYR72      -0.0201
     36  CD1        5.5210   36.8070  -13.1190 C.ar   72  TYR72      -0.0009
     37  CD2        7.0290   36.3160  -14.9060 C.ar   72  TYR72      -0.0009
     38  CE1        4.5890   37.2700  -14.0300 C.ar   72  TYR72       0.0417
     39  CE2        6.1040   36.7660  -15.8190 C.ar   72  TYR72       0.0417
     40  CZ         4.8900   37.2540  -15.3760 C.ar   72  TYR72       0.1957
     41  OH         3.9540   37.7010  -16.2780 O.3    72  TYR72      -0.2866
     42  N         13.2600   29.0250  -15.0880 N.3    76  TYR76      -0.1241
     43  CA        12.9450   29.6440  -16.3630 C.3    76  TYR76       0.1605
     44  C         13.9400   29.1530  -17.4030 C.2    76  TYR76       0.2264
     45  O         15.1340   29.0330  -17.1240 O.2    76  TYR76      -0.2867
     46  CB        13.0740   31.1670  -16.2020 C.3    76  TYR76       0.0534
     47  CG        13.0520   31.9450  -17.4970 C.ar   76  TYR76      -0.0201
     48  CD1       11.8520   32.2180  -18.1410 C.ar   76  TYR76      -0.0009
     49  CD2       14.2310   32.4120  -18.0770 C.ar   76  TYR76      -0.0009
     50  CE1       11.8270   32.9350  -19.3210 C.ar   76  TYR76       0.0417
     51  CE2       14.2140   33.1230  -19.2610 C.ar   76  TYR76       0.0417
     52  CZ        13.0110   33.3830  -19.8810 C.ar   76  TYR76       0.1957
     53  OH        12.9990   34.0930  -21.0620 O.3    76  TYR76      -0.2866
     54  N         14.4710   27.7700  -21.9050 N.3    78  TRP78      -0.1241
     55  CA        14.0030   27.6330  -23.2720 C.3    78  TRP78       0.1605
     56  C         14.3030   26.2410  -23.7910 C.2    78  TRP78       0.2264
     57  O         15.2760   25.5950  -23.3850 O.2    78  TRP78      -0.2867
     58  CB        14.7120   28.6230  -24.2050 C.3    78  TRP78       0.0550
     59  CG        14.3800   30.0550  -23.9330 C.ar   78  TRP78       0.0003
     60  CD1       14.9030   30.8480  -22.9590 C.ar   78  TRP78       0.0946
     61  CD2       13.4550   30.8670  -24.6660 C.ar   78  TRP78       0.0152
     62  NE1       14.3570   32.1110  -23.0350 N.ar   78  TRP78      -0.2442
     63  CE2       13.4660   32.1480  -24.0790 C.ar   78  TRP78       0.0810
     64  CE3       12.6260   30.6370  -25.7720 C.ar   78  TRP78       0.0012
     65  CZ2       12.6660   33.1960  -24.5520 C.ar   78  TRP78       0.0191
     66  CZ3       11.8390   31.6730  -26.2440 C.ar   78  TRP78       0.0001
     67  CH2       11.8620   32.9360  -25.6340 C.ar   78  TRP78       0.0015
     68  N          9.3970   28.9320  -24.4770 N.3    85  GLU85      -0.1245
     69  CA         9.8310   29.6010  -23.2570 C.3    85  GLU85       0.1567
     70  C          9.0240   29.0050  -22.1110 C.2    85  GLU85       0.2260
     71  O          7.7940   28.9520  -22.1920 O.2    85  GLU85      -0.2867
     72  CB         9.5450   31.0990  -23.3800 C.3    85  GLU85       0.0388
     73  CG        10.0970   31.9360  -22.2360 C.3    85  GLU85       0.1160
     74  CD         9.7860   33.4190  -22.4010 C.2    85  GLU85       0.3649
     75  OE1        8.6950   33.7440  -22.9270 O.co2  85  GLU85      -0.2457
     76  OE2       10.6270   34.2670  -22.0430 O.co2  85  GLU85      -0.2457
     77  N          8.3130   28.2140  -17.7260 N.3    87  TYR87      -0.1241
     78  CA         8.3730   28.7690  -16.3820 C.3    87  TYR87       0.1605
     79  C          7.8120   27.7720  -15.3800 C.2    87  TYR87       0.2264
     80  O          6.7280   27.2110  -15.5860 O.2    87  TYR87      -0.2867
     81  CB         7.4690   29.9880  -16.2630 C.3    87  TYR87       0.0534
     82  CG         7.8310   31.2370  -17.0260 C.ar   87  TYR87      -0.0201
     83  CD1        7.5520   31.3590  -18.3880 C.ar   87  TYR87      -0.0009
     84  CD2        8.3690   32.3360  -16.3660 C.ar   87  TYR87      -0.0009
     85  CE1        7.8290   32.5440  -19.0710 C.ar   87  TYR87       0.0417
     86  CE2        8.6420   33.5180  -17.0380 C.ar   87  TYR87       0.0417
     87  CZ         8.3760   33.6140  -18.3930 C.ar   87  TYR87       0.1957
     88  OH         8.6270   34.7870  -19.0660 O.3    87  TYR87      -0.2866
     89  N          3.2740   33.8660  -27.4020 N.3   121  ARG121     -0.1245
     90  CA         3.8720   35.1850  -27.6570 C.3   121  ARG121      0.1563
     91  C          3.8740   35.3260  -29.1840 C.2   121  ARG121      0.2260
     92  O          4.1820   34.3870  -29.8920 O.2   121  ARG121     -0.2867
     93  CB         5.3080   35.3310  -27.1160 C.3   121  ARG121      0.0307
     94  CG         5.4550   35.2200  -25.6100 C.3   121  ARG121      0.0489
     95  CD         4.5050   36.0890  -24.8030 C.3   121  ARG121      0.2205
     96  NE         4.4230   37.5120  -25.1770 N.pl3 121  ARG121     -0.0865
     97  CZ         5.0630   38.5330  -24.5120 C.cat 121  ARG121      0.5346
     98  NH1        5.9000   38.2040  -23.4220 N.pl3 121  ARG121      0.1354
     99  NH2        4.8790   39.8730  -24.9050 N.pl3 121  ARG121      0.1354
    100  N          7.6840   38.3930  -30.7800 N.3   124  GLN124     -0.1231
    101  CA         8.3520   38.8160  -29.5690 C.3   124  GLN124      0.1683
    102  C          9.8020   38.3460  -29.5700 C.2   124  GLN124      0.2434
    103  O         10.1490   37.3730  -30.2500 O.2   124  GLN124     -0.2733
    104  CB         7.6450   38.2500  -28.3300 C.3   124  GLN124      0.0380
    105  CG         6.2010   38.6920  -28.1800 C.3   124  GLN124      0.0905
    106  CD         6.0620   40.1830  -27.9530 C.2   124  GLN124      0.2608
    107  OE1        6.9720   40.8370  -27.4380 O.2   124  GLN124     -0.2717
    108  NE2        4.9150   40.7300  -28.3390 N.am  124  GLN124     -0.0878
    109  N         10.6460   39.0030  -28.7900 N.am  125  PRO125     -0.2718
    110  CA        12.0560   38.6060  -28.7190 C.3   125  PRO125      0.1535
    111  C         12.1760   37.1610  -28.1880 C.2   125  PRO125      0.2599
    112  O         11.3510   36.7200  -27.4050 O.2   125  PRO125     -0.2715
    113  CB        12.6800   39.6450  -27.7550 C.3   125  PRO125      0.0310
    114  CG        11.7580   40.8000  -27.7920 C.3   125  PRO125      0.0237
    115  CD        10.3910   40.2900  -28.1140 C.3   125  PRO125      0.0939
    116  N         13.2190   36.4680  -28.6130 N.am  126  SER126     -0.1950
    117  CA        13.4770   35.1080  -28.1600 C.3   126  SER126      0.1924
    118  C         14.9590   34.8080  -28.3380 C.2   126  SER126      0.2314
    119  O         15.7270   35.6270  -28.8550 O.2   126  SER126     -0.2863
    120  CB        12.6410   34.0950  -28.9420 C.3   126  SER126      0.2116
    121  OG        13.2930   33.7840  -30.1670 O.3   126  SER126     -0.2180
    122  N          5.8510   31.9850  -30.5660 N.3   133  PHE133     -0.1241
    123  CA         6.1990   30.7570  -29.8630 C.3   133  PHE133      0.1605
    124  C          5.2630   30.5600  -28.6820 C.2   133  PHE133      0.2264
    125  O          4.6980   31.5150  -28.1430 O.2   133  PHE133     -0.2867
    126  CB         7.6560   30.7680  -29.3690 C.3   133  PHE133      0.0534
    127  CG         8.0260   31.9910  -28.5560 C.ar  133  PHE133     -0.0203
    128  CD1        8.4840   33.1410  -29.1800 C.ar  133  PHE133     -0.0042
    129  CD2        7.9480   31.9770  -27.1690 C.ar  133  PHE133     -0.0042
    130  CE1        8.8420   34.2700  -28.4420 C.ar  133  PHE133     -0.0003
    131  CE2        8.3020   33.1000  -26.4230 C.ar  133  PHE133     -0.0003
    132  CZ         8.7480   34.2480  -27.0640 C.ar  133  PHE133     -0.0000
    133  N          4.5280   29.3830  -24.7160 N.3   135  GLN135     -0.1245
    134  CA         5.1000   29.3840  -23.3820 C.3   135  GLN135      0.1566
    135  C          4.3730   28.3360  -22.5560 C.2   135  GLN135      0.2260
    136  O          3.1490   28.2050  -22.6500 O.2   135  GLN135     -0.2867
    137  CB         4.9150   30.7390  -22.7040 C.3   135  GLN135      0.0367
    138  CG         5.3410   31.9310  -23.5230 C.3   135  GLN135      0.0905
    139  CD         4.9880   33.2170  -22.8200 C.2   135  GLN135      0.2608
    140  OE1        3.8170   33.5650  -22.7120 O.2   135  GLN135     -0.2717
    141  NE2        5.9940   33.9190  -22.3190 N.am  135  GLN135     -0.0878
    142  N         19.1540   27.2590  -22.3310 N.3   170  TYR170     -0.1241
    143  CA        19.5250   27.5730  -20.9580 C.3   170  TYR170      0.1605
    144  C         18.3720   27.3310  -19.9790 C.2   170  TYR170      0.2264
    145  O         17.1960   27.2200  -20.3540 O.2   170  TYR170     -0.2867
    146  CB        20.1460   28.9660  -20.8290 C.3   170  TYR170      0.0534
    147  CG        19.2330   30.1680  -21.0010 C.ar  170  TYR170     -0.0201
    148  CD1       18.3070   30.5180  -20.0230 C.ar  170  TYR170     -0.0009
    149  CD2       19.3480   30.9910  -22.1140 C.ar  170  TYR170     -0.0009
    150  CE1       17.4870   31.6310  -20.1640 C.ar  170  TYR170      0.0417
    151  CE2       18.5390   32.1150  -22.2660 C.ar  170  TYR170      0.0417
    152  CZ        17.6140   32.4310  -21.2870 C.ar  170  TYR170      0.1957
    153  OH        16.7960   33.5330  -21.4280 O.3   170  TYR170     -0.2866
    154  N         12.1620   38.0260  -13.0780 N.3   176  GLU176     -0.1245
    155  CA        11.6410   38.7660  -14.2100 C.3   176  GLU176      0.1567
    156  C         10.8230   39.9350  -13.6860 C.2   176  GLU176      0.2260
    157  O         10.1340   39.8160  -12.6720 O.2   176  GLU176     -0.2867
    158  CB        10.7620   37.8630  -15.0850 C.3   176  GLU176      0.0388
    159  CG        10.0550   38.6150  -16.2090 C.3   176  GLU176      0.1160
    160  CD         9.5000   37.7200  -17.3100 C.2   176  GLU176      0.3649
    161  OE1        9.8200   36.5100  -17.3550 O.co2 176  GLU176     -0.2457
    162  OE2        8.7360   38.2450  -18.1430 O.co2 176  GLU176     -0.2457
@<TRIPOS>BOND
     1   100   101    1
     2   122   123    1
     3   103   102    2
     4   121   120    1
     5    92    91    2
     6   123   126    1
     7   123   124    1
     8   102   101    1
     9   102   109   am
    10   101   104    1
    11   126   127    1
    12    91    90    1
    13   128   127   ar
    14   128   130   ar
    15   120   117    1
    16   119   118    2
    17   109   110    1
    18   109   115    1
    19   110   111    1
    20   110   113    1
    21   124   125    2
    22   116   111   am
    23   116   117    1
    24   127   129   ar
    25   130   132   ar
    26   108   106   am
    27   118   117    1
    28   104   105    1
    29   111   112    2
    30   105   106    1
    31   115   114    1
    32   106   107    2
    33   114   113    1
    34    90    89    1
    35    90    93    1
    36   129   131   ar
    37    93    94    1
    38   132   131   ar
    39    66    64   ar
    40    66    67   ar
    41    64    61   ar
    42    67    65   ar
    43    94    95    1
    44    96    95    1
    45    96    97    2
    46    99    97    1
    47   133   134    1
    48    61    63   ar
    49    61    59   ar
    50    65    63   ar
    51     9     7   ar
    52     9    10   ar
    53    97    98    1
    54    68    69    1
    55    58    59    1
    56    58    55    1
    57    63    62   ar
    58    12    10   ar
    59    12    14   ar
    60    59    60   ar
    61     7     6   ar
    62    56    57    2
    63    56    55    1
    64    10     8   ar
    65   138   139    1
    66   138   137    1
    67   134   137    1
    68   134   135    1
    69    72    69    1
    70    72    73    1
    71    55    54    1
    72    69    70    1
    73    62    60   ar
    74    75    74   ar
    75    14    13   ar
    76   139   140    2
    77   139   141   am
    78   136   135    2
    79     6     8   ar
    80     6     5    1
    81     8    11   ar
    82    74    73    1
    83    74    76   ar
    84   142   143    1
    85   151   149   ar
    86   151   152   ar
    87    71    70    2
    88   149   147   ar
    89    13    11   ar
    90     5     2    1
    91   153   152    1
    92    21    20    2
    93   152   150   ar
    94    53    52    1
    95   147   146    1
    96   147   148   ar
    97   143   146    1
    98   143   144    1
    99     2     3    1
   100     2     1    1
   101    19    20    1
   102    19    16    1
   103   145   144    2
   104    20    22   am
   105     3     4    2
   106   150   148   ar
   107    52    50   ar
   108    52    51   ar
   109    18    17    2
   110    50    48   ar
   111    51    49   ar
   112    15    16    1
   113    16    17    1
   114    85    87   ar
   115    85    83   ar
   116    88    87    1
   117    87    86   ar
   118    83    82   ar
   119    29    27    1
   120   162   160   ar
   121    48    47   ar
   122    49    47   ar
   123    27    28    1
   124    27    24    1
   125    77    78    1
   126    26    25    2
   127    23    24    1
   128    47    46    1
   129    44    45    2
   130    44    43    1
   131   161   160   ar
   132   160   159    1
   133    86    84   ar
   134    82    84   ar
   135    82    81    1
   136    24    25    1
   137    78    81    1
   138    78    79    1
   139    43    46    1
   140    43    42    1
   141    41    40    1
   142   159   158    1
   143    39    40   ar
   144    39    37   ar
   145    80    79    2
   146    40    38   ar
   147   158   155    1
   148    37    35   ar
   149   155   156    1
   150   155   154    1
   151    38    36   ar
   152   156   157    2
   153    35    36   ar
   154    35    34    1
   155    34    31    1
   156    30    31    1
   157    31    32    1
   158    33    32    2
