@<TRIPOS>MOLECULE
tmp/5zf4A02.pdb
 212 202 0 0 0
SMALL
GASTEIGER

@<TRIPOS>ATOM
      1  N         -5.6080   24.0320   -7.0940 N.3     8  TYR8       -0.1241
      2  CA        -5.4290   25.4160   -6.6660 C.3     8  TYR8        0.1605
      3  C         -4.1450   26.0190   -7.2380 C.2     8  TYR8        0.2264
      4  O         -4.1690   27.1040   -7.8190 O.2     8  TYR8       -0.2867
      5  CB        -5.4680   25.5030   -5.1300 C.3     8  TYR8        0.0534
      6  CG        -6.8670   25.6940   -4.5550 C.ar    8  TYR8       -0.0201
      7  CD1       -7.7730   24.6240   -4.4880 C.ar    8  TYR8       -0.0009
      8  CD2       -7.2840   26.9460   -4.0780 C.ar    8  TYR8       -0.0009
      9  CE1       -9.0470   24.7960   -3.9510 C.ar    8  TYR8        0.0417
     10  CE2       -8.5570   27.1280   -3.5450 C.ar    8  TYR8        0.0417
     11  CZ        -9.4310   26.0470   -3.4910 C.ar    8  TYR8        0.1957
     12  OH       -10.6850   26.2220   -2.9630 O.3     8  TYR8       -0.2866
     13  N         -6.6280   27.1360  -10.4540 N.3    12  LEU12      -0.1231
     14  CA        -7.5580   28.1070   -9.8670 C.3    12  LEU12       0.1693
     15  C         -6.8930   29.4310   -9.4830 C.2    12  LEU12       0.2591
     16  O         -7.3200   30.4980   -9.9350 O.2    12  LEU12      -0.2718
     17  CB        -8.3300   27.5160   -8.6820 C.3    12  LEU12       0.0284
     18  CG        -9.4160   28.3990   -8.0460 C.3    12  LEU12       0.0019
     19  CD1      -10.5010   28.8070   -9.0420 C.3    12  LEU12       0.0001
     20  CD2      -10.0200   27.6880   -6.8490 C.3    12  LEU12       0.0001
     21  N         -5.8530   29.3630   -8.6540 N.am   13  MET13      -0.1979
     22  CA        -5.1850   30.5930   -8.2190 C.3    13  MET13       0.1605
     23  C         -4.5710   31.3880   -9.3720 C.2    13  MET13       0.2287
     24  O         -4.8470   32.5800   -9.4740 O.2    13  MET13      -0.2864
     25  CB        -4.1590   30.3400   -7.1040 C.3    13  MET13       0.0413
     26  CG        -4.7420   29.7000   -5.8480 C.3    13  MET13       0.0598
     27  SD        -6.0320   30.6560   -5.0250 S.3    13  MET13      -0.1393
     28  CE        -5.0710   31.9910   -4.3070 C.3    13  MET13       0.0692
     29  N         -7.4100   33.0310  -11.4510 N.3    16  LEU16      -0.1231
     30  CA        -8.0310   34.1610  -10.7530 C.3    16  LEU16       0.1693
     31  C         -7.1020   35.3680  -10.6100 C.2    16  LEU16       0.2591
     32  O         -7.5620   36.4950  -10.7080 O.2    16  LEU16      -0.2718
     33  CB        -8.5990   33.7520   -9.3930 C.3    16  LEU16       0.0284
     34  CG        -9.7720   32.7610   -9.3900 C.3    16  LEU16       0.0019
     35  CD1      -10.1190   32.3420   -7.9660 C.3    16  LEU16       0.0001
     36  CD2      -10.9940   33.3520  -10.0910 C.3    16  LEU16       0.0001
     37  N         -5.8060   35.1310  -10.3890 N.am   17  GLN17      -0.1979
     38  CA        -4.8360   36.2360  -10.3360 C.3    17  GLN17       0.1601
     39  C         -4.7210   36.9700  -11.6660 C.2    17  GLN17       0.2287
     40  O         -4.4830   38.1720  -11.6910 O.2    17  GLN17      -0.2864
     41  CB        -3.4610   35.7390   -9.9100 C.3    17  GLN17       0.0394
     42  CG        -3.4210   35.2830   -8.4620 C.3    17  GLN17       0.0908
     43  CD        -2.0250   34.9110   -8.0320 C.2    17  GLN17       0.2608
     44  OE1       -1.3400   34.1480   -8.7190 O.2    17  GLN17      -0.2717
     45  NE2       -1.5900   35.4420   -6.8940 N.am   17  GLN17      -0.0878
     46  N         -7.9080   39.3460  -11.5420 N.3    20  LEU20      -0.1245
     47  CA        -8.1250   40.2470  -10.4210 C.3    20  LEU20       0.1561
     48  C         -6.8510   40.9910  -10.0860 C.2    20  LEU20       0.2260
     49  O         -5.7700   40.3790  -10.0150 O.2    20  LEU20      -0.2867
     50  CB        -8.5860   39.4610   -9.1820 C.3    20  LEU20       0.0270
     51  CG        -9.9320   38.7240   -9.2090 C.3    20  LEU20       0.0019
     52  CD1       -9.9890   37.7410   -8.0530 C.3    20  LEU20       0.0001
     53  CD2      -11.1030   39.6960   -9.1600 C.3    20  LEU20       0.0001
     54  N         -4.1960   42.8540   -7.5930 N.3    22  PRO22      -0.2116
     55  CA        -3.7160   42.3300   -6.2940 C.3    22  PRO22       0.1372
     56  C         -4.5700   42.6500   -5.0780 C.2    22  PRO22       0.2244
     57  O         -4.9290   41.7360   -4.3330 O.2    22  PRO22      -0.2868
     58  CB        -2.3270   42.9370   -6.1810 C.3    22  PRO22       0.0268
     59  CG        -1.8600   42.8910   -7.5980 C.3    22  PRO22       0.0207
     60  CD        -3.0490   43.4000   -8.3600 C.3    22  PRO22       0.0892
     61  N         -7.9130   40.8840   -5.1820 N.3    25  ALA25      -0.1231
     62  CA        -7.6910   39.4780   -4.8720 C.3    25  ALA25       0.1694
     63  C         -7.5380   39.2690   -3.3540 C.2    25  ALA25       0.2592
     64  O         -8.1250   38.3470   -2.7910 O.2    25  ALA25      -0.2718
     65  CB        -6.4650   38.9740   -5.6180 C.3    25  ALA25       0.0304
     66  N         -6.7620   40.1390   -2.7060 N.am   26  HIS26      -0.1976
     67  CA        -6.5770   40.1040   -1.2440 C.3    26  HIS26       0.1656
     68  C         -7.9290   40.2380   -0.5330 C.2    26  HIS26       0.2291
     69  O         -8.2690   39.4230    0.3270 O.2    26  HIS26      -0.2864
     70  CB        -5.5950   41.2240   -0.8450 C.3    26  HIS26       0.0771
     71  CG        -5.2790   41.3270    0.6230 C.ar   26  HIS26       0.0820
     72  ND1       -5.6280   40.3780    1.5690 N.ar   26  HIS26      -0.2267
     73  CD2       -4.5870   42.2810    1.2900 C.ar   26  HIS26       0.1154
     74  CE1       -5.2010   40.7700    2.7580 C.ar   26  HIS26       0.1986
     75  NE2       -4.5500   41.9090    2.6140 N.ar   26  HIS26      -0.2212
     76  N        -10.8980   39.6400   -1.7670 N.3    28  LEU28      -0.1231
     77  CA       -11.7260   38.4540   -2.0450 C.3    28  LEU28       0.1693
     78  C        -11.3170   37.2500   -1.1910 C.2    28  LEU28       0.2591
     79  O        -12.1700   36.4950   -0.7150 O.2    28  LEU28      -0.2718
     80  CB       -11.6920   38.0920   -3.5340 C.3    28  LEU28       0.0284
     81  CG       -12.7140   37.0490   -4.0140 C.3    28  LEU28       0.0019
     82  CD1      -14.1350   37.5850   -3.8480 C.3    28  LEU28       0.0001
     83  CD2      -12.4500   36.6780   -5.4680 C.3    28  LEU28       0.0001
     84  N        -10.0040   37.0760   -1.0080 N.am   29  ALA29      -0.1980
     85  CA        -9.4710   35.9980   -0.1860 C.3    29  ALA29       0.1597
     86  C         -9.9220   36.1340    1.2640 C.2    29  ALA29       0.2287
     87  O        -10.2560   35.1380    1.8950 O.2    29  ALA29      -0.2864
     88  CB        -7.9440   35.9630   -0.2680 C.3    29  ALA29       0.0319
     89  N        -13.7010   35.2110    1.1740 N.3    32  PHE32      -0.1227
     90  CA       -13.8560   33.7540    1.0570 C.3    32  PHE32       0.1736
     91  C        -13.5360   33.0520    2.3700 C.2    32  PHE32       0.2596
     92  O        -14.2300   32.1250    2.7770 O.2    32  PHE32      -0.2718
     93  CB       -12.9650   33.1880   -0.0630 C.3    32  PHE32       0.0547
     94  CG       -13.5220   33.3570   -1.4670 C.ar   32  PHE32      -0.0202
     95  CD1      -14.6680   34.1310   -1.7310 C.ar   32  PHE32      -0.0042
     96  CD2      -12.8650   32.7580   -2.5460 C.ar   32  PHE32      -0.0042
     97  CE1      -15.1550   34.2690   -3.0330 C.ar   32  PHE32      -0.0003
     98  CE2      -13.3430   32.9020   -3.8520 C.ar   32  PHE32      -0.0003
     99  CZ       -14.4900   33.6600   -4.0910 C.ar   32  PHE32      -0.0000
    100  N        -12.4820   33.5170    3.0450 N.am   33  THR33      -0.1953
    101  CA       -12.0650   32.9170    4.3040 C.3    33  THR33       0.1897
    102  C        -13.1290   33.1370    5.3820 C.2    33  THR33       0.2313
    103  O        -13.5070   32.1900    6.0810 O.2    33  THR33      -0.2863
    104  CB       -10.6690   33.4480    4.7030 C.3    33  THR33       0.1794
    105  OG1       -9.7640   33.1200    3.6390 O.3    33  THR33      -0.2208
    106  CG2      -10.1630   32.8120    5.9980 C.3    33  THR33       0.0378
    107  N        -15.5790   29.6110    2.4620 N.3    37  LEU37      -0.1231
    108  CA       -15.5100   29.0840    1.0930 C.3    37  LEU37       0.1693
    109  C        -14.0960   28.5500    0.8510 C.2    37  LEU37       0.2591
    110  O        -13.2920   29.1390    0.1110 O.2    37  LEU37      -0.2718
    111  CB       -15.9040   30.1410    0.0550 C.3    37  LEU37       0.0284
    112  CG       -17.3590   30.6440   -0.0270 C.3    37  LEU37       0.0019
    113  CD1      -17.4530   31.8160   -0.9950 C.3    37  LEU37       0.0001
    114  CD2      -18.3440   29.5470   -0.4350 C.3    37  LEU37       0.0001
    115  N        -13.8160   27.4300    1.5000 N.am   38  LEU38      -0.1980
    116  CA       -12.4750   26.8770    1.5990 C.3    38  LEU38       0.1596
    117  C        -12.5360   25.3830    1.3180 C.2    38  LEU38       0.2287
    118  O        -13.5390   24.7440    1.6470 O.2    38  LEU38      -0.2864
    119  CB       -11.8940   27.1380    3.0050 C.3    38  LEU38       0.0297
    120  CG       -11.7820   28.5990    3.4700 C.3    38  LEU38       0.0022
    121  CD1      -11.5750   28.6930    4.9760 C.3    38  LEU38       0.0001
    122  CD2      -10.6860   29.3470    2.7130 C.3    38  LEU38       0.0001
    123  N         -2.4860   39.5960    6.3800 N.3    68  PHE68      -0.1241
    124  CA        -3.5610   38.9510    5.6280 C.3    68  PHE68       0.1605
    125  C         -4.9010   39.4170    6.1950 C.2    68  PHE68       0.2264
    126  O         -5.7150   39.9910    5.4760 O.2    68  PHE68      -0.2867
    127  CB        -3.4600   37.4210    5.6300 C.3    68  PHE68       0.0534
    128  CG        -4.6500   36.7710    4.9940 C.ar   68  PHE68      -0.0203
    129  CD1       -4.8100   36.8290    3.6080 C.ar   68  PHE68      -0.0042
    130  CD2       -5.6670   36.1950    5.7750 C.ar   68  PHE68      -0.0042
    131  CE1       -5.9410   36.2780    2.9980 C.ar   68  PHE68      -0.0003
    132  CE2       -6.8010   35.6370    5.1640 C.ar   68  PHE68      -0.0003
    133  CZ        -6.9290   35.6870    3.7780 C.ar   68  PHE68      -0.0000
    134  N         -8.6580   26.6560    7.8080 N.3    81  MET81      -0.1245
    135  CA        -7.6050   26.3680    6.8160 C.3    81  MET81       0.1570
    136  C         -6.5340   25.4210    7.3320 C.2    81  MET81       0.2261
    137  O         -5.8150   24.7920    6.5370 O.2    81  MET81      -0.2867
    138  CB        -6.9040   27.6490    6.3660 C.3    81  MET81       0.0387
    139  CG        -7.5420   28.3630    5.2190 C.3    81  MET81       0.0595
    140  SD        -6.3570   29.4860    4.4550 S.3    81  MET81      -0.1393
    141  CE        -7.4700   30.8420    4.1370 C.3    81  MET81       0.0692
    142  N         -0.0980   47.1590   -3.8620 N.3   104  VAL104     -0.1245
    143  CA         0.3260   45.7550   -3.7460 C.3   104  VAL104      0.1561
    144  C          0.5830   45.2460   -5.1560 C.2   104  VAL104      0.2260
    145  O         -0.2070   45.5010   -6.0750 O.2   104  VAL104     -0.2867
    146  CB        -0.7590   44.8380   -3.1260 C.3   104  VAL104      0.0252
    147  CG1       -0.1410   43.5090   -2.6880 C.3   104  VAL104      0.0019
    148  CG2       -1.4720   45.5010   -1.9730 C.3   104  VAL104      0.0019
    149  N          2.1980   41.9130   -7.6310 N.3   106  ARG106     -0.1245
    150  CA         2.6900   40.5370   -7.7530 C.3   106  ARG106      0.1563
    151  C          3.9490   40.4790   -8.5990 C.2   106  ARG106      0.2260
    152  O          4.0760   41.2180   -9.5810 O.2   106  ARG106     -0.2867
    153  CB         1.6560   39.6390   -8.4210 C.3   106  ARG106      0.0307
    154  CG         0.3350   39.5370   -7.7030 C.3   106  ARG106      0.0489
    155  CD        -0.5120   38.5060   -8.4270 C.3   106  ARG106      0.2205
    156  NE        -1.8830   38.5190   -7.9360 N.pl3 106  ARG106     -0.0865
    157  CZ        -2.9160   39.1110   -8.5330 C.cat 106  ARG106      0.5346
    158  NH1       -2.7870   39.7690   -9.6970 N.pl3 106  ARG106      0.1354
    159  NH2       -4.1040   39.0290   -7.9580 N.pl3 106  ARG106      0.1354
    160  N          5.8780   39.0210   -3.6790 N.3   113  VAL113     -0.1245
    161  CA         4.9570   40.1600   -3.6620 C.3   113  VAL113      0.1561
    162  C          5.7270   41.3740   -3.1460 C.2   113  VAL113      0.2260
    163  O          6.6410   41.2290   -2.3270 O.2   113  VAL113     -0.2867
    164  CB         3.7290   39.8380   -2.7650 C.3   113  VAL113      0.0252
    165  CG1        2.8950   41.0840   -2.4340 C.3   113  VAL113      0.0019
    166  CG2        2.8430   38.7930   -3.4490 C.3   113  VAL113      0.0019
    167  N          1.2240   48.9060    1.6540 N.3   117  TYR117     -0.1241
    168  CA        -0.1120   49.2170    2.1940 C.3   117  TYR117      0.1605
    169  C         -0.1060   50.4630    3.0790 C.2   117  TYR117      0.2264
    170  O         -0.9910   51.3330    2.9470 O.2   117  TYR117     -0.2867
    171  CB        -0.6800   48.0250    2.9570 C.3   117  TYR117      0.0534
    172  CG        -1.6250   47.1610    2.1740 C.ar  117  TYR117     -0.0201
    173  CD1       -1.3310   45.8160    1.9400 C.ar  117  TYR117     -0.0009
    174  CD2       -2.8480   47.6690    1.7030 C.ar  117  TYR117     -0.0009
    175  CE1       -2.2210   44.9970    1.2490 C.ar  117  TYR117      0.0417
    176  CE2       -3.7390   46.8610    1.0000 C.ar  117  TYR117      0.0417
    177  CZ        -3.4240   45.5300    0.7860 C.ar  117  TYR117      0.1957
    178  OH        -4.2820   44.7120    0.0980 O.3   117  TYR117     -0.2866
    179  N          2.6250   33.8070    4.5350 N.3   326  TYR326     -0.1241
    180  CA         1.5790   34.6160    3.9310 C.3   326  TYR326      0.1605
    181  C          1.6710   34.5230    2.4050 C.2   326  TYR326      0.2264
    182  O          0.7380   34.0430    1.7500 O.2   326  TYR326     -0.2867
    183  CB         1.6720   36.0610    4.4700 C.3   326  TYR326      0.0534
    184  CG         0.6450   37.0570    3.9570 C.ar  326  TYR326     -0.0201
    185  CD1        0.7340   38.3970    4.3510 C.ar  326  TYR326     -0.0009
    186  CD2       -0.3960   36.6850    3.0780 C.ar  326  TYR326     -0.0009
    187  CE1       -0.1710   39.3350    3.8980 C.ar  326  TYR326      0.0417
    188  CE2       -1.3020   37.6300    2.6140 C.ar  326  TYR326      0.0417
    189  CZ        -1.1870   38.9440    3.0360 C.ar  326  TYR326      0.1957
    190  OH        -2.0590   39.9060    2.5940 O.3   326  TYR326     -0.2866
    191  N          0.4090   31.4860    0.5460 N.3   329  LEU329     -0.1231
    192  CA        -1.0700   31.4150    0.4710 C.3   329  LEU329      0.1693
    193  C         -1.6140   32.1840   -0.7260 C.2   329  LEU329      0.2592
    194  O         -2.5760   31.7400   -1.3740 O.2   329  LEU329     -0.2718
    195  CB        -1.6980   31.9330    1.7740 C.3   329  LEU329      0.0284
    196  CG        -3.2340   31.9650    1.8860 C.3   329  LEU329      0.0019
    197  CD1       -3.8570   30.5890    1.7360 C.3   329  LEU329      0.0001
    198  CD2       -3.6240   32.5590    3.2300 C.3   329  LEU329      0.0001
    199  N         -0.9950   33.3230   -1.0260 N.am  330  THR330     -0.1953
    200  CA        -1.4600   34.1730   -2.1250 C.3   330  THR330      0.1897
    201  C         -1.2480   33.5130   -3.4810 C.2   330  THR330      0.2313
    202  O         -2.0470   33.7190   -4.3910 O.2   330  THR330     -0.2863
    203  CB        -0.8580   35.5950   -2.1060 C.3   330  THR330      0.1794
    204  OG1        0.4860   35.5820   -2.6270 O.3   330  THR330     -0.2208
    205  CG2       -0.8840   36.1900   -0.7010 C.3   330  THR330      0.0378
    206  N         -5.3490   28.0690   -0.1020 N.3   334  PRO334     -0.2116
    207  CA        -5.5050   27.3350    1.1650 C.3   334  PRO334      0.1372
    208  C         -4.8520   25.9330    1.2620 C.2   334  PRO334      0.2244
    209  O         -4.3710   25.5960    2.3590 O.2   334  PRO334     -0.2868
    210  CB        -7.0340   27.2660    1.3380 C.3   334  PRO334      0.0268
    211  CG        -7.4980   28.5320    0.6960 C.3   334  PRO334      0.0207
    212  CD        -6.6140   28.6990   -0.5270 C.3   334  PRO334      0.0892
@<TRIPOS>BOND
     1    40    39    2
     2    39    38    1
     3    46    47    1
     4    29    30    1
     5    30    31    1
     6    30    33    1
     7    32    31    2
     8    31    37   am
     9    13    14    1
    10    47    48    1
    11    47    50    1
    12    37    38    1
    13    38    41    1
    14    36    34    1
    15    48    49    2
    16    16    15    2
    17    41    42    1
    18    14    15    1
    19    14    17    1
    20   158   157    1
    21   152   151    2
    22    15    21   am
    23    24    23    2
    24    33    34    1
    25    34    35    1
    26    23    22    1
    27    51    50    1
    28    51    53    1
    29    51    52    1
    30    19    18    1
    31    44    43    2
    32    17    18    1
    33    21    22    1
    34   151   150    1
    35   157   159    1
    36   157   156    2
    37    42    43    1
    38   155   156    1
    39   155   154    1
    40   153   150    1
    41   153   154    1
    42    60    59    1
    43    60    54    1
    44    22    25    1
    45    18    20    1
    46    43    45   am
    47     4     3    2
    48   150   149    1
    49    59    58    1
    50    54    55    1
    51     3     2    1
    52    25    26    1
    53     1     2    1
    54     2     5    1
    55    55    58    1
    56    55    56    1
    57   145   144    2
    58    26    27    1
    59    65    62    1
    60    83    81    1
    61    61    62    1
    62   144   143    1
    63     5     6    1
    64    56    57    2
    65    27    28    1
    66    62    63    1
    67     6     7   ar
    68     6     8   ar
    69     7     9   ar
    70   202   201    2
    71    99    98   ar
    72    99    97   ar
    73     8    10   ar
    74    81    82    1
    75    81    80    1
    76     9    11   ar
    77   142   143    1
    78    98    96   ar
    79   143   146    1
    80   160   161    1
    81   161   162    1
    82   161   164    1
    83    10    11   ar
    84    80    77    1
    85    11    12    1
    86   201   200    1
    87   166   164    1
    88    63    64    2
    89    63    66   am
    90   162   163    2
    91   146   147    1
    92   146   148    1
    93    97    95   ar
    94   164   165    1
    95    66    67    1
    96   204   203    1
    97    96    94   ar
    98   200   203    1
    99   200   199    1
   100   203   205    1
   101    77    76    1
   102    77    78    1
   103    95    94   ar
   104    94    93    1
   105   194   193    2
   106    67    70    1
   107    67    68    1
   108    78    84   am
   109    78    79    2
   110   199   193   am
   111    84    85    1
   112   113   112    1
   113    70    71    1
   114   193   192    1
   115    68    69    2
   116   212   206    1
   117   212   211    1
   118   114   112    1
   119    88    85    1
   120    85    86    1
   121   206   207    1
   122    93    90    1
   123   112   111    1
   124   111   108    1
   125   178   177    1
   126   110   109    2
   127   192   191    1
   128   192   195    1
   129    71    73   ar
   130    71    72   ar
   131   211   210    1
   132   177   176   ar
   133   177   175   ar
   134   109   108    1
   135   109   115   am
   136   176   174   ar
   137    90    89    1
   138    90    91    1
   139   108   107    1
   140   207   208    1
   141   207   210    1
   142   175   173   ar
   143   208   209    2
   144    86    87    2
   145    73    75   ar
   146   117   116    1
   147   117   118    2
   148   115   116    1
   149    72    74   ar
   150   116   119    1
   151   167   168    1
   152   174   172   ar
   153   197   196    1
   154   182   181    2
   155   195   196    1
   156   196   198    1
   157   173   172   ar
   158   172   171    1
   159   168   171    1
   160   168   169    1
   161    91    92    2
   162    91   100   am
   163   181   180    1
   164   190   189    1
   165    75    74   ar
   166   188   189   ar
   167   188   186   ar
   168   122   120    1
   169   170   169    2
   170   131   129   ar
   171   131   133   ar
   172   119   120    1
   173   189   187   ar
   174   100   101    1
   175   186   184   ar
   176   120   121    1
   177   129   128   ar
   178   105   104    1
   179   133   132   ar
   180   187   185   ar
   181   180   183    1
   182   180   179    1
   183   184   185   ar
   184   184   183    1
   185   141   140    1
   186   101   104    1
   187   101   102    1
   188   140   139    1
   189   104   106    1
   190   128   127    1
   191   128   130   ar
   192   132   130   ar
   193   139   138    1
   194   102   103    2
   195   126   125    2
   196   124   127    1
   197   124   125    1
   198   124   123    1
   199   138   135    1
   200   137   136    2
   201   135   136    1
   202   135   134    1
