@<TRIPOS>MOLECULE
tmp/5zf7A02.pdb
 215 206 0 0 0
SMALL
GASTEIGER

@<TRIPOS>ATOM
      1  N        -23.4680    7.2460  -27.7780 N.3     8  TYR8       -0.1241
      2  CA       -24.5840    8.0750  -27.3280 C.3     8  TYR8        0.1605
      3  C        -24.4870    9.4980  -27.8850 C.2     8  TYR8        0.2264
      4  O        -25.4460    9.9980  -28.4700 O.2     8  TYR8       -0.2867
      5  CB       -24.6570    8.0710  -25.7970 C.3     8  TYR8        0.0534
      6  CG       -25.4750    6.9220  -25.2280 C.ar    8  TYR8       -0.0201
      7  CD1      -24.9470    5.6220  -25.1530 C.ar    8  TYR8       -0.0009
      8  CD2      -26.7770    7.1380  -24.7590 C.ar    8  TYR8       -0.0009
      9  CE1      -25.6970    4.5720  -24.6200 C.ar    8  TYR8        0.0417
     10  CE2      -27.5340    6.1000  -24.2280 C.ar    8  TYR8        0.0417
     11  CZ       -26.9920    4.8230  -24.1640 C.ar    8  TYR8        0.1957
     12  OH       -27.7440    3.7980  -23.6420 O.3     8  TYR8       -0.2866
     13  N        -28.2250    9.6720  -29.3430 N.3    13  MET13      -0.1245
     14  CA       -28.9580   10.8630  -28.8890 C.3    13  MET13       0.1570
     15  C        -29.3680   11.7890  -30.0410 C.2    13  MET13       0.2261
     16  O        -30.5460   12.1290  -30.1090 O.2    13  MET13      -0.2867
     17  CB       -28.2210   11.6310  -27.7740 C.3    13  MET13       0.0387
     18  CG       -27.9190   10.8100  -26.5280 C.3    13  MET13       0.0595
     19  SD       -29.3630   10.0960  -25.7130 S.3    13  MET13      -0.1393
     20  CE       -30.2040   11.5760  -25.1490 C.3    13  MET13       0.0692
     21  N        -32.2680   10.0560  -31.9240 N.3    16  LEU16      -0.1231
     22  CA       -33.5290   10.0540  -31.1680 C.3    16  LEU16       0.1693
     23  C        -34.1370   11.4540  -31.0470 C.2    16  LEU16       0.2591
     24  O        -35.3560   11.6080  -31.1050 O.2    16  LEU16      -0.2718
     25  CB       -33.3560    9.4080  -29.7900 C.3    16  LEU16       0.0284
     26  CG       -33.0250    7.9070  -29.6970 C.3    16  LEU16       0.0019
     27  CD1      -32.6230    7.5560  -28.2690 C.3    16  LEU16       0.0001
     28  CD2      -34.1820    7.0220  -30.1640 C.3    16  LEU16       0.0001
     29  N        -33.2810   12.4670  -30.8950 N.am   17  GLN17      -0.1979
     30  CA       -33.7290   13.8700  -30.8840 C.3    17  GLN17       0.1601
     31  C        -34.3410   14.3160  -32.2170 C.2    17  GLN17       0.2287
     32  O        -35.2570   15.1380  -32.2330 O.2    17  GLN17      -0.2864
     33  CB       -32.5860   14.8030  -30.5000 C.3    17  GLN17       0.0394
     34  CG       -32.1390   14.6460  -29.0510 C.3    17  GLN17       0.0908
     35  CD       -31.1490   15.7110  -28.6340 C.2    17  GLN17       0.2608
     36  OE1      -30.1410   15.9420  -29.3130 O.2    17  GLN17      -0.2717
     37  NE2      -31.4270   16.3680  -27.5080 N.am   17  GLN17      -0.0878
     38  N        -38.0480   12.6650  -31.9650 N.3    20  LEU20      -0.1245
     39  CA       -38.9700   12.9760  -30.8790 C.3    20  LEU20       0.1561
     40  C        -38.9120   14.4500  -30.5480 C.2    20  LEU20       0.2260
     41  O        -37.8140   15.0230  -30.4490 O.2    20  LEU20      -0.2867
     42  CB       -38.6000   12.1710  -29.6250 C.3    20  LEU20       0.0270
     43  CG       -38.6530   10.6390  -29.6880 C.3    20  LEU20       0.0019
     44  CD1      -37.7360   10.0360  -28.6330 C.3    20  LEU20       0.0001
     45  CD2      -40.0830   10.1480  -29.5090 C.3    20  LEU20       0.0001
     46  N        -39.0750   17.6360  -27.9970 N.3    22  PRO22      -0.2116
     47  CA       -38.3500   17.7280  -26.7250 C.3    22  PRO22       0.1372
     48  C        -39.1190   17.1950  -25.5120 C.2    22  PRO22       0.2244
     49  O        -38.5550   16.4350  -24.7320 O.2    22  PRO22      -0.2868
     50  CB       -38.0930   19.2320  -26.6040 C.3    22  PRO22       0.0268
     51  CG       -37.9470   19.6700  -28.0190 C.3    22  PRO22       0.0207
     52  CD       -39.0370   18.9270  -28.7200 C.3    22  PRO22       0.0892
     53  N        -39.3840   13.4180  -25.6690 N.3    25  ALA25      -0.1231
     54  CA       -38.0490   12.9150  -25.3820 C.3    25  ALA25       0.1694
     55  C        -37.7830   12.9000  -23.8640 C.2    25  ALA25       0.2592
     56  O        -37.2790   11.9150  -23.3310 O.2    25  ALA25      -0.2718
     57  CB       -37.0150   13.7600  -26.1040 C.3    25  ALA25       0.0304
     58  N        -38.1370   13.9940  -23.1950 N.am   26  HIS26      -0.1976
     59  CA       -38.0260   14.1140  -21.7280 C.3    26  HIS26       0.1656
     60  C        -38.8420   13.0160  -21.0220 C.2    26  HIS26       0.2291
     61  O        -38.3290   12.3000  -20.1470 O.2    26  HIS26      -0.2864
     62  CB       -38.4760   15.5220  -21.3010 C.3    26  HIS26       0.0771
     63  CG       -38.3800   15.7920  -19.8270 C.ar   26  HIS26       0.0820
     64  ND1      -37.6520   15.0040  -18.9580 N.ar   26  HIS26      -0.2267
     65  CD2      -38.8780   16.8080  -19.0810 C.ar   26  HIS26       0.1154
     66  CE1      -37.7460   15.4920  -17.7360 C.ar   26  HIS26       0.1986
     67  NE2      -38.4730   16.5920  -17.7820 N.ar   26  HIS26      -0.2212
     68  N        -39.8780   10.1500  -22.1870 N.3    28  LEU28      -0.1231
     69  CA       -39.2700    8.8330  -22.4450 C.3    28  LEU28       0.1693
     70  C        -38.0350    8.5840  -21.5910 C.2    28  LEU28       0.2591
     71  O        -37.8460    7.4710  -21.0780 O.2    28  LEU28      -0.2718
     72  CB       -38.9030    8.6830  -23.9230 C.3    28  LEU28       0.0284
     73  CG       -38.4890    7.2950  -24.4290 C.3    28  LEU28       0.0019
     74  CD1      -39.7140    6.3790  -24.4640 C.3    28  LEU28       0.0001
     75  CD2      -37.8700    7.4130  -25.8170 C.3    28  LEU28       0.0001
     76  N        -37.1990    9.6220  -21.4630 N.am   29  ALA29      -0.1980
     77  CA       -36.0160    9.6020  -20.6150 C.3    29  ALA29       0.1597
     78  C        -36.3770    9.2890  -19.1490 C.2    29  ALA29       0.2287
     79  O        -35.6930    8.4960  -18.5100 O.2    29  ALA29      -0.2864
     80  CB       -35.2670   10.9360  -20.7080 C.3    29  ALA29       0.0319
     81  N        -37.6270    5.4790  -19.1080 N.3    32  PHE32      -0.1227
     82  CA       -36.4800    4.5760  -19.2220 C.3    32  PHE32       0.1736
     83  C        -35.6170    4.5650  -17.9660 C.2    32  PHE32       0.2596
     84  O        -35.1780    3.5020  -17.5090 O.2    32  PHE32      -0.2718
     85  CB       -35.6250    4.9320  -20.4400 C.3    32  PHE32       0.0547
     86  CG       -35.9780    4.1490  -21.6800 C.ar   32  PHE32      -0.0202
     87  CD1      -37.2300    4.3010  -22.2980 C.ar   32  PHE32      -0.0042
     88  CD2      -35.0580    3.2590  -22.2380 C.ar   32  PHE32      -0.0042
     89  CE1      -37.5570    3.5740  -23.4480 C.ar   32  PHE32      -0.0003
     90  CE2      -35.3770    2.5320  -23.3900 C.ar   32  PHE32      -0.0003
     91  CZ       -36.6260    2.6920  -23.9950 C.ar   32  PHE32      -0.0000
     92  N        -35.3820    5.7490  -17.4030 N.am   33  THR33      -0.1953
     93  CA       -34.5620    5.8530  -16.2030 C.3    33  THR33       0.1897
     94  C        -35.2630    5.1710  -15.0230 C.2    33  THR33       0.2313
     95  O        -34.6230    4.4230  -14.2710 O.2    33  THR33      -0.2863
     96  CB       -34.2380    7.3310  -15.8950 C.3    33  THR33       0.1794
     97  OG1      -33.5660    7.9020  -17.0300 O.3    33  THR33      -0.2208
     98  CG2      -33.3510    7.4700  -14.6350 C.3    33  THR33       0.0378
     99  N        -33.4410    1.0860  -17.3700 N.3    37  LEU37      -0.1231
    100  CA       -32.9750    0.7120  -18.7160 C.3    37  LEU37       0.1693
    101  C        -31.8840    1.6840  -19.1650 C.2    37  LEU37       0.2592
    102  O        -32.1190    2.6350  -19.9340 O.2    37  LEU37      -0.2718
    103  CB       -34.1410    0.6500  -19.7220 C.3    37  LEU37       0.0284
    104  CG       -35.4350   -0.1060  -19.3630 C.3    37  LEU37       0.0019
    105  CD1      -36.4860    0.1430  -20.4350 C.3    37  LEU37       0.0001
    106  CD2      -35.2240   -1.6050  -19.1520 C.3    37  LEU37       0.0001
    107  N        -30.6860    1.4290  -18.6580 N.am   38  LEU38      -0.1966
    108  CA       -29.5700    2.3540  -18.7660 C.3    38  LEU38       0.1713
    109  C        -28.3110    1.5810  -19.1240 C.2    38  LEU38       0.2458
    110  O        -28.2080    0.3990  -18.7840 O.2    38  LEU38      -0.2730
    111  CB       -29.3700    3.1010  -17.4310 C.3    38  LEU38       0.0310
    112  CG       -30.5420    3.9340  -16.8880 C.3    38  LEU38       0.0022
    113  CD1      -30.4030    4.2270  -15.3990 C.3    38  LEU38       0.0001
    114  CD2      -30.7120    5.2110  -17.7040 C.3    38  LEU38       0.0001
    115  N        -27.3470    2.2380  -19.8130 N.am   39  PRO39      -0.2727
    116  CA       -26.0420    1.5980  -20.0000 C.3    39  PRO39       0.1402
    117  C        -25.3740    1.3240  -18.6500 C.2    39  PRO39       0.2269
    118  O        -25.5850    2.0750  -17.6930 O.2    39  PRO39      -0.2865
    119  CB       -25.2460    2.6350  -20.8080 C.3    39  PRO39       0.0296
    120  CG       -25.9460    3.9370  -20.5820 C.3    39  PRO39       0.0237
    121  CD       -27.3950    3.5730  -20.4460 C.3    39  PRO39       0.0939
    122  N        -35.5100   17.5710  -14.1100 N.3    68  PHE68      -0.1241
    123  CA       -35.4820   16.3220  -14.8490 C.3    68  PHE68       0.1605
    124  C        -36.5340   15.3800  -14.2720 C.2    68  PHE68       0.2264
    125  O        -37.4050   14.8920  -14.9890 O.2    68  PHE68      -0.2867
    126  CB       -34.1090   15.6450  -14.8500 C.3    68  PHE68       0.0534
    127  CG       -34.1450   14.2910  -15.5050 C.ar   68  PHE68      -0.0203
    128  CD1      -34.2290   14.1820  -16.8960 C.ar   68  PHE68      -0.0042
    129  CD2      -34.2240   13.1250  -14.7250 C.ar   68  PHE68      -0.0042
    130  CE1      -34.3200   12.9260  -17.5050 C.ar   68  PHE68      -0.0003
    131  CE2      -34.3160   11.8650  -15.3320 C.ar   68  PHE68      -0.0003
    132  CZ       -34.3650   11.7790  -16.7190 C.ar   68  PHE68      -0.0000
    133  N        -27.4630    5.6630  -12.5790 N.3    81  MET81      -0.1245
    134  CA       -26.7460    6.3890  -13.6290 C.3    81  MET81       0.1570
    135  C        -25.3990    6.9420  -13.1490 C.2    81  MET81       0.2261
    136  O        -24.5320    7.2830  -13.9640 O.2    81  MET81      -0.2867
    137  CB       -27.6350    7.5240  -14.1530 C.3    81  MET81       0.0387
    138  CG       -27.3920    7.8940  -15.5980 C.3    81  MET81       0.0595
    139  SD       -28.5040    9.1950  -16.1610 S.3    81  MET81      -0.1393
    140  CE       -30.0980    8.4140  -16.1660 C.3    81  MET81       0.0692
    141  N        -40.8760   23.4860  -24.3930 N.3   104  VAL104     -0.1245
    142  CA       -39.4430   23.1800  -24.2840 C.3   104  VAL104      0.1561
    143  C        -38.9120   23.2090  -25.6940 C.2   104  VAL104      0.2260
    144  O        -39.6330   22.8330  -26.6330 O.2   104  VAL104     -0.2867
    145  CB       -39.1430   21.7620  -23.7620 C.3   104  VAL104      0.0252
    146  CG1      -37.7370   21.7090  -23.1600 C.3   104  VAL104      0.0019
    147  CG2      -40.2090   21.2830  -22.7980 C.3   104  VAL104      0.0019
    148  N        -35.1400   22.8070  -28.1340 N.3   106  ARG106     -0.1245
    149  CA       -33.7090   22.5210  -28.2460 C.3   106  ARG106      0.1563
    150  C        -33.0400   23.5630  -29.1160 C.2   106  ARG106      0.2260
    151  O        -33.6470   24.0260  -30.0980 O.2   106  ARG106     -0.2867
    152  CB       -33.4590   21.1660  -28.9050 C.3   106  ARG106      0.0307
    153  CG       -34.0420   19.9690  -28.1970 C.3   106  ARG106      0.0489
    154  CD       -33.6180   18.7160  -28.9670 C.3   106  ARG106      0.2205
    155  NE       -34.3070   17.5310  -28.4690 N.pl3 106  ARG106     -0.0865
    156  CZ       -35.3230   16.9070  -29.0690 C.cat 106  ARG106      0.5346
    157  NH1      -35.8100   17.3240  -30.2450 N.pl3 106  ARG106      0.1354
    158  NH2      -35.8450   15.8420  -28.4850 N.pl3 106  ARG106      0.1354
    159  N        -30.8760   24.6140  -24.1940 N.3   113  VAL113     -0.1245
    160  CA       -32.3160   24.3560  -24.1830 C.3   113  VAL113      0.1561
    161  C        -32.9810   25.6350  -23.6940 C.2   113  VAL113      0.2260
    162  O        -32.3940   26.3630  -22.8860 O.2   113  VAL113     -0.2867
    163  CB       -32.6470   23.1300  -23.2740 C.3   113  VAL113      0.0252
    164  CG1      -34.1340   23.0280  -22.9470 C.3   113  VAL113      0.0019
    165  CG2      -32.1810   21.8270  -23.9370 C.3   113  VAL113      0.0019
    166  N        -41.7960   25.4840  -18.8700 N.3   117  TYR117     -0.1241
    167  CA       -42.7400   24.4940  -18.3280 C.3   117  TYR117      0.1605
    168  C        -43.8060   25.1370  -17.4420 C.2   117  TYR117      0.2264
    169  O        -45.0100   24.8020  -17.5560 O.2   117  TYR117     -0.2867
    170  CB       -42.0040   23.3980  -17.5660 C.3   117  TYR117      0.0534
    171  CG       -41.6740   22.1770  -18.3750 C.ar  117  TYR117     -0.0201
    172  CD1      -40.3520   21.8410  -18.6520 C.ar  117  TYR117     -0.0009
    173  CD2      -42.6970   21.3220  -18.8440 C.ar  117  TYR117     -0.0009
    174  CE1      -40.0420   20.6850  -19.3740 C.ar  117  TYR117      0.0417
    175  CE2      -42.4000   20.1780  -19.5740 C.ar  117  TYR117      0.0417
    176  CZ       -41.0740   19.8630  -19.8320 C.ar  117  TYR117      0.1957
    177  OH       -40.7740   18.7430  -20.5600 O.3   117  TYR117     -0.2866
    178  N        -28.0180   19.1190  -15.9850 N.3   326  TYR326     -0.1241
    179  CA       -29.2360   18.6100  -16.5920 C.3   326  TYR326      0.1605
    180  C        -29.0930   18.6350  -18.1130 C.2   326  TYR326      0.2264
    181  O        -29.1130   17.5810  -18.7570 O.2   326  TYR326     -0.2867
    182  CB       -30.4580   19.4020  -16.0670 C.3   326  TYR326      0.0534
    183  CG       -31.8280   18.9910  -16.5950 C.ar  326  TYR326     -0.0201
    184  CD1      -32.9650   19.7320  -16.2300 C.ar  326  TYR326     -0.0009
    185  CD2      -31.9990   17.9110  -17.4860 C.ar  326  TYR326     -0.0009
    186  CE1      -34.2100   19.3980  -16.7010 C.ar  326  TYR326      0.0417
    187  CE2      -33.2650   17.5830  -17.9820 C.ar  326  TYR326      0.0417
    188  CZ       -34.3620   18.3280  -17.5750 C.ar  326  TYR326      0.1957
    189  OH       -35.6270   18.0430  -18.0330 O.3   326  TYR326     -0.2866
    190  N        -27.0920   16.0560  -20.1090 N.3   329  LEU329     -0.1231
    191  CA       -27.7540   14.7410  -20.1740 C.3   329  LEU329      0.1693
    192  C        -28.7030   14.6680  -21.3600 C.2   329  LEU329      0.2592
    193  O        -28.7870   13.6410  -22.0580 O.2   329  LEU329     -0.2718
    194  CB       -28.4710   14.4630  -18.8380 C.3   329  LEU329      0.0284
    195  CG       -29.2020   13.1370  -18.6530 C.3   329  LEU329      0.0019
    196  CD1      -28.2020   11.9950  -18.7390 C.3   329  LEU329      0.0001
    197  CD2      -29.9400   13.1290  -17.3160 C.3   329  LEU329      0.0001
    198  N        -29.3670   15.7880  -21.6440 N.am  330  THR330     -0.1953
    199  CA       -30.3110   15.8420  -22.7440 C.3   330  THR330      0.1897
    200  C        -29.6080   15.7140  -24.0920 C.2   330  THR330      0.2313
    201  O        -30.1640   15.1070  -25.0040 O.2   330  THR330     -0.2863
    202  CB       -31.2760   17.0470  -22.6740 C.3   330  THR330      0.1794
    203  OG1      -30.6330   18.2030  -23.2180 O.3   330  THR330     -0.2208
    204  CG2      -31.7190   17.2990  -21.2160 C.3   330  THR330      0.0378
    205  N        -26.6300   12.0940  -23.2390 N.3   333  GLY333     -0.1210
    206  CA       -27.1860   10.8920  -22.6650 C.3   333  GLY333      0.1940
    207  C        -26.4660   10.4710  -21.4110 C.2   333  GLY333      0.2453
    208  O        -25.5430   11.1700  -20.9670 O.2   333  GLY333     -0.2732
    209  N        -26.8810    9.3260  -20.8280 N.am  334  PRO334     -0.2728
    210  CA       -26.3580    8.8260  -19.5470 C.3   334  PRO334      0.1401
    211  C        -24.8250    8.7050  -19.4300 C.2   334  PRO334      0.2269
    212  O        -24.3020    8.9290  -18.3280 O.2   334  PRO334     -0.2865
    213  CB       -27.0480    7.4590  -19.3970 C.3   334  PRO334      0.0296
    214  CG       -28.3490    7.6480  -20.1120 C.3   334  PRO334      0.0237
    215  CD       -27.9850    8.4700  -21.3230 C.3   334  PRO334      0.0939
@<TRIPOS>BOND
     1    32    31    2
     2    31    30    1
     3    38    39    1
     4    21    22    1
     5    22    23    1
     6    22    25    1
     7    24    23    2
     8    23    29   am
     9    29    30    1
    10    30    33    1
    11    39    40    1
    12    39    42    1
    13    40    41    2
    14    33    34    1
    15   157   156    1
    16    28    26    1
    17    16    15    2
    18   151   150    2
    19    15    14    1
    20    25    26    1
    21    26    27    1
    22    43    42    1
    23    43    45    1
    24    43    44    1
    25    13    14    1
    26    36    35    2
    27   150   149    1
    28   156   158    1
    29   156   155    2
    30    34    35    1
    31   154   155    1
    32   154   153    1
    33   152   149    1
    34   152   153    1
    35    14    17    1
    36    52    51    1
    37    52    46    1
    38    35    37   am
    39     4     3    2
    40   149   148    1
    41    51    50    1
    42    46    47    1
    43     3     2    1
    44     1     2    1
    45    17    18    1
    46     2     5    1
    47    47    50    1
    48    47    48    1
    49   144   143    2
    50    18    19    1
    51    57    54    1
    52    75    73    1
    53     5     6    1
    54    19    20    1
    55   143   142    1
    56    53    54    1
    57    48    49    2
    58    54    55    1
    59     6     7   ar
    60     6     8   ar
    61     7     9   ar
    62   201   200    2
    63     8    10   ar
    64     9    11   ar
    65    74    73    1
    66    73    72    1
    67   141   142    1
    68   142   145    1
    69    10    11   ar
    70   159   160    1
    71   160   161    1
    72   160   163    1
    73    11    12    1
    74   200   199    1
    75    91    89   ar
    76    91    90   ar
    77   165   163    1
    78    72    69    1
    79    55    56    2
    80    55    58   am
    81   145   146    1
    82   145   147    1
    83   161   162    2
    84    89    87   ar
    85    90    88   ar
    86   163   164    1
    87   205   206    1
    88   203   202    1
    89    58    59    1
    90   199   202    1
    91   199   198    1
    92   202   204    1
    93   206   207    1
    94    69    68    1
    95    69    70    1
    96    87    86   ar
    97    88    86   ar
    98   193   192    2
    99    59    62    1
   100    59    60    1
   101    86    85    1
   102   198   192   am
   103    70    76   am
   104    70    71    2
   105    76    77    1
   106   207   208    2
   107   207   209   am
   108   192   191    1
   109   215   209    1
   110   215   214    1
   111    62    63    1
   112    60    61    2
   113   209   210    1
   114   119   120    1
   115   119   116    1
   116    80    77    1
   117    77    78    1
   118   120   121    1
   119   177   176    1
   120   121   115    1
   121    85    82    1
   122   105   104    1
   123   191   190    1
   124   191   194    1
   125   214   213    1
   126   116   115    1
   127   116   117    1
   128   102   101    2
   129   176   175   ar
   130   176   174   ar
   131    63    65   ar
   132    63    64   ar
   133   115   109   am
   134   103   104    1
   135   103   100    1
   136   175   173   ar
   137   210   211    1
   138   210   213    1
   139   211   212    2
   140   174   172   ar
   141   104   106    1
   142    82    81    1
   143    82    83    1
   144   101   100    1
   145   101   107   am
   146    78    79    2
   147   109   110    2
   148   109   108    1
   149    65    67   ar
   150    64    66   ar
   151   166   167    1
   152   173   171   ar
   153   194   195    1
   154   108   107    1
   155   108   111    1
   156   181   180    2
   157   196   195    1
   158   100    99    1
   159   195   197    1
   160   172   171   ar
   161   117   118    2
   162   171   170    1
   163   167   170    1
   164   167   168    1
   165   180   179    1
   166   189   188    1
   167   187   188   ar
   168   187   185   ar
   169    83    84    2
   170    83    92   am
   171    67    66   ar
   172   114   112    1
   173   188   186   ar
   174   169   168    2
   175   130   128   ar
   176   130   132   ar
   177   185   183   ar
   178   111   112    1
   179    92    93    1
   180    97    96    1
   181   128   127   ar
   182   112   113    1
   183   132   131   ar
   184   186   184   ar
   185   183   184   ar
   186   183   182    1
   187   179   182    1
   188   179   178    1
   189    93    96    1
   190    93    94    1
   191   140   139    1
   192   139   138    1
   193    96    98    1
   194   138   137    1
   195   127   126    1
   196   127   129   ar
   197   131   129   ar
   198    94    95    2
   199   125   124    2
   200   126   123    1
   201   123   124    1
   202   123   122    1
   203   137   134    1
   204   136   135    2
   205   134   135    1
   206   134   133    1
