@<TRIPOS>MOLECULE
tmp/5zf8A02.pdb
 216 206 0 0 0
SMALL
GASTEIGER

@<TRIPOS>ATOM
      1  N         -5.5100   23.8790   -7.1840 N.3     8  TYR8       -0.1241
      2  CA        -5.3910   25.2610   -6.7270 C.3     8  TYR8        0.1605
      3  C         -4.1210   25.9140   -7.2680 C.2     8  TYR8        0.2264
      4  O         -4.1740   27.0130   -7.8180 O.2     8  TYR8       -0.2867
      5  CB        -5.4680   25.3210   -5.1950 C.3     8  TYR8        0.0534
      6  CG        -6.8840   25.4330   -4.6560 C.ar    8  TYR8       -0.0201
      7  CD1       -7.7160   24.3040   -4.5590 C.ar    8  TYR8       -0.0009
      8  CD2       -7.3920   26.6680   -4.2360 C.ar    8  TYR8       -0.0009
      9  CE1       -9.0090   24.4070   -4.0510 C.ar    8  TYR8        0.0417
     10  CE2       -8.6820   26.7800   -3.7330 C.ar    8  TYR8        0.0417
     11  CZ        -9.4830   25.6480   -3.6490 C.ar    8  TYR8        0.1957
     12  OH       -10.7590   25.7700   -3.1550 O.3     8  TYR8       -0.2866
     13  N         -6.5900   27.0120  -10.5150 N.3    12  LEU12      -0.1231
     14  CA        -7.5350   27.9660   -9.9340 C.3    12  LEU12       0.1693
     15  C         -6.9040   29.3060   -9.5340 C.2    12  LEU12       0.2591
     16  O         -7.3710   30.3650   -9.9660 O.2    12  LEU12      -0.2718
     17  CB        -8.3100   27.3470   -8.7640 C.3    12  LEU12       0.0284
     18  CG        -9.4200   28.1690   -8.0920 C.3    12  LEU12       0.0019
     19  CD1      -10.4660   28.6730   -9.0870 C.3    12  LEU12       0.0001
     20  CD2      -10.0810   27.3340   -7.0140 C.3    12  LEU12       0.0001
     21  N         -5.8540   29.2610   -8.7080 N.am   13  MET13      -0.1979
     22  CA        -5.2140   30.5030   -8.2710 C.3    13  MET13       0.1605
     23  C         -4.6080   31.3030   -9.4280 C.2    13  MET13       0.2287
     24  O         -4.9000   32.4920   -9.5340 O.2    13  MET13      -0.2864
     25  CB        -4.1880   30.2660   -7.1470 C.3    13  MET13       0.0413
     26  CG        -4.7870   29.6300   -5.8950 C.3    13  MET13       0.0598
     27  SD        -6.0720   30.5740   -5.0640 S.3    13  MET13      -0.1393
     28  CE        -5.1030   31.9300   -4.3680 C.3    13  MET13       0.0692
     29  N         -7.5110   32.9210  -11.3950 N.3    16  LEU16      -0.1231
     30  CA        -8.1200   34.0300  -10.6550 C.3    16  LEU16       0.1693
     31  C         -7.2030   35.2570  -10.5260 C.2    16  LEU16       0.2591
     32  O         -7.6780   36.3880  -10.5930 O.2    16  LEU16      -0.2718
     33  CB        -8.6210   33.5820   -9.2830 C.3    16  LEU16       0.0284
     34  CG        -9.7770   32.5710   -9.1880 C.3    16  LEU16       0.0019
     35  CD1      -10.0000   32.1750   -7.7330 C.3    16  LEU16       0.0001
     36  CD2      -11.0650   33.1170   -9.7950 C.3    16  LEU16       0.0001
     37  N         -5.8970   35.0280  -10.3640 N.am   17  GLN17      -0.1979
     38  CA        -4.9290   36.1330  -10.3340 C.3    17  GLN17       0.1601
     39  C         -4.8410   36.8660  -11.6720 C.2    17  GLN17       0.2287
     40  O         -4.5990   38.0700  -11.7050 O.2    17  GLN17      -0.2864
     41  CB        -3.5450   35.6430   -9.9180 C.3    17  GLN17       0.0394
     42  CG        -3.4790   35.2310   -8.4560 C.3    17  GLN17       0.0908
     43  CD        -2.0780   34.8720   -8.0320 C.2    17  GLN17       0.2608
     44  OE1       -1.3800   34.1220   -8.7250 O.2    17  GLN17      -0.2717
     45  NE2       -1.6510   35.4080   -6.8900 N.am   17  GLN17      -0.0878
     46  N         -8.0770   39.2340  -11.5240 N.3    20  LEU20      -0.1245
     47  CA        -8.2740   40.1700  -10.4300 C.3    20  LEU20       0.1561
     48  C         -6.9880   40.9040  -10.1170 C.2    20  LEU20       0.2260
     49  O         -5.9180   40.2780  -10.0340 O.2    20  LEU20      -0.2867
     50  CB        -8.7490   39.4250   -9.1670 C.3    20  LEU20       0.0270
     51  CG       -10.0790   38.6540   -9.2350 C.3    20  LEU20       0.0019
     52  CD1      -10.1560   37.6240   -8.1210 C.3    20  LEU20       0.0001
     53  CD2      -11.2800   39.5930   -9.1900 C.3    20  LEU20       0.0001
     54  N         -4.3190   42.7770   -7.6620 N.3    22  PRO22      -0.2116
     55  CA        -3.8390   42.2650   -6.3580 C.3    22  PRO22       0.1372
     56  C         -4.6900   42.6320   -5.1380 C.2    22  PRO22       0.2244
     57  O         -5.0640   41.7480   -4.3790 O.2    22  PRO22      -0.2868
     58  CB        -2.4450   42.8650   -6.2600 C.3    22  PRO22       0.0268
     59  CG        -1.9820   42.8510   -7.6820 C.3    22  PRO22       0.0207
     60  CD        -3.1810   43.3380   -8.4350 C.3    22  PRO22       0.0892
     61  N         -8.0240   40.9280   -5.2310 N.3    25  ALA25      -0.1231
     62  CA        -7.8200   39.5310   -4.9000 C.3    25  ALA25       0.1694
     63  C         -7.6820   39.3300   -3.3820 C.2    25  ALA25       0.2592
     64  O         -8.2860   38.4120   -2.8240 O.2    25  ALA25      -0.2718
     65  CB        -6.5980   38.9960   -5.6390 C.3    25  ALA25       0.0304
     66  N         -6.9020   40.1950   -2.7320 N.am   26  HIS26      -0.1976
     67  CA        -6.7340   40.1710   -1.2710 C.3    26  HIS26       0.1656
     68  C         -8.0930   40.3110   -0.5640 C.2    26  HIS26       0.2291
     69  O         -8.4470   39.5110    0.3170 O.2    26  HIS26      -0.2864
     70  CB        -5.7670   41.2900   -0.8490 C.3    26  HIS26       0.0771
     71  CG        -5.4140   41.2980    0.6110 C.ar   26  HIS26       0.0820
     72  ND1       -4.6110   42.2770    1.1640 N.ar   26  HIS26      -0.2267
     73  CD2       -5.7480   40.4640    1.6290 C.ar   26  HIS26       0.1154
     74  CE1       -4.4660   42.0430    2.4610 C.ar   26  HIS26       0.1986
     75  NE2       -5.1520   40.9550    2.7680 N.ar   26  HIS26      -0.2212
     76  N        -11.1010   39.7520   -1.7630 N.3    28  LEU28      -0.1231
     77  CA       -11.9360   38.5730   -2.0250 C.3    28  LEU28       0.1693
     78  C        -11.5080   37.3740   -1.1830 C.2    28  LEU28       0.2591
     79  O        -12.3530   36.6270   -0.6870 O.2    28  LEU28      -0.2718
     80  CB       -11.9190   38.2020   -3.5140 C.3    28  LEU28       0.0284
     81  CG       -12.9050   37.1310   -3.9930 C.3    28  LEU28       0.0019
     82  CD1      -14.3350   37.6570   -3.8870 C.3    28  LEU28       0.0001
     83  CD2      -12.5760   36.7410   -5.4300 C.3    28  LEU28       0.0001
     84  N        -10.1880   37.1990   -1.0250 N.am   29  ALA29      -0.1980
     85  CA        -9.6510   36.1450   -0.1790 C.3    29  ALA29       0.1597
     86  C        -10.1170   36.2930    1.2780 C.2    29  ALA29       0.2287
     87  O        -10.4870   35.3040    1.9150 O.2    29  ALA29      -0.2864
     88  CB        -8.1200   36.1190   -0.2560 C.3    29  ALA29       0.0319
     89  N        -13.9800   35.4310    1.2730 N.3    32  PHE32      -0.1227
     90  CA       -14.2010   33.9880    1.1660 C.3    32  PHE32       0.1736
     91  C        -13.8010   33.2430    2.4270 C.2    32  PHE32       0.2596
     92  O        -14.4870   32.3150    2.8700 O.2    32  PHE32      -0.2718
     93  CB       -13.4710   33.4150   -0.0540 C.3    32  PHE32       0.0547
     94  CG       -14.3390   33.3160   -1.2820 C.ar   32  PHE32      -0.0202
     95  CD1      -14.7440   34.4650   -1.9730 C.ar   32  PHE32      -0.0042
     96  CD2      -14.7730   32.0690   -1.7410 C.ar   32  PHE32      -0.0042
     97  CE1      -15.5550   34.3700   -3.1060 C.ar   32  PHE32      -0.0003
     98  CE2      -15.5860   31.9690   -2.8720 C.ar   32  PHE32      -0.0003
     99  CZ       -15.9730   33.1220   -3.5540 C.ar   32  PHE32      -0.0000
    100  N        -12.6940   33.6710    3.0280 N.am   33  THR33      -0.1953
    101  CA       -12.2040   32.9970    4.2190 C.3    33  THR33       0.1897
    102  C        -13.1590   33.2470    5.3890 C.2    33  THR33       0.2313
    103  O        -13.5010   32.3050    6.1130 O.2    33  THR33      -0.2863
    104  CB       -10.7560   33.4300    4.5320 C.3    33  THR33       0.1794
    105  OG1       -9.9360   33.0760    3.4110 O.3    33  THR33      -0.2208
    106  CG2      -10.2160   32.7430    5.7930 C.3    33  THR33       0.0378
    107  N        -15.8490   29.6380    2.9690 N.3    37  LEU37      -0.1231
    108  CA       -15.9420   29.0430    1.6300 C.3    37  LEU37       0.1693
    109  C        -14.5490   28.5890    1.2030 C.2    37  LEU37       0.2591
    110  O        -13.8320   29.2710    0.4490 O.2    37  LEU37      -0.2718
    111  CB       -16.5650   30.0240    0.6270 C.3    37  LEU37       0.0284
    112  CG       -17.8780   30.7350    1.0000 C.3    37  LEU37       0.0019
    113  CD1      -18.1600   31.8520    0.0050 C.3    37  LEU37       0.0001
    114  CD2      -19.0750   29.7900    1.1030 C.3    37  LEU37       0.0001
    115  N        -14.1780   27.4290    1.7270 N.am   38  LEU38      -0.1980
    116  CA       -12.8140   26.9300    1.6740 C.3    38  LEU38       0.1596
    117  C        -12.8470   25.4390    1.3770 C.2    38  LEU38       0.2287
    118  O        -13.8260   24.7730    1.7380 O.2    38  LEU38      -0.2864
    119  CB       -12.1070   27.1790    3.0210 C.3    38  LEU38       0.0297
    120  CG       -11.9740   28.6210    3.5320 C.3    38  LEU38       0.0022
    121  CD1      -11.7540   28.6720    5.0390 C.3    38  LEU38       0.0001
    122  CD2      -10.8740   29.3680    2.7820 C.3    38  LEU38       0.0001
    123  N         -2.5520   39.5910    6.3040 N.3    68  PHE68      -0.1241
    124  CA        -3.6240   38.9660    5.5560 C.3    68  PHE68       0.1605
    125  C         -4.9570   39.4350    6.1360 C.2    68  PHE68       0.2264
    126  O         -5.7760   40.0180    5.4210 O.2    68  PHE68      -0.2867
    127  CB        -3.5520   37.4360    5.5670 C.3    68  PHE68       0.0534
    128  CG        -4.7480   36.8050    4.9150 C.ar   68  PHE68      -0.0203
    129  CD1       -4.9010   36.8800    3.5260 C.ar   68  PHE68      -0.0042
    130  CD2       -5.7650   36.2280    5.6890 C.ar   68  PHE68      -0.0042
    131  CE1       -6.0390   36.3470    2.9040 C.ar   68  PHE68      -0.0003
    132  CE2       -6.9050   35.6840    5.0700 C.ar   68  PHE68      -0.0003
    133  CZ        -7.0270   35.7510    3.6800 C.ar   68  PHE68      -0.0000
    134  N         -8.8730   26.6510    7.7600 N.3    81  MET81      -0.1245
    135  CA        -7.8320   26.3590    6.7570 C.3    81  MET81       0.1570
    136  C         -6.7320   25.4380    7.2730 C.2    81  MET81       0.2261
    137  O         -5.9880   24.8360    6.4760 O.2    81  MET81      -0.2867
    138  CB        -7.1570   27.6520    6.2970 C.3    81  MET81       0.0387
    139  CG        -7.7120   28.2640    5.0440 C.3    81  MET81       0.0595
    140  SD        -6.5130   29.4080    4.3290 S.3    81  MET81      -0.1393
    141  CE        -7.5920   30.7230    3.8020 C.3    81  MET81       0.0692
    142  N         -0.1080   47.1300   -3.8940 N.3   104  VAL104     -0.1245
    143  CA         0.3280   45.7290   -3.8020 C.3   104  VAL104      0.1561
    144  C          0.5960   45.2630   -5.2080 C.2   104  VAL104      0.2260
    145  O         -0.1090   45.6750   -6.1360 O.2   104  VAL104     -0.2867
    146  CB        -0.7530   44.8050   -3.2220 C.3   104  VAL104      0.0252
    147  CG1       -0.1040   43.5960   -2.5600 C.3   104  VAL104      0.0019
    148  CG2       -1.6150   45.5570   -2.2370 C.3   104  VAL104      0.0019
    149  N          2.1420   41.8370   -7.6730 N.3   106  ARG106     -0.1245
    150  CA         2.6140   40.4580   -7.8000 C.3   106  ARG106      0.1563
    151  C          3.8700   40.3930   -8.6490 C.2   106  ARG106      0.2260
    152  O          3.9960   41.1230   -9.6320 O.2   106  ARG106     -0.2867
    153  CB         1.5560   39.5930   -8.4790 C.3   106  ARG106      0.0307
    154  CG         0.2270   39.5240   -7.7770 C.3   106  ARG106      0.0489
    155  CD        -0.6330   38.4910   -8.4980 C.3   106  ARG106      0.2205
    156  NE        -2.0030   38.4870   -7.9990 N.pl3 106  ARG106     -0.0865
    157  CZ        -3.0490   39.0700   -8.5810 C.cat 106  ARG106      0.5346
    158  NH1       -2.9350   39.7360   -9.7390 N.pl3 106  ARG106      0.1354
    159  NH2       -4.2400   38.9640   -8.0000 N.pl3 106  ARG106      0.1354
    160  N          5.7970   38.9580   -3.7170 N.3   113  VAL113     -0.1245
    161  CA         4.8860   40.1070   -3.6980 C.3   113  VAL113      0.1561
    162  C          5.6760   41.3080   -3.1880 C.2   113  VAL113      0.2260
    163  O          6.6000   41.1540   -2.3950 O.2   113  VAL113     -0.2867
    164  CB         3.6520   39.7920   -2.8040 C.3   113  VAL113      0.0252
    165  CG1        2.8240   41.0340   -2.4910 C.3   113  VAL113      0.0019
    166  CG2        2.7630   38.7390   -3.4670 C.3   113  VAL113      0.0019
    167  N          1.1860   48.8560    1.5760 N.3   117  TYR117     -0.1241
    168  CA        -0.1470   49.1800    2.1190 C.3   117  TYR117      0.1605
    169  C         -0.1210   50.4310    3.0060 C.2   117  TYR117      0.2264
    170  O         -1.0010   51.3110    2.8770 O.2   117  TYR117     -0.2867
    171  CB        -0.7170   47.9910    2.8810 C.3   117  TYR117      0.0534
    172  CG        -1.6360   47.1230    2.0810 C.ar  117  TYR117     -0.0201
    173  CD1       -1.2960   45.8000    1.7910 C.ar  117  TYR117     -0.0009
    174  CD2       -2.8790   47.6090    1.6360 C.ar  117  TYR117     -0.0009
    175  CE1       -2.1650   44.9770    1.0760 C.ar  117  TYR117      0.0417
    176  CE2       -3.7470   46.7970    0.9100 C.ar  117  TYR117      0.0417
    177  CZ        -3.3920   45.4870    0.6520 C.ar  117  TYR117      0.1957
    178  OH        -4.2420   44.6780   -0.0570 O.3   117  TYR117     -0.2866
    179  N          2.5330   33.7350    4.4840 N.3   326  TYR326     -0.1241
    180  CA         1.4850   34.5500    3.8750 C.3   326  TYR326      0.1605
    181  C          1.5830   34.4620    2.3530 C.2   326  TYR326      0.2264
    182  O          0.6610   33.9700    1.7000 O.2   326  TYR326     -0.2867
    183  CB         1.5870   35.9900    4.4070 C.3   326  TYR326      0.0534
    184  CG         0.5610   36.9930    3.8900 C.ar  326  TYR326     -0.0201
    185  CD1        0.6580   38.3290    4.2850 C.ar  326  TYR326     -0.0009
    186  CD2       -0.4630   36.6320    2.9820 C.ar  326  TYR326     -0.0009
    187  CE1       -0.2330   39.2790    3.8220 C.ar  326  TYR326      0.0417
    188  CE2       -1.3610   37.5890    2.5140 C.ar  326  TYR326      0.0417
    189  CZ        -1.2410   38.8960    2.9460 C.ar  326  TYR326      0.1957
    190  OH        -2.1100   39.8600    2.5110 O.3   326  TYR326     -0.2866
    191  N          0.3860   31.3920    0.4460 N.3   329  LEU329     -0.1231
    192  CA        -1.0820   31.2800    0.3860 C.3   329  LEU329      0.1693
    193  C         -1.6530   32.0320   -0.8040 C.2   329  LEU329      0.2592
    194  O         -2.6030   31.5550   -1.4500 O.2   329  LEU329     -0.2718
    195  CB        -1.6960   31.8070    1.6910 C.3   329  LEU329      0.0284
    196  CG        -3.1900   31.5670    1.8980 C.3   329  LEU329      0.0019
    197  CD1       -3.4910   30.0920    2.1140 C.3   329  LEU329      0.0001
    198  CD2       -3.6500   32.3760    3.1030 C.3   329  LEU329      0.0001
    199  N         -1.0580   33.1870   -1.1190 N.am  330  THR330     -0.1953
    200  CA        -1.5540   34.0210   -2.2040 C.3   330  THR330      0.1897
    201  C         -1.3150   33.3790   -3.5680 C.2   330  THR330      0.2313
    202  O         -2.1100   33.6000   -4.4880 O.2   330  THR330     -0.2863
    203  CB        -0.9990   35.4600   -2.1820 C.3   330  THR330      0.1794
    204  OG1        0.3530   35.4700   -2.6760 O.3   330  THR330     -0.2208
    205  CG2       -1.0730   36.0640   -0.7750 C.3   330  THR330      0.0378
    206  N         -2.9150   29.0080   -2.7290 N.3   333  GLY333     -0.1210
    207  CA        -4.2480   28.8470   -2.1680 C.3   333  GLY333      0.1940
    208  C         -4.2630   28.0500   -0.8850 C.2   333  GLY333      0.2453
    209  O         -3.2150   27.5850   -0.4200 O.2   333  GLY333     -0.2732
    210  N         -5.4660   27.8640   -0.2950 N.am  334  PRO334     -0.2728
    211  CA        -5.6140   27.1740    0.9940 C.3   334  PRO334      0.1401
    212  C         -4.9540   25.7840    1.1300 C.2   334  PRO334      0.2269
    213  O         -4.4840   25.4790    2.2290 O.2   334  PRO334     -0.2865
    214  CB        -7.1410   27.0940    1.1840 C.3   334  PRO334      0.0296
    215  CG        -7.6600   28.2580    0.4190 C.3   334  PRO334      0.0237
    216  CD        -6.7720   28.3400   -0.8070 C.3   334  PRO334      0.0939
@<TRIPOS>BOND
     1    40    39    2
     2    39    38    1
     3    46    47    1
     4    29    30    1
     5    30    31    1
     6    30    33    1
     7    32    31    2
     8    31    37   am
     9    13    14    1
    10    47    48    1
    11    47    50    1
    12    37    38    1
    13    38    41    1
    14    48    49    2
    15    16    15    2
    16    14    15    1
    17    14    17    1
    18    41    42    1
    19    36    34    1
    20   158   157    1
    21   152   151    2
    22    24    23    2
    23    15    21   am
    24    23    22    1
    25    33    34    1
    26    51    53    1
    27    51    50    1
    28    51    52    1
    29    34    35    1
    30    19    18    1
    31    17    18    1
    32    44    43    2
    33    21    22    1
    34   151   150    1
    35   157   159    1
    36   157   156    2
    37   155   156    1
    38   155   154    1
    39   153   150    1
    40   153   154    1
    41    42    43    1
    42    60    59    1
    43    60    54    1
    44    22    25    1
    45    18    20    1
    46    43    45   am
    47     4     3    2
    48   150   149    1
    49    59    58    1
    50    54    55    1
    51     3     2    1
    52     1     2    1
    53    25    26    1
    54     2     5    1
    55    55    58    1
    56    55    56    1
    57   145   144    2
    58    26    27    1
    59    65    62    1
    60    83    81    1
    61    61    62    1
    62   144   143    1
    63     5     6    1
    64    56    57    2
    65    27    28    1
    66    62    63    1
    67     6     7   ar
    68     6     8   ar
    69     7     9   ar
    70   202   201    2
    71     8    10   ar
    72     9    11   ar
    73    81    82    1
    74    81    80    1
    75   142   143    1
    76   143   146    1
    77    10    11   ar
    78   160   161    1
    79   161   162    1
    80   161   164    1
    81    11    12    1
    82   201   200    1
    83    99    97   ar
    84    99    98   ar
    85    80    77    1
    86   166   164    1
    87    63    64    2
    88    63    66   am
    89   146   147    1
    90   146   148    1
    91   162   163    2
    92    97    95   ar
    93    98    96   ar
    94   164   165    1
    95    66    67    1
    96   206   207    1
    97   204   203    1
    98   200   203    1
    99   200   199    1
   100   203   205    1
   101   207   208    1
   102    77    76    1
   103    77    78    1
   104    95    94   ar
   105    96    94   ar
   106   194   193    2
   107    94    93    1
   108    67    70    1
   109    67    68    1
   110    78    84   am
   111    78    79    2
   112   199   193   am
   113    84    85    1
   114   208   209    2
   115   208   210   am
   116    70    71    1
   117   216   210    1
   118   216   215    1
   119   193   192    1
   120    68    69    2
   121   210   211    1
   122    88    85    1
   123    85    86    1
   124   178   177    1
   125    93    90    1
   126   113   112    1
   127   192   191    1
   128   192   195    1
   129   215   214    1
   130   110   109    2
   131    71    72   ar
   132    71    73   ar
   133   111   112    1
   134   111   108    1
   135   177   176   ar
   136   177   175   ar
   137   176   174   ar
   138   211   212    1
   139   211   214    1
   140   112   114    1
   141   175   173   ar
   142   212   213    2
   143    72    74   ar
   144    90    89    1
   145    90    91    1
   146   109   108    1
   147   109   115   am
   148    86    87    2
   149   117   116    1
   150   117   118    2
   151   167   168    1
   152    73    75   ar
   153   108   107    1
   154   174   172   ar
   155   116   115    1
   156   116   119    1
   157   195   196    1
   158   182   181    2
   159   173   172   ar
   160   196   197    1
   161   196   198    1
   162   172   171    1
   163   168   171    1
   164   168   169    1
   165   181   180    1
   166    91    92    2
   167    91   100   am
   168    74    75   ar
   169   190   189    1
   170   188   189   ar
   171   188   186   ar
   172   122   120    1
   173   170   169    2
   174   131   129   ar
   175   131   133   ar
   176   189   187   ar
   177   186   184   ar
   178   119   120    1
   179   100   101    1
   180   105   104    1
   181   129   128   ar
   182   120   121    1
   183   133   132   ar
   184   141   140    1
   185   187   185   ar
   186   180   183    1
   187   180   179    1
   188   184   185   ar
   189   184   183    1
   190   101   104    1
   191   101   102    1
   192   140   139    1
   193   104   106    1
   194   128   127    1
   195   128   130   ar
   196   139   138    1
   197   132   130   ar
   198   102   103    2
   199   126   125    2
   200   124   127    1
   201   124   125    1
   202   124   123    1
   203   138   135    1
   204   137   136    2
   205   135   136    1
   206   135   134    1
