@<TRIPOS>MOLECULE
tmp/5zfaA02.pdb
 196 187 0 0 0
SMALL
GASTEIGER

@<TRIPOS>ATOM
      1  N         -5.4210   23.8140   -7.3580 N.3     8  TYR8       -0.1241
      2  CA        -5.2810   25.1940   -6.9030 C.3     8  TYR8        0.1605
      3  C         -4.0130   25.8520   -7.4390 C.2     8  TYR8        0.2264
      4  O         -4.0740   26.9520   -7.9860 O.2     8  TYR8       -0.2867
      5  CB        -5.3440   25.2530   -5.3700 C.3     8  TYR8        0.0534
      6  CG        -6.7530   25.4060   -4.8350 C.ar    8  TYR8       -0.0201
      7  CD1       -7.6100   24.2960   -4.7410 C.ar    8  TYR8       -0.0009
      8  CD2       -7.2330   26.6600   -4.4210 C.ar    8  TYR8       -0.0009
      9  CE1       -8.9010   24.4270   -4.2410 C.ar    8  TYR8        0.0417
     10  CE2       -8.5230   26.8020   -3.9220 C.ar    8  TYR8        0.0417
     11  CZ        -9.3490   25.6820   -3.8380 C.ar    8  TYR8        0.1957
     12  OH       -10.6330   25.8080   -3.3560 O.3     8  TYR8       -0.2866
     13  N         -6.4310   26.9780  -10.7690 N.3    12  LEU12      -0.1231
     14  CA        -7.3910   27.9210  -10.1900 C.3    12  LEU12       0.1693
     15  C         -6.7750   29.2470   -9.7410 C.2    12  LEU12       0.2591
     16  O         -7.2390   30.3150  -10.1460 O.2    12  LEU12      -0.2718
     17  CB        -8.1670   27.2700   -9.0450 C.3    12  LEU12       0.0284
     18  CG        -9.3270   28.0520   -8.4140 C.3    12  LEU12       0.0019
     19  CD1      -10.4230   28.3950   -9.4230 C.3    12  LEU12       0.0001
     20  CD2       -9.9020   27.2540   -7.2610 C.3    12  LEU12       0.0001
     21  N         -5.7370   29.1810   -8.9030 N.am   13  MET13      -0.1979
     22  CA        -5.0950   30.4180   -8.4370 C.3    13  MET13       0.1605
     23  C         -4.4820   31.2370   -9.5750 C.2    13  MET13       0.2287
     24  O         -4.7770   32.4280   -9.6620 O.2    13  MET13      -0.2864
     25  CB        -4.0790   30.1710   -7.3040 C.3    13  MET13       0.0413
     26  CG        -4.6920   29.5500   -6.0550 C.3    13  MET13       0.0598
     27  SD        -6.0290   30.4770   -5.2810 S.3    13  MET13      -0.1393
     28  CE        -5.1440   31.9350   -4.7050 C.3    13  MET13       0.0692
     29  N         -7.3910   32.9040  -11.5230 N.3    16  LEU16      -0.1231
     30  CA        -8.0440   33.9920  -10.7770 C.3    16  LEU16       0.1693
     31  C         -7.1390   35.2180  -10.6110 C.2    16  LEU16       0.2591
     32  O         -7.6160   36.3490  -10.6720 O.2    16  LEU16      -0.2718
     33  CB        -8.5640   33.5090   -9.4240 C.3    16  LEU16       0.0284
     34  CG        -9.7000   32.4720   -9.4030 C.3    16  LEU16       0.0019
     35  CD1       -9.7920   31.8310   -8.0270 C.3    16  LEU16       0.0001
     36  CD2      -11.0350   33.0970   -9.7960 C.3    16  LEU16       0.0001
     37  N         -5.8380   34.9850  -10.4180 N.am   17  GLN17      -0.1979
     38  CA        -4.8620   36.0820  -10.3660 C.3    17  GLN17       0.1601
     39  C         -4.7700   36.8380  -11.6860 C.2    17  GLN17       0.2287
     40  O         -4.5660   38.0450  -11.6860 O.2    17  GLN17      -0.2864
     41  CB        -3.4770   35.5800   -9.9550 C.3    17  GLN17       0.0394
     42  CG        -3.4100   35.1560   -8.4960 C.3    17  GLN17       0.0908
     43  CD        -2.0110   34.8250   -8.0580 C.2    17  GLN17       0.2608
     44  OE1       -1.2830   34.0990   -8.7520 O.2    17  GLN17      -0.2717
     45  NE2       -1.6130   35.3590   -6.9020 N.am   17  GLN17      -0.0878
     46  N         -8.0180   39.2000  -11.5490 N.3    20  LEU20      -0.1245
     47  CA        -8.2550   40.1280  -10.4440 C.3    20  LEU20       0.1561
     48  C         -6.9760   40.8560  -10.0940 C.2    20  LEU20       0.2260
     49  O         -5.9160   40.2140   -9.9730 O.2    20  LEU20      -0.2867
     50  CB        -8.7650   39.3620   -9.2110 C.3    20  LEU20       0.0270
     51  CG       -10.1170   38.6410   -9.3460 C.3    20  LEU20       0.0019
     52  CD1      -10.2620   37.5330   -8.3120 C.3    20  LEU20       0.0001
     53  CD2      -11.2590   39.6440   -9.2420 C.3    20  LEU20       0.0001
     54  N         -4.3020   42.7350   -7.5880 N.3    22  PRO22      -0.2116
     55  CA        -3.8470   42.2090   -6.2970 C.3    22  PRO22       0.1372
     56  C         -4.7180   42.6070   -5.0970 C.2    22  PRO22       0.2244
     57  O         -5.1150   41.7330   -4.3250 O.2    22  PRO22      -0.2868
     58  CB        -2.4330   42.7860   -6.1860 C.3    22  PRO22       0.0268
     59  CG        -1.9630   42.7700   -7.6050 C.3    22  PRO22       0.0207
     60  CD        -3.1590   43.2740   -8.3640 C.3    22  PRO22       0.0892
     61  N         -8.1180   40.9360   -5.1970 N.3    25  ALA25      -0.1231
     62  CA        -7.8990   39.5330   -4.8660 C.3    25  ALA25       0.1694
     63  C         -7.7730   39.3370   -3.3420 C.2    25  ALA25       0.2592
     64  O         -8.4010   38.4400   -2.7780 O.2    25  ALA25      -0.2718
     65  CB        -6.6530   39.0270   -5.5860 C.3    25  ALA25       0.0304
     66  N         -6.9820   40.1920   -2.6930 N.am   26  HIS26      -0.1976
     67  CA        -6.8120   40.1660   -1.2270 C.3    26  HIS26       0.1656
     68  C         -8.1690   40.3260   -0.5210 C.2    26  HIS26       0.2291
     69  O         -8.5420   39.5140    0.3460 O.2    26  HIS26      -0.2864
     70  CB        -5.8260   41.2670   -0.8040 C.3    26  HIS26       0.0771
     71  CG        -5.4770   41.2730    0.6600 C.ar   26  HIS26       0.0820
     72  ND1       -4.6670   42.2450    1.2170 N.ar   26  HIS26      -0.2267
     73  CD2       -5.8080   40.4300    1.6740 C.ar   26  HIS26       0.1154
     74  CE1       -4.5240   42.0030    2.5130 C.ar   26  HIS26       0.1986
     75  NE2       -5.2080   40.9100    2.8130 N.ar   26  HIS26      -0.2212
     76  N        -11.2200   39.8300   -1.7080 N.3    28  LEU28      -0.1231
     77  CA       -12.0660   38.6430   -1.9370 C.3    28  LEU28       0.1693
     78  C        -11.6270   37.4500   -1.0970 C.2    28  LEU28       0.2591
     79  O        -12.4640   36.7000   -0.6050 O.2    28  LEU28      -0.2718
     80  CB       -12.0710   38.2150   -3.4130 C.3    28  LEU28       0.0284
     81  CG       -13.1860   38.4990   -4.4410 C.3    28  LEU28       0.0019
     82  CD1      -14.5530   38.8560   -3.8450 C.3    28  LEU28       0.0001
     83  CD2      -12.7280   39.5330   -5.4600 C.3    28  LEU28       0.0001
     84  N        -10.3070   37.2690   -0.9570 N.am   29  ALA29      -0.1980
     85  CA        -9.7600   36.1800   -0.1530 C.3    29  ALA29       0.1597
     86  C        -10.1900   36.3290    1.3100 C.2    29  ALA29       0.2287
     87  O        -10.5380   35.3430    1.9560 O.2    29  ALA29      -0.2864
     88  CB        -8.2300   36.1290   -0.2620 C.3    29  ALA29       0.0319
     89  N        -14.0560   35.4820    1.3370 N.3    32  PHE32      -0.1227
     90  CA       -14.2610   34.0360    1.1750 C.3    32  PHE32       0.1736
     91  C        -13.8530   33.2680    2.4170 C.2    32  PHE32       0.2596
     92  O        -14.5390   32.3280    2.8280 O.2    32  PHE32      -0.2718
     93  CB       -13.4910   33.5060   -0.0420 C.3    32  PHE32       0.0547
     94  CG       -14.2830   33.5260   -1.3290 C.ar   32  PHE32      -0.0202
     95  CD1      -14.7090   34.7350   -1.9010 C.ar   32  PHE32      -0.0042
     96  CD2      -14.5930   32.3300   -1.9820 C.ar   32  PHE32      -0.0042
     97  CE1      -15.4380   34.7510   -3.0930 C.ar   32  PHE32      -0.0003
     98  CE2      -15.3210   32.3400   -3.1800 C.ar   32  PHE32      -0.0003
     99  CZ       -15.7410   33.5530   -3.7330 C.ar   32  PHE32      -0.0000
    100  N        -12.7380   33.6760    3.0240 N.am   33  THR33      -0.1953
    101  CA       -12.2400   32.9930    4.2130 C.3    33  THR33       0.1897
    102  C        -13.2060   33.2030    5.3820 C.2    33  THR33       0.2313
    103  O        -13.5430   32.2390    6.0830 O.2    33  THR33      -0.2863
    104  CB       -10.8000   33.4500    4.5540 C.3    33  THR33       0.1794
    105  OG1       -9.9560   33.1670    3.4280 O.3    33  THR33      -0.2208
    106  CG2      -10.2490   32.7110    5.7940 C.3    33  THR33       0.0378
    107  N         -2.5800   39.5520    6.3230 N.3    68  PHE68      -0.1241
    108  CA        -3.6580   38.9170    5.5790 C.3    68  PHE68       0.1605
    109  C         -4.9850   39.4120    6.1650 C.2    68  PHE68       0.2264
    110  O         -5.8080   39.9920    5.4540 O.2    68  PHE68      -0.2867
    111  CB        -3.5980   37.3810    5.6090 C.3    68  PHE68       0.0534
    112  CG        -4.8040   36.7520    4.9620 C.ar   68  PHE68      -0.0203
    113  CD1       -4.9730   36.8160    3.5730 C.ar   68  PHE68      -0.0042
    114  CD2       -5.8220   36.1860    5.7460 C.ar   68  PHE68      -0.0042
    115  CE1       -6.1190   36.2830    2.9630 C.ar   68  PHE68      -0.0003
    116  CE2       -6.9710   35.6400    5.1360 C.ar   68  PHE68      -0.0003
    117  CZ        -7.1060   35.6970    3.7460 C.ar   68  PHE68      -0.0000
    118  N         -9.0020   26.5990    7.8320 N.3    81  MET81      -0.1245
    119  CA        -7.9940   26.3270    6.7890 C.3    81  MET81       0.1570
    120  C         -6.8390   25.4410    7.2720 C.2    81  MET81       0.2261
    121  O         -6.0970   24.8660    6.4530 O.2    81  MET81      -0.2867
    122  CB        -7.4320   27.6670    6.2800 C.3    81  MET81       0.0387
    123  CG        -6.9770   27.6680    4.8370 C.3    81  MET81       0.0595
    124  SD        -6.6050   29.3360    4.2550 S.3    81  MET81      -0.1393
    125  CE        -8.2350   30.0620    4.1700 C.3    81  MET81       0.0692
    126  N         -0.0960   47.0800   -3.9260 N.3   104  VAL104     -0.1245
    127  CA         0.3220   45.6720   -3.7890 C.3   104  VAL104      0.1561
    128  C          0.5390   45.1490   -5.1870 C.2   104  VAL104      0.2260
    129  O         -0.2660   45.4290   -6.0930 O.2   104  VAL104     -0.2867
    130  CB        -0.7640   44.7440   -3.1890 C.3   104  VAL104      0.0252
    131  CG1       -0.1250   43.4570   -2.6460 C.3   104  VAL104      0.0019
    132  CG2       -1.6000   45.4430   -2.1610 C.3   104  VAL104      0.0019
    133  N          2.1240   41.7630   -7.6630 N.3   106  ARG106     -0.1245
    134  CA         2.5950   40.3850   -7.7850 C.3   106  ARG106      0.1563
    135  C          3.8460   40.3410   -8.6420 C.2   106  ARG106      0.2260
    136  O          3.9550   41.0910   -9.6150 O.2   106  ARG106     -0.2867
    137  CB         1.5380   39.5020   -8.4590 C.3   106  ARG106      0.0307
    138  CG         0.2070   39.4330   -7.7470 C.3   106  ARG106      0.0489
    139  CD        -0.6650   38.4130   -8.4790 C.3   106  ARG106      0.2205
    140  NE        -2.0320   38.3900   -7.9700 N.pl3 106  ARG106     -0.0865
    141  CZ        -3.0840   38.9890   -8.5320 C.cat 106  ARG106      0.5346
    142  NH1       -2.9760   39.6870   -9.6750 N.pl3 106  ARG106      0.1354
    143  NH2       -4.2680   38.8710   -7.9490 N.pl3 106  ARG106      0.1354
    144  N          5.8030   38.9430   -3.7060 N.3   113  VAL113     -0.1245
    145  CA         4.8800   40.0750   -3.6960 C.3   113  VAL113      0.1561
    146  C          5.6640   41.2880   -3.2130 C.2   113  VAL113      0.2260
    147  O          6.5890   41.1430   -2.4080 O.2   113  VAL113     -0.2867
    148  CB         3.6490   39.7620   -2.7890 C.3   113  VAL113      0.0252
    149  CG1        2.8340   41.0110   -2.4670 C.3   113  VAL113      0.0019
    150  CG2        2.7470   38.7260   -3.4730 C.3   113  VAL113      0.0019
    151  N          1.1900   48.8610    1.5960 N.3   117  TYR117     -0.1241
    152  CA        -0.1420   49.1870    2.1340 C.3   117  TYR117      0.1605
    153  C         -0.1120   50.4410    3.0240 C.2   117  TYR117      0.2264
    154  O         -0.9900   51.3320    2.9040 O.2   117  TYR117     -0.2867
    155  CB        -0.7140   47.9940    2.8810 C.3   117  TYR117      0.0534
    156  CG        -1.6470   47.1250    2.0850 C.ar  117  TYR117     -0.0201
    157  CD1       -1.3130   45.8080    1.7880 C.ar  117  TYR117     -0.0009
    158  CD2       -2.8940   47.6110    1.6520 C.ar  117  TYR117     -0.0009
    159  CE1       -2.1910   44.9800    1.0840 C.ar  117  TYR117      0.0417
    160  CE2       -3.7730   46.7990    0.9360 C.ar  117  TYR117      0.0417
    161  CZ        -3.4270   45.4890    0.6750 C.ar  117  TYR117      0.1957
    162  OH        -4.2790   44.6830   -0.0370 O.3   117  TYR117     -0.2866
    163  N          2.4670   33.7160    4.4560 N.3   326  TYR326     -0.1241
    164  CA         1.4240   34.5250    3.8590 C.3   326  TYR326      0.1605
    165  C          1.5300   34.4330    2.3400 C.2   326  TYR326      0.2264
    166  O          0.6130   33.9440    1.6910 O.2   326  TYR326     -0.2867
    167  CB         1.5250   35.9690    4.3940 C.3   326  TYR326      0.0534
    168  CG         0.5010   36.9740    3.8880 C.ar  326  TYR326     -0.0201
    169  CD1        0.6000   38.3110    4.2840 C.ar  326  TYR326     -0.0009
    170  CD2       -0.5270   36.6140    2.9900 C.ar  326  TYR326     -0.0009
    171  CE1       -0.2910   39.2580    3.8260 C.ar  326  TYR326      0.0417
    172  CE2       -1.4140   37.5740    2.5120 C.ar  326  TYR326      0.0417
    173  CZ        -1.3010   38.8760    2.9470 C.ar  326  TYR326      0.1957
    174  OH        -2.1780   39.8280    2.4870 O.3   326  TYR326     -0.2866
    175  N          0.3630   31.3730    0.3860 N.3   329  LEU329     -0.1231
    176  CA        -1.1010   31.2460    0.3310 C.3   329  LEU329      0.1693
    177  C         -1.6770   32.0050   -0.8590 C.2   329  LEU329      0.2592
    178  O         -2.6190   31.5300   -1.5160 O.2   329  LEU329     -0.2718
    179  CB        -1.7140   31.7510    1.6510 C.3   329  LEU329      0.0284
    180  CG        -3.2230   31.6130    1.8530 C.3   329  LEU329      0.0019
    181  CD1       -3.6080   30.1480    1.9410 C.3   329  LEU329      0.0001
    182  CD2       -3.6410   32.3400    3.1290 C.3   329  LEU329      0.0001
    183  N         -1.1050   33.1760   -1.1480 N.am  330  THR330     -0.1953
    184  CA        -1.5870   34.0090   -2.2410 C.3   330  THR330      0.1897
    185  C         -1.3440   33.3520   -3.5920 C.2   330  THR330      0.2313
    186  O         -2.1570   33.5220   -4.5070 O.2   330  THR330     -0.2863
    187  CB        -1.0400   35.4540   -2.1990 C.3   330  THR330      0.1794
    188  OG1        0.3050   35.4740   -2.7030 O.3   330  THR330     -0.2208
    189  CG2       -1.1010   36.0180   -0.7580 C.3   330  THR330      0.0378
    190  N         -5.4610   27.8510   -0.3810 N.3   334  PRO334     -0.2116
    191  CA        -5.6350   27.1210    0.8860 C.3   334  PRO334      0.1372
    192  C         -4.9360   25.7500    1.0200 C.2   334  PRO334      0.2244
    193  O         -4.4980   25.4250    2.1280 O.2   334  PRO334     -0.2868
    194  CB        -7.1670   26.9960    1.0150 C.3   334  PRO334      0.0268
    195  CG        -7.6820   28.2010    0.2910 C.3   334  PRO334      0.0207
    196  CD        -6.7490   28.3700   -0.8910 C.3   334  PRO334      0.0892
@<TRIPOS>BOND
     1    40    39    2
     2    39    38    1
     3    46    47    1
     4    29    30    1
     5    30    31    1
     6    30    33    1
     7    13    14    1
     8    32    31    2
     9    31    37   am
    10    47    48    1
    11    47    50    1
    12    37    38    1
    13    38    41    1
    14    14    15    1
    15    14    17    1
    16    16    15    2
    17    48    49    2
    18    41    42    1
    19    36    34    1
    20    15    21   am
    21   142   141    1
    22    24    23    2
    23   136   135    2
    24    23    22    1
    25    33    34    1
    26    19    18    1
    27    34    35    1
    28    51    53    1
    29    51    50    1
    30    51    52    1
    31    17    18    1
    32    21    22    1
    33    44    43    2
    34   135   134    1
    35   141   140    2
    36   141   143    1
    37    42    43    1
    38   139   140    1
    39   139   138    1
    40   137   134    1
    41   137   138    1
    42    22    25    1
    43    18    20    1
    44    60    59    1
    45    60    54    1
    46    43    45   am
    47     4     3    2
    48   134   133    1
    49    59    58    1
    50    54    55    1
    51     3     2    1
    52     1     2    1
    53    25    26    1
    54     2     5    1
    55    55    58    1
    56    55    56    1
    57   129   128    2
    58    26    27    1
    59    65    62    1
    60    83    81    1
    61     5     6    1
    62    27    28    1
    63    61    62    1
    64   128   127    1
    65    56    57    2
    66    62    63    1
    67     6     7   ar
    68     6     8   ar
    69     7     9   ar
    70   186   185    2
    71    81    82    1
    72    81    80    1
    73     8    10   ar
    74     9    11   ar
    75   126   127    1
    76    10    11   ar
    77    11    12    1
    78   127   130    1
    79    99    98   ar
    80    99    97   ar
    81   144   145    1
    82   145   146    1
    83   145   148    1
    84   185   184    1
    85   150   148    1
    86    80    77    1
    87    63    64    2
    88    63    66   am
    89   146   147    2
    90   130   131    1
    91   130   132    1
    92    98    96   ar
    93    97    95   ar
    94   148   149    1
    95   188   187    1
    96    66    67    1
    97   184   187    1
    98   184   183    1
    99   187   189    1
   100    96    94   ar
   101    77    76    1
   102    77    78    1
   103    95    94   ar
   104   178   177    2
   105    94    93    1
   106    67    70    1
   107    67    68    1
   108   183   177   am
   109    78    84   am
   110    78    79    2
   111    84    85    1
   112   196   190    1
   113   196   195    1
   114   177   176    1
   115    70    71    1
   116    68    69    2
   117   190   191    1
   118    88    85    1
   119    85    86    1
   120    93    90    1
   121   162   161    1
   122   195   194    1
   123   176   175    1
   124   176   179    1
   125    71    72   ar
   126    71    73   ar
   127   161   160   ar
   128   161   159   ar
   129   191   194    1
   130   191   192    1
   131   160   158   ar
   132   192   193    2
   133   159   157   ar
   134    90    89    1
   135    90    91    1
   136    72    74   ar
   137    86    87    2
   138   151   152    1
   139   179   180    1
   140   158   156   ar
   141    73    75   ar
   142   166   165    2
   143   157   156   ar
   144   180   181    1
   145   180   182    1
   146   156   155    1
   147   152   155    1
   148   152   153    1
   149   165   164    1
   150    91    92    2
   151    91   100   am
   152   174   173    1
   153   172   173   ar
   154   172   170   ar
   155    74    75   ar
   156   154   153    2
   157   173   171   ar
   158   115   113   ar
   159   115   117   ar
   160   170   168   ar
   161   100   101    1
   162   105   104    1
   163   113   112   ar
   164   117   116   ar
   165   171   169   ar
   166   164   167    1
   167   164   163    1
   168   168   169   ar
   169   168   167    1
   170   125   124    1
   171   101   104    1
   172   101   102    1
   173   124   123    1
   174   104   106    1
   175   123   122    1
   176   112   111    1
   177   112   114   ar
   178   116   114   ar
   179   102   103    2
   180   110   109    2
   181   108   111    1
   182   108   109    1
   183   108   107    1
   184   122   119    1
   185   121   120    2
   186   119   120    1
   187   119   118    1
