@<TRIPOS>MOLECULE
tmp/5zfbA02.pdb
 208 198 0 0 0
SMALL
GASTEIGER

@<TRIPOS>ATOM
      1  N         18.0110  -16.6030   27.9850 N.3     9  TYR9       -0.1241
      2  CA        19.2780  -17.1920   27.5390 C.3     9  TYR9        0.1605
      3  C         20.4880  -16.4420   28.1000 C.2     9  TYR9        0.2264
      4  O         21.3960  -17.0640   28.6510 O.2     9  TYR9       -0.2867
      5  CB        19.3360  -17.2490   26.0070 C.3     9  TYR9        0.0534
      6  CG        18.6670  -18.4650   25.4020 C.ar    9  TYR9       -0.0201
      7  CD1       17.2620  -18.6010   25.4010 C.ar    9  TYR9       -0.0009
      8  CD2       19.4330  -19.4800   24.8120 C.ar    9  TYR9       -0.0009
      9  CE1       16.6460  -19.7190   24.8350 C.ar    9  TYR9        0.0417
     10  CE2       18.8290  -20.5980   24.2420 C.ar    9  TYR9        0.0417
     11  CZ        17.4420  -20.7140   24.2560 C.ar    9  TYR9        0.1957
     12  OH        16.8550  -21.8220   23.6950 O.3     9  TYR9       -0.2866
     13  N         20.1190  -19.2020   31.1440 N.3    13  LEU13      -0.1231
     14  CA        20.5220  -20.4610   30.4720 C.3    13  LEU13       0.1693
     15  C         22.0330  -20.5420   30.1630 C.2    13  LEU13       0.2591
     16  O         22.7050  -21.4880   30.6020 O.2    13  LEU13      -0.2718
     17  CB        19.6740  -20.7270   29.2120 C.3    13  LEU13       0.0284
     18  CG        19.6650  -22.1170   28.5490 C.3    13  LEU13       0.0019
     19  CD1       18.3250  -22.3680   27.8710 C.3    13  LEU13       0.0001
     20  CD2       20.7990  -22.3120   27.5450 C.3    13  LEU13       0.0001
     21  N         22.5530  -19.5590   29.4190 N.am   14  MET14      -0.1979
     22  CA        23.9770  -19.5620   29.0100 C.3    14  MET14       0.1605
     23  C         24.9760  -19.5120   30.1800 C.2    14  MET14       0.2287
     24  O         25.8770  -20.3540   30.1940 O.2    14  MET14      -0.2864
     25  CB        24.3130  -18.5060   27.9350 C.3    14  MET14       0.0413
     26  CG        23.5270  -18.6220   26.6320 C.3    14  MET14       0.0598
     27  SD        23.4770  -20.2510   25.8530 S.3    14  MET14      -0.1393
     28  CE        25.1740  -20.4100   25.2990 C.3    14  MET14       0.0692
     29  N         24.8830  -23.0280   31.9670 N.3    17  LEU17      -0.1231
     30  CA        25.4810  -24.1140   31.2000 C.3    17  LEU17       0.1693
     31  C         27.0100  -23.9570   31.0100 C.2    17  LEU17       0.2591
     32  O         27.7350  -24.9540   30.9930 O.2    17  LEU17      -0.2718
     33  CB        24.6980  -24.3460   29.8990 C.3    17  LEU17       0.0284
     34  CG        23.4640  -25.2770   29.9720 C.3    17  LEU17       0.0019
     35  CD1       22.3140  -24.7600   30.8390 C.3    17  LEU17       0.0001
     36  CD2       22.9510  -25.6020   28.5750 C.3    17  LEU17       0.0001
     37  N         27.4770  -22.7060   30.9040 N.am   18  GLN18      -0.1979
     38  CA        28.9110  -22.3540   30.9570 C.3    18  GLN18       0.1601
     39  C         29.5790  -22.7310   32.2950 C.2    18  GLN18       0.2287
     40  O         30.7370  -23.1460   32.3260 O.2    18  GLN18      -0.2864
     41  CB        29.1240  -20.8550   30.6890 C.3    18  GLN18       0.0394
     42  CG        28.8570  -20.4310   29.2490 C.3    18  GLN18       0.0908
     43  CD        29.3010  -19.0070   28.9380 C.2    18  GLN18       0.2608
     44  OE1       29.0980  -18.0750   29.7300 O.2    18  GLN18      -0.2717
     45  NE2       29.9000  -18.8310   27.7570 N.am   18  GLN18      -0.0878
     46  N         30.0590  -26.7690   32.0280 N.3    21  LEU21      -0.1245
     47  CA        30.8510  -27.4320   30.9860 C.3    21  LEU21       0.1561
     48  C         32.0550  -26.6120   30.5730 C.2    21  LEU21       0.2260
     49  O         31.9540  -25.3890   30.4020 O.2    21  LEU21      -0.2867
     50  CB        29.9940  -27.7030   29.7390 C.3    21  LEU21       0.0270
     51  CG        28.7470  -28.5880   29.8290 C.3    21  LEU21       0.0019
     52  CD1       27.7650  -28.1680   28.7510 C.3    21  LEU21       0.0001
     53  CD2       29.0980  -30.0740   29.7230 C.3    21  LEU21       0.0001
     54  N         34.7560  -25.1600   27.8650 N.3    23  PRO23      -0.2116
     55  CA        34.3850  -24.4860   26.6080 C.3    23  PRO23       0.1372
     56  C         34.3640  -25.4070   25.3740 C.2    23  PRO23       0.2244
     57  O         33.4720  -25.2710   24.5590 O.2    23  PRO23      -0.2868
     58  CB        35.4500  -23.3830   26.4830 C.3    23  PRO23       0.0268
     59  CG        35.8560  -23.1190   27.8900 C.3    23  PRO23       0.0207
     60  CD        35.9010  -24.4780   28.5080 C.3    23  PRO23       0.0892
     61  N         31.2480  -27.6250   25.6440 N.3    26  ALA26      -0.1231
     62  CA        30.1280  -26.7360   25.3840 C.3    26  ALA26       0.1694
     63  C         29.9830  -26.4850   23.8710 C.2    26  ALA26       0.2592
     64  O         28.8720  -26.5080   23.3490 O.2    26  ALA26      -0.2718
     65  CB        30.3070  -25.4230   26.1320 C.3    26  ALA26       0.0304
     66  N         31.1080  -26.2670   23.1810 N.am   27  HIS27      -0.1976
     67  CA        31.0820  -26.0740   21.7260 C.3    27  HIS27       0.1656
     68  C         30.5440  -27.3320   20.9860 C.2    27  HIS27       0.2291
     69  O         29.6280  -27.2540   20.1180 O.2    27  HIS27      -0.2864
     70  CB        32.4790  -25.6950   21.2160 C.3    27  HIS27       0.0771
     71  CG        32.5910  -25.7220   19.7250 C.ar   27  HIS27       0.0820
     72  ND1       31.8160  -24.9260   18.9100 N.ar   27  HIS27      -0.2267
     73  CD2       33.3400  -26.4880   18.9000 C.ar   27  HIS27       0.1154
     74  CE1       32.1280  -25.1550   17.6490 C.ar   27  HIS27       0.1986
     75  NE2       33.0260  -26.1180   17.6120 N.ar   27  HIS27      -0.2212
     76  N         28.6080  -29.6970   22.0740 N.3    29  LEU29      -0.1231
     77  CA        27.1670  -29.8450   22.3580 C.3    29  LEU29       0.1693
     78  C         26.3460  -28.8650   21.5400 C.2    29  LEU29       0.2591
     79  O         25.3080  -29.2320   20.9780 O.2    29  LEU29      -0.2718
     80  CB        26.8620  -29.6310   23.8430 C.3    29  LEU29       0.0284
     81  CG        25.4660  -30.0650   24.3120 C.3    29  LEU29       0.0019
     82  CD1       25.3480  -31.5820   24.1900 C.3    29  LEU29       0.0001
     83  CD2       25.1850  -29.6140   25.7390 C.3    29  LEU29       0.0001
     84  N         26.8220  -27.6200   21.4800 N.am   30  ALA30      -0.1980
     85  CA        26.2060  -26.5690   20.6400 C.3    30  ALA30       0.1597
     86  C         26.1340  -27.0050   19.1730 C.2    30  ALA30       0.2287
     87  O         25.1030  -26.8240   18.5440 O.2    30  ALA30      -0.2864
     88  CB        26.9690  -25.2600   20.7600 C.3    30  ALA30       0.0319
     89  N         23.4700  -30.0170   18.9850 N.3    33  PHE33      -0.1227
     90  CA        22.1070  -29.5030   19.0930 C.3    33  PHE33       0.1736
     91  C         21.6670  -28.7090   17.8680 C.2    33  PHE33       0.2596
     92  O         20.5030  -28.8230   17.4140 O.2    33  PHE33      -0.2718
     93  CB        21.9610  -28.6140   20.3330 C.3    33  PHE33       0.0547
     94  CG        21.4970  -29.3430   21.5730 C.ar   33  PHE33      -0.0202
     95  CD1       22.2070  -30.4430   22.0830 C.ar   33  PHE33      -0.0042
     96  CD2       20.3610  -28.9060   22.2590 C.ar   33  PHE33      -0.0042
     97  CE1       21.7780  -31.1010   23.2430 C.ar   33  PHE33      -0.0003
     98  CE2       19.9300  -29.5580   23.4240 C.ar   33  PHE33      -0.0003
     99  CZ        20.6430  -30.6530   23.9140 C.ar   33  PHE33      -0.0000
    100  N         22.5830  -27.8760   17.3570 N.am   34  THR34      -0.1953
    101  CA        22.3000  -27.0840   16.1760 C.3    34  THR34       0.1897
    102  C         22.0360  -28.0130   14.9800 C.2    34  THR34       0.2313
    103  O         21.0740  -27.8040   14.2480 O.2    34  THR34      -0.2863
    104  CB        23.4340  -26.0800   15.8830 C.3    34  THR34       0.1794
    105  OG1       23.5930  -25.2060   17.0130 O.3    34  THR34      -0.2208
    106  CG2       23.0860  -25.2200   14.6730 C.3    34  THR34       0.0378
    107  N         16.5430  -26.3340   18.4140 N.3    39  LEU39      -0.1245
    108  CA        16.5620  -24.9090   18.7010 C.3    39  LEU39       0.1561
    109  C         15.1700  -24.4420   18.3100 C.2    39  LEU39       0.2260
    110  O         14.5080  -25.1110   17.5010 O.2    39  LEU39      -0.2867
    111  CB        17.5610  -24.1620   17.8020 C.3    39  LEU39       0.0270
    112  CG        18.8350  -24.7990   17.2380 C.3    39  LEU39       0.0019
    113  CD1       19.0410  -24.4380   15.7640 C.3    39  LEU39       0.0001
    114  CD2       20.0370  -24.4470   18.1080 C.3    39  LEU39       0.0001
    115  N         32.9160  -21.9290   14.1200 N.3    69  PHE69      -0.1241
    116  CA        31.8210  -22.5530   14.8660 C.3    69  PHE69       0.1605
    117  C         31.5370  -23.9330   14.2720 C.2    69  PHE69       0.2264
    118  O         31.4800  -24.9420   14.9840 O.2    69  PHE69      -0.2867
    119  CB        30.5400  -21.7120   14.8820 C.3    69  PHE69       0.0534
    120  CG        29.3810  -22.4320   15.5300 C.ar   69  PHE69      -0.0203
    121  CD1       29.3120  -22.5550   16.9230 C.ar   69  PHE69      -0.0042
    122  CD2       28.4030  -23.0830   14.7460 C.ar   69  PHE69      -0.0042
    123  CE1       28.2610  -23.2580   17.5310 C.ar   69  PHE69      -0.0003
    124  CE2       27.3590  -23.8010   15.3460 C.ar   69  PHE69      -0.0003
    125  CZ        27.2850  -23.8850   16.7380 C.ar   69  PHE69      -0.0000
    126  N         18.5530  -21.0090   12.6610 N.3    82  MET82      -0.1245
    127  CA        18.8300  -20.0040   13.6970 C.3    82  MET82       0.1570
    128  C         18.6500  -18.5520   13.2210 C.2    82  MET82       0.2261
    129  O         18.5510  -17.6350   14.0530 O.2    82  MET82      -0.2867
    130  CB        20.2530  -20.2110   14.2230 C.3    82  MET82       0.0387
    131  CG        20.4790  -19.8120   15.6660 C.3    82  MET82       0.0595
    132  SD        22.1440  -20.2510   16.2230 S.3    82  MET82      -0.1393
    133  CE        22.1280  -22.0150   16.0750 C.3    82  MET82       0.0692
    134  N         40.9070  -23.6470   24.4490 N.3   105  VAL105     -0.1245
    135  CA        39.8940  -22.5970   24.3500 C.3   105  VAL105      0.1561
    136  C         39.4760  -22.1600   25.7630 C.2   105  VAL105      0.2260
    137  O         39.3580  -22.9880   26.6860 O.2   105  VAL105     -0.2867
    138  CB        38.6850  -23.0120   23.4500 C.3   105  VAL105      0.0252
    139  CG1       38.0600  -24.2970   23.9440 C.3   105  VAL105      0.0019
    140  CG2       37.6260  -21.8900   23.3390 C.3   105  VAL105      0.0019
    141  N         37.2880  -19.0840   28.1970 N.3   107  ARG107     -0.1245
    142  CA        36.2970  -18.0190   28.2690 C.3   107  ARG107      0.1563
    143  C         36.8590  -16.9190   29.1540 C.2   107  ARG107      0.2260
    144  O         37.5320  -17.2200   30.1600 O.2   107  ARG107     -0.2867
    145  CB        35.0150  -18.5330   28.9340 C.3   107  ARG107      0.0307
    146  CG        34.1940  -19.5010   28.1250 C.3   107  ARG107      0.0489
    147  CD        32.9500  -19.8160   28.9450 C.3   107  ARG107      0.2205
    148  NE        32.2660  -20.9880   28.4320 N.pl3 107  ARG107     -0.0865
    149  CZ        32.2320  -22.1910   29.0070 C.cat 107  ARG107      0.5346
    150  NH1       32.8510  -22.4420   30.1620 N.pl3 107  ARG107      0.1354
    151  NH2       31.5620  -23.1470   28.4040 N.pl3 107  ARG107      0.1354
    152  N         36.7880  -14.5210   24.2750 N.3   114  VAL114     -0.1245
    153  CA        37.2300  -15.8990   24.2550 C.3   114  VAL114      0.1561
    154  C         38.6640  -15.8330   23.7620 C.2   114  VAL114      0.2260
    155  O         38.9910  -14.9610   22.9390 O.2   114  VAL114     -0.2867
    156  CB        36.3240  -16.7930   23.3220 C.3   114  VAL114      0.0252
    157  CG1       36.9940  -18.1160   22.9240 C.3   114  VAL114      0.0019
    158  CG2       34.9670  -17.0980   23.9950 C.3   114  VAL114      0.0019
    159  N         43.0110  -23.4720   18.8920 N.3   118  TYR118     -0.1241
    160  CA        42.6510  -24.7890   18.3600 C.3   118  TYR118      0.1605
    161  C         43.7130  -25.3570   17.4310 C.2   118  TYR118      0.2264
    162  O         44.0180  -26.5770   17.5020 O.2   118  TYR118     -0.2867
    163  CB        41.3310  -24.7250   17.6200 C.3   118  TYR118      0.0534
    164  CG        40.1340  -25.0080   18.4520 C.ar  118  TYR118     -0.0201
    165  CD1       39.2800  -23.9690   18.8630 C.ar  118  TYR118     -0.0009
    166  CD2       39.8090  -26.3270   18.8250 C.ar  118  TYR118     -0.0009
    167  CE1       38.1490  -24.2400   19.6230 C.ar  118  TYR118      0.0417
    168  CE2       38.6720  -26.6120   19.5790 C.ar  118  TYR118      0.0417
    169  CZ        37.8470  -25.5700   19.9630 C.ar  118  TYR118      0.1957
    170  OH        36.7130  -25.8400   20.7030 O.3   118  TYR118     -0.2866
    171  N         30.5770  -14.7500   16.0480 N.3   327  TYR327     -0.1241
    172  CA        30.7270  -16.0660   16.6580 C.3   327  TYR327      0.1605
    173  C         30.6670  -15.9480   18.1840 C.2   327  TYR327      0.2264
    174  O         29.7240  -16.4950   18.8220 O.2   327  TYR327     -0.2867
    175  CB        32.0150  -16.7550   16.1490 C.3   327  TYR327      0.0534
    176  CG        32.3190  -18.1400   16.6900 C.ar  327  TYR327     -0.0201
    177  CD1       33.5060  -18.7870   16.3210 C.ar  327  TYR327     -0.0009
    178  CD2       31.4570  -18.8050   17.5890 C.ar  327  TYR327     -0.0009
    179  CE1       33.8110  -20.0460   16.7950 C.ar  327  TYR327      0.0417
    180  CE2       31.7870  -20.0650   18.1060 C.ar  327  TYR327      0.0417
    181  CZ        32.9770  -20.6640   17.7040 C.ar  327  TYR327      0.1957
    182  OH        33.3100  -21.9290   18.1450 O.3   327  TYR327     -0.2866
    183  N         27.5330  -15.4960   20.4900 N.3   330  LEU330     -0.1231
    184  CA        26.7090  -16.7070   20.6160 C.3   330  LEU330      0.1693
    185  C         27.0300  -17.4540   21.8930 C.2   330  LEU330      0.2592
    186  O         26.1470  -17.9780   22.5730 O.2   330  LEU330     -0.2718
    187  CB        26.9580  -17.5940   19.3920 C.3   330  LEU330      0.0284
    188  CG        25.8870  -18.3590   18.6370 C.3   330  LEU330      0.0019
    189  CD1       24.6320  -17.5430   18.3500 C.3   330  LEU330      0.0001
    190  CD2       26.5350  -18.9390   17.3860 C.3   330  LEU330      0.0001
    191  N         28.2960  -17.4190   22.2850 N.am  331  THR331     -0.1953
    192  CA        28.7430  -18.1490   23.4400 C.3   331  THR331      0.1897
    193  C         28.3100  -17.4600   24.7440 C.2   331  THR331      0.2313
    194  O         28.1550  -18.1150   25.7850 O.2   331  THR331     -0.2863
    195  CB        30.2590  -18.4740   23.3360 C.3   331  THR331      0.1794
    196  OG1       31.0160  -17.3310   23.7120 O.3   331  THR331     -0.2208
    197  CG2       30.6320  -18.8560   21.8840 C.3   331  THR331      0.0378
    198  N         23.7700  -16.8170   23.4930 N.3   334  GLY334     -0.1210
    199  CA        23.0260  -17.8970   22.8500 C.3   334  GLY334      0.1940
    200  C         22.3470  -17.5010   21.5440 C.2   334  GLY334      0.2453
    201  O         22.4500  -16.3340   21.1120 O.2   334  GLY334     -0.2732
    202  N         21.6140  -18.4560   20.9250 N.am  335  PRO335     -0.2728
    203  CA        20.8490  -18.2360   19.6750 C.3   335  PRO335      0.1401
    204  C         19.9870  -16.9610   19.5910 C.2   335  PRO335      0.2269
    205  O         19.9340  -16.3860   18.5050 O.2   335  PRO335     -0.2865
    206  CB        19.9630  -19.4940   19.5630 C.3   335  PRO335      0.0296
    207  CG        20.7190  -20.5460   20.3250 C.3   335  PRO335      0.0237
    208  CD        21.4050  -19.8270   21.4560 C.3   335  PRO335      0.0939
@<TRIPOS>BOND
     1   126   127    1
     2   128   127    1
     3   128   129    2
     4   127   130    1
     5   115   116    1
     6   130   131    1
     7   103   102    2
     8   117   116    1
     9   117   118    2
    10   106   104    1
    11   122   124   ar
    12   122   120   ar
    13   116   119    1
    14   119   120    1
    15   102   101    1
    16   124   125   ar
    17   120   121   ar
    18   131   132    1
    19   113   112    1
    20   104   101    1
    21   104   105    1
    22   171   172    1
    23   133   132    1
    24   175   172    1
    25   175   176    1
    26   101   100    1
    27   177   176   ar
    28   177   179   ar
    29   172   173    1
    30   176   178   ar
    31   125   123   ar
    32   179   181   ar
    33   121   123   ar
    34   112   111    1
    35   112   114    1
    36   100    91   am
    37   190   188    1
    38    92    91    2
    39   161   162    2
    40   161   160    1
    41   110   109    2
    42   178   180   ar
    43    75    74   ar
    44    75    73   ar
    45   163   160    1
    46   163   164    1
    47    74    72   ar
    48   181   180   ar
    49   181   182    1
    50   111   108    1
    51    91    90    1
    52   173   174    2
    53   109   108    1
    54   189   188    1
    55   160   159    1
    56   107   108    1
    57   164   166   ar
    58   164   165   ar
    59   205   204    2
    60    87    86    2
    61   188   187    1
    62   166   168   ar
    63   165   167   ar
    64    73    71   ar
    65    72    71   ar
    66    89    90    1
    67    90    93    1
    68    86    85    1
    69   187   184    1
    70   206   203    1
    71   206   207    1
    72   168   169   ar
    73   204   203    1
    74   167   169   ar
    75   203   202    1
    76    71    70    1
    77   169   170    1
    78    69    68    2
    79   207   208    1
    80    93    94    1
    81   183   184    1
    82   184   185    1
    83    85    88    1
    84    85    84    1
    85   202   208    1
    86   202   200   am
    87    79    78    2
    88    68    67    1
    89   201   200    2
    90    70    67    1
    91    84    78   am
    92    78    77    1
    93   200   199    1
    94    94    95   ar
    95    94    96   ar
    96    67    66    1
    97   197   195    1
    98   185   191   am
    99   185   186    2
   100    76    77    1
   101    95    97   ar
   102    96    98   ar
   103   191   192    1
   104    77    80    1
   105   199   198    1
   106   157   156    1
   107   155   154    2
   108    66    63   am
   109    97    99   ar
   110   156   158    1
   111   156   153    1
   112   195   192    1
   113   195   196    1
   114   140   138    1
   115    64    63    2
   116    98    99   ar
   117   192   193    1
   118   138   139    1
   119   138   135    1
   120    12    11    1
   121   154   153    1
   122    80    81    1
   123    63    62    1
   124    82    81    1
   125    10    11   ar
   126    10     8   ar
   127   153   152    1
   128    11     9   ar
   129    81    83    1
   130   135   134    1
   131   135   136    1
   132    57    56    2
   133   193   194    2
   134     8     6   ar
   135     9     7   ar
   136    28    27    1
   137    56    55    1
   138    62    61    1
   139    62    65    1
   140     7     6   ar
   141     6     5    1
   142   136   137    2
   143    27    26    1
   144     5     2    1
   145    58    55    1
   146    58    59    1
   147    55    54    1
   148    26    25    1
   149     2     1    1
   150     2     3    1
   151    20    18    1
   152    45    43   am
   153    54    60    1
   154    19    18    1
   155    59    60    1
   156    25    22    1
   157     3     4    2
   158   146   145    1
   159   146   147    1
   160   141   142    1
   161   142   145    1
   162   142   143    1
   163   151   149    1
   164   148   147    1
   165   148   149    2
   166    18    17    1
   167    36    34    1
   168    52    51    1
   169    43    42    1
   170    43    44    2
   171   149   150    1
   172    22    21    1
   173    22    23    1
   174   143   144    2
   175    17    14    1
   176    42    41    1
   177    21    15   am
   178    53    51    1
   179    50    51    1
   180    50    47    1
   181    33    34    1
   182    33    30    1
   183    34    35    1
   184    15    14    1
   185    15    16    2
   186    23    24    2
   187    49    48    2
   188    14    13    1
   189    48    47    1
   190    41    38    1
   191    37    38    1
   192    37    31   am
   193    38    39    1
   194    47    46    1
   195    32    31    2
   196    31    30    1
   197    30    29    1
   198    39    40    2
