@<TRIPOS>MOLECULE
tmp/5zfiA00.pdb
 169 167 0 0 0
SMALL
GASTEIGER

@<TRIPOS>ATOM
      1  N         -3.5310   27.1940   41.8160 N.3    24  LEU24      -0.1231
      2  CA        -4.9130   26.9810   42.0470 C.3    24  LEU24       0.1693
      3  C         -5.3220   27.6270   43.3670 C.2    24  LEU24       0.2592
      4  O         -4.6050   27.5020   44.3860 O.2    24  LEU24      -0.2718
      5  CB        -5.2410   25.4820   42.0730 C.3    24  LEU24       0.0284
      6  CG        -6.6500   25.1070   42.6590 C.3    24  LEU24       0.0019
      7  CD1       -7.7990   25.3700   41.6780 C.3    24  LEU24       0.0001
      8  CD2       -6.6690   23.6390   43.1380 C.3    24  LEU24       0.0001
      9  N         -6.3660   28.4220   43.3210 N.am   25  HIS25      -0.1962
     10  CA        -6.9450   29.0390   44.5510 C.3    25  HIS25       0.1787
     11  C         -8.2820   28.4380   44.8540 C.2    25  HIS25       0.2620
     12  O         -8.5110   27.9700   45.9220 O.2    25  HIS25      -0.2715
     13  CB        -7.1170   30.5270   44.3600 C.3    25  HIS25       0.0785
     14  CG        -7.4410   31.2580   45.6380 C.ar   25  HIS25       0.0821
     15  ND1       -6.5680   31.3120   46.7010 N.ar   25  HIS25      -0.2267
     16  CD2       -8.5390   31.9590   46.0100 C.ar   25  HIS25       0.1154
     17  CE1       -7.0900   32.0680   47.6650 C.ar   25  HIS25       0.1986
     18  NE2       -8.3070   32.4360   47.2880 N.ar   25  HIS25      -0.2212
     19  N         -9.1490   28.3630   43.8540 N.am   26  CYS26      -0.1968
     20  CA       -10.4660   27.8640   44.0710 C.3    26  CYS26       0.1712
     21  C        -11.0070   27.3460   42.7870 C.2    26  CYS26       0.2296
     22  O        -10.4950   27.6800   41.7330 O.2    26  CYS26      -0.2864
     23  CB       -11.3870   28.9790   44.5830 C.3    26  CYS26       0.0983
     24  SG       -11.3360   29.2740   46.3830 S.3    26  CYS26      -0.0798
     25  N        -15.6060   32.8690   50.1030 N.3    41  HIS41      -0.1241
     26  CA       -14.3130   32.7920   50.8350 C.3    41  HIS41       0.1621
     27  C        -13.1560   32.7610   49.8650 C.2    41  HIS41       0.2264
     28  O        -12.0000   32.8710   50.2600 O.2    41  HIS41      -0.2867
     29  CB       -14.2660   31.6250   51.8110 C.3    41  HIS41       0.0745
     30  CG       -14.2150   30.2780   51.1710 C.ar   41  HIS41       0.0817
     31  ND1      -15.3050   29.4260   51.1760 N.ar   41  HIS41      -0.2268
     32  CD2      -13.1590   29.5330   50.7790 C.ar   41  HIS41       0.1154
     33  CE1      -14.9300   28.2430   50.7300 C.ar   41  HIS41       0.1986
     34  NE2      -13.6350   28.2890   50.4600 N.ar   41  HIS41      -0.2212
     35  N        -19.6850   31.5410   58.1060 N.3    80  HIS80      -0.1241
     36  CA       -19.6530   31.1400   56.6930 C.3    80  HIS80       0.1621
     37  C        -21.0140   30.9180   56.0950 C.2    80  HIS80       0.2264
     38  O        -21.1330   30.3350   55.0260 O.2    80  HIS80      -0.2867
     39  CB       -18.7930   29.9210   56.5010 C.3    80  HIS80       0.0745
     40  CG       -17.3840   30.1190   56.9410 C.ar   80  HIS80       0.0817
     41  ND1      -16.4990   30.9200   56.2390 N.ar   80  HIS80      -0.2268
     42  CD2      -16.7620   29.7970   58.1030 C.ar   80  HIS80       0.1154
     43  CE1      -15.3850   31.0540   56.9470 C.ar   80  HIS80       0.1986
     44  NE2      -15.5020   30.3420   58.0520 N.ar   80  HIS80      -0.2212
     45  N        -22.1510   31.9160   51.6210 N.3    83  ASP83      -0.1239
     46  CA       -20.8260   31.8060   51.0720 C.3    83  ASP83       0.1674
     47  C        -20.9300   31.7070   49.5720 C.2    83  ASP83       0.2266
     48  O        -20.7590   30.6270   48.9990 O.2    83  ASP83      -0.2867
     49  CB       -20.1650   30.5910   51.6380 C.3    83  ASP83       0.1410
     50  CG       -18.6760   30.5140   51.3300 C.2    83  ASP83       0.3668
     51  OD1      -18.1020   31.4710   50.8010 O.co2  83  ASP83      -0.2456
     52  OD2      -18.0770   29.5100   51.6920 O.co2  83  ASP83      -0.2456
     53  N         -1.2930   15.9590   51.2180 N.3   128  VAL128     -0.1245
     54  CA        -1.9890   16.4980   50.0160 C.3   128  VAL128      0.1561
     55  C         -1.3560   16.0220   48.7010 C.2   128  VAL128      0.2260
     56  O         -0.1890   15.6730   48.6500 O.2   128  VAL128     -0.2867
     57  CB        -2.0810   18.0450   50.0190 C.3   128  VAL128      0.0252
     58  CG1       -2.8000   18.5230   51.2740 C.3   128  VAL128      0.0019
     59  CG2       -0.7030   18.6860   49.9060 C.3   128  VAL128      0.0019
     60  N         -2.1760   17.0340   44.6600 N.3   130  PHE130     -0.1241
     61  CA        -2.9880   17.8130   43.7830 C.3   130  PHE130      0.1605
     62  C         -2.8930   17.2400   42.4020 C.2   130  PHE130      0.2264
     63  O         -1.8100   17.0100   41.9090 O.2   130  PHE130     -0.2867
     64  CB        -2.5610   19.2530   43.7900 C.3   130  PHE130      0.0534
     65  CG        -2.9510   19.9950   45.0580 C.ar  130  PHE130     -0.0203
     66  CD1       -4.2600   20.3860   45.2700 C.ar  130  PHE130     -0.0042
     67  CD2       -1.9960   20.2810   46.0400 C.ar  130  PHE130     -0.0042
     68  CE1       -4.6050   21.1300   46.3680 C.ar  130  PHE130     -0.0003
     69  CE2       -2.3390   20.9940   47.1800 C.ar  130  PHE130     -0.0003
     70  CZ        -3.6540   21.3840   47.3730 C.ar  130  PHE130     -0.0000
     71  N        -15.8110   12.6960   48.4490 N.3   170  ASN170     -0.1225
     72  CA       -16.0530   13.9800   49.0220 C.3   170  ASN170      0.1785
     73  C        -15.1210   15.0690   48.5190 C.2   170  ASN170      0.2598
     74  O        -14.1610   14.8010   47.8040 O.2   170  ASN170     -0.2718
     75  CB       -15.9820   13.9160   50.5690 C.3   170  ASN170      0.1169
     76  CG       -17.0700   14.7070   51.2200 C.2   170  ASN170      0.2627
     77  OD1      -17.3940   15.7900   50.7540 O.2   170  ASN170     -0.2716
     78  ND2      -17.5140   14.2640   52.4220 N.am  170  ASN170     -0.0877
     79  N        -15.4020   16.2950   48.9520 N.am  171  THR171     -0.1939
     80  CA       -14.6100   17.4470   48.6050 C.3   171  THR171      0.2028
     81  C        -13.4360   17.6400   49.5580 C.2   171  THR171      0.2642
     82  O        -13.4160   17.1040   50.6580 O.2   171  THR171     -0.2714
     83  CB       -15.4680   18.7340   48.6250 C.3   171  THR171      0.1808
     84  OG1      -16.2190   18.8040   49.8500 O.3   171  THR171     -0.2208
     85  CG2      -16.4170   18.8010   47.4150 C.3   171  THR171      0.0379
     86  N        -12.4710   18.4690   49.1520 N.am  172  CYS172     -0.1953
     87  CA       -11.3240   18.7310   49.9950 C.3   172  CYS172      0.1843
     88  C        -10.6250   20.0120   49.5550 C.2   172  CYS172      0.2625
     89  O        -11.1400   20.7420   48.7180 O.2   172  CYS172     -0.2714
     90  CB       -10.3540   17.5100   49.9820 C.3   172  CYS172      0.0997
     91  SG        -9.1240   17.5120   51.3340 S.3   172  CYS172     -0.0797
     92  N         -9.5260   20.3450   50.2210 N.am  173  ASN173     -0.1958
     93  CA        -8.8050   21.5690   49.9310 C.3   173  ASN173      0.1819
     94  C         -8.5890   21.7800   48.4640 C.2   173  ASN173      0.2621
     95  O         -7.9810   20.9340   47.7710 O.2   173  ASN173     -0.2715
     96  CB        -7.4740   21.5920   50.6250 C.3   173  ASN173      0.1195
     97  CG        -7.6070   21.4930   52.1060 C.2   173  ASN173      0.2630
     98  OD1       -7.8520   20.4060   52.6430 O.2   173  ASN173     -0.2716
     99  ND2       -7.6640   22.6340   52.7570 N.am  173  ASN173     -0.0877
    100  N         -8.9390   22.9730   48.0200 N.am  174  GLY174     -0.1954
    101  CA        -8.7780   23.3760   46.6210 C.3   174  GLY174      0.1869
    102  C        -10.0550   23.1530   45.7750 C.2   174  GLY174      0.2309
    103  O        -10.1350   23.6330   44.6450 O.2   174  GLY174     -0.2863
    104  N        -13.0230   24.1960   46.9000 N.3   176  SER176     -0.1217
    105  CA       -13.8490   25.3760   47.2460 C.3   176  SER176      0.1889
    106  C        -14.3580   26.0940   46.0600 C.2   176  SER176      0.2288
    107  O        -13.5880   26.4320   45.1430 O.2   176  SER176     -0.2866
    108  CB       -13.0070   26.3900   48.0600 C.3   176  SER176      0.2089
    109  OG       -12.7600   25.8940   49.3160 O.3   176  SER176     -0.2183
    110  N        -19.2110   24.4630   46.4220 N.3   190  VAL190     -0.1231
    111  CA       -18.4380   23.8890   47.5110 C.3   190  VAL190      0.1692
    112  C        -18.1200   24.9760   48.5670 C.2   190  VAL190      0.2593
    113  O        -17.4990   26.0270   48.2470 O.2   190  VAL190     -0.2718
    114  CB       -17.1410   23.2370   47.0150 C.3   190  VAL190      0.0266
    115  CG1      -16.3600   22.6260   48.2030 C.3   190  VAL190      0.0020
    116  CG2      -17.4470   22.1510   45.9550 C.3   190  VAL190      0.0020
    117  N        -18.4070   24.6750   49.8470 N.am  191  SER191     -0.1938
    118  CA       -18.1460   25.6640   50.9090 C.3   191  SER191      0.2055
    119  C        -17.2260   25.0900   51.9830 C.2   191  SER191      0.2643
    120  O        -16.1500   25.6730   52.2480 O.2   191  SER191     -0.2714
    121  CB       -19.4400   26.1900   51.5190 C.3   191  SER191      0.2130
    122  OG       -19.1740   27.2280   52.5230 O.3   191  SER191     -0.2179
    123  N        -17.6050   23.9440   52.5730 N.am  192  TRP192     -0.1959
    124  CA       -16.7890   23.3180   53.6210 C.3   192  TRP192      0.1771
    125  C        -17.1880   21.9010   53.9500 C.2   192  TRP192      0.2620
    126  O        -18.0060   21.3050   53.2810 O.2   192  TRP192     -0.2715
    127  CB       -16.7890   24.1800   54.9050 C.3   192  TRP192      0.0590
    128  CG       -18.1590   24.4030   55.5110 C.ar  192  TRP192      0.0006
    129  CD1      -19.0350   25.4080   55.2120 C.ar  192  TRP192      0.0946
    130  CD2      -18.7430   23.6800   56.5970 C.ar  192  TRP192      0.0152
    131  NE1      -20.1720   25.2910   55.9710 N.ar  192  TRP192     -0.2442
    132  CE2      -20.0190   24.2310   56.8300 C.ar  192  TRP192      0.0810
    133  CE3      -18.3490   22.5800   57.3410 C.ar  192  TRP192      0.0012
    134  CZ2      -20.8250   23.8040   57.8600 C.ar  192  TRP192      0.0191
    135  CZ3      -19.1710   22.1390   58.3520 C.ar  192  TRP192      0.0001
    136  CH2      -20.3970   22.7270   58.5860 C.ar  192  TRP192      0.0015
    137  N        -16.4760   21.3320   54.9160 N.am  193  GLY193     -0.1940
    138  CA       -16.6210   19.9470   55.3160 C.3   193  GLY193      0.2014
    139  C        -15.7310   19.7450   56.5510 C.2   193  GLY193      0.2640
    140  O        -15.2180   20.7210   57.1100 O.2   193  GLY193     -0.2714
    141  N        -15.5080   18.4970   56.9450 N.am  194  THR194     -0.1936
    142  CA       -14.6410   18.2160   58.0860 C.3   194  THR194      0.2028
    143  C        -13.2460   17.8760   57.6120 C.2   194  THR194      0.2642
    144  O        -13.0280   17.5410   56.4470 O.2   194  THR194     -0.2714
    145  CB       -15.1650   17.0600   58.9230 C.3   194  THR194      0.1808
    146  OG1      -15.0610   15.8590   58.1720 O.3   194  THR194     -0.2208
    147  CG2      -16.5880   17.2870   59.3030 C.3   194  THR194      0.0379
    148  N        -12.2900   18.0620   58.5150 N.am  195  TYR195     -0.1973
    149  CA       -10.9070   17.8650   58.2270 C.3   195  TYR195      0.1639
    150  C        -10.3540   16.8680   59.2550 C.2   195  TYR195      0.2290
    151  O        -10.5560   17.0630   60.4300 O.2   195  TYR195     -0.2864
    152  CB       -10.1860   19.2040   58.3630 C.3   195  TYR195      0.0560
    153  CG        -8.7540   19.0940   58.1490 C.ar  195  TYR195     -0.0198
    154  CD1       -8.2250   19.2460   56.8700 C.ar  195  TYR195     -0.0009
    155  CD2       -7.8970   18.7160   59.1880 C.ar  195  TYR195     -0.0009
    156  CE1       -6.8990   19.0290   56.6210 C.ar  195  TYR195      0.0417
    157  CE2       -6.5510   18.5210   58.9510 C.ar  195  TYR195      0.0417
    158  CZ        -6.0620   18.6890   57.6430 C.ar  195  TYR195      0.1957
    159  OH        -4.7370   18.5290   57.3570 O.3   195  TYR195     -0.2866
    160  N        -10.1660   15.3910   55.3030 N.3   197  CYS197     -0.1221
    161  CA       -11.2610   15.1860   54.3940 C.3   197  CYS197      0.1808
    162  C        -11.5950   13.7270   54.2430 C.2   197  CYS197      0.2601
    163  O        -10.8010   12.8610   54.5640 O.2   197  CYS197     -0.2717
    164  CB       -10.9380   15.7680   53.0320 C.3   197  CYS197      0.0970
    165  SG       -10.2940   17.4460   53.0290 S.3   197  CYS197     -0.0800
    166  N        -12.7980   13.4600   53.7810 N.am  198  GLY198     -0.1957
    167  CA       -13.1450   12.1680   53.2480 C.3   198  GLY198      0.1869
    168  C        -13.5140   11.1620   54.3150 C.2   198  GLY198      0.2309
    169  O        -13.3680    9.9650   54.1170 O.2   198  GLY198     -0.2863
@<TRIPOS>BOND
     1     7     6    1
     2    22    21    2
     3     1     2    1
     4    63    62    2
     5     2     5    1
     6     2     3    1
     7     5     6    1
     8    62    61    1
     9     6     8    1
    10    21    20    1
    11     9     3   am
    12     9    10    1
    13     3     4    2
    14    61    64    1
    15    61    60    1
    16    64    65    1
    17    19    20    1
    18    19    11   am
    19    20    23    1
    20    13    10    1
    21    13    14    1
    22    10    11    1
    23    23    24    1
    24   103   102    2
    25    11    12    2
    26    65    66   ar
    27    65    67   ar
    28   107   106    2
    29    66    68   ar
    30    14    16   ar
    31    14    15   ar
    32   102   101    1
    33   116   114    1
    34    16    18   ar
    35    67    69   ar
    36   106   105    1
    37    68    70   ar
    38   110   111    1
    39   101   100    1
    40    15    17   ar
    41   104   105    1
    42   114   111    1
    43   114   115    1
    44    69    70   ar
    45   105   108    1
    46    18    17   ar
    47    85    83    1
    48   111   112    1
    49    95    94    2
    50    74    73    2
    51   100    94   am
    52   108   109    1
    53   113   112    2
    54    71    72    1
    55    94    93    1
    56    73    79   am
    57    73    72    1
    58   112   117   am
    59    80    83    1
    60    80    79    1
    61    80    81    1
    62    83    84    1
    63    56    55    2
    64    55    54    1
    65    89    88    2
    66    48    47    2
    67    72    75    1
    68    86    81   am
    69    86    87    1
    70    88    87    1
    71    88    92   am
    72    81    82    2
    73    47    46    1
    74   117   118    1
    75    27    28    2
    76    27    26    1
    77    59    57    1
    78    93    92    1
    79    93    96    1
    80    90    87    1
    81    90    91    1
    82    54    57    1
    83    54    53    1
    84    57    58    1
    85    25    26    1
    86    34    33   ar
    87    34    32   ar
    88    75    76    1
    89    96    97    1
    90    33    31   ar
    91    77    76    2
    92    32    30   ar
    93    51    50   ar
    94    26    29    1
    95   118   121    1
    96   118   119    1
    97    46    45    1
    98    46    49    1
    99    30    31   ar
   100    30    29    1
   101    76    78   am
   102    50    49    1
   103    50    52   ar
   104    91   165    1
   105   121   122    1
   106   119   120    2
   107   119   123   am
   108    97    98    2
   109    97    99   am
   110   123   124    1
   111   165   164    1
   112   164   161    1
   113   167   166    1
   114   167   168    1
   115   126   125    2
   116   124   125    1
   117   124   127    1
   118   166   162   am
   119   125   137   am
   120   169   168    2
   121   162   161    1
   122   162   163    2
   123   161   160    1
   124   127   128    1
   125   137   138    1
   126    38    37    2
   127   129   128   ar
   128   129   131   ar
   129   138   139    1
   130   128   130   ar
   131   131   132   ar
   132    37    36    1
   133    41    40   ar
   134    41    43   ar
   135   144   143    2
   136    39    36    1
   137    39    40    1
   138   139   141   am
   139   139   140    2
   140   130   132   ar
   141   130   133   ar
   142   156   154   ar
   143   156   158   ar
   144    36    35    1
   145   132   134   ar
   146   154   153   ar
   147    40    42   ar
   148   141   142    1
   149    43    44   ar
   150   133   135   ar
   151   159   158    1
   152   143   142    1
   153   143   148   am
   154   158   157   ar
   155   134   136   ar
   156    44    42   ar
   157   142   145    1
   158   153   152    1
   159   153   155   ar
   160   146   145    1
   161   149   152    1
   162   149   148    1
   163   149   150    1
   164   135   136   ar
   165   145   147    1
   166   157   155   ar
   167   150   151    2
