@<TRIPOS>MOLECULE
tmp/5zfjA01.pdb
 152 148 0 0 0
SMALL
GASTEIGER

@<TRIPOS>ATOM
      1  N        -28.2120  -11.9280    2.6580 N.3    21  ASP21      -0.1225
      2  CA       -27.4310  -11.6560    1.4830 C.3    21  ASP21       0.1805
      3  C        -28.1330  -12.0170    0.1760 C.2    21  ASP21       0.2598
      4  O        -27.5750  -11.8050   -0.8780 O.2    21  ASP21      -0.2718
      5  CB       -26.0470  -12.2830    1.5790 C.3    21  ASP21       0.1424
      6  CG       -25.1560  -11.6070    2.6230 C.2    21  ASP21       0.3668
      7  OD1      -25.4560  -10.4690    3.0980 O.co2  21  ASP21      -0.2456
      8  OD2      -24.1140  -12.1990    2.8940 O.co2  21  ASP21      -0.2456
      9  N        -29.3840  -12.4460    0.2220 N.am   22  ASP22      -0.1960
     10  CA       -30.1420  -12.6480   -1.0000 C.3    22  ASP22       0.1840
     11  C        -30.5520  -11.2760   -1.5580 C.2    22  ASP22       0.2622
     12  O        -30.4960  -10.2490   -0.8620 O.2    22  ASP22      -0.2715
     13  CB       -31.3660  -13.5220   -0.7400 C.3    22  ASP22       0.1450
     14  CG       -31.9720  -14.1150   -2.0090 C.2    22  ASP22       0.3671
     15  OD1      -31.3090  -14.1170   -3.0750 O.co2  22  ASP22      -0.2456
     16  OD2      -33.0880  -14.6330   -1.8970 O.co2  22  ASP22      -0.2456
     17  N        -30.9720  -11.2490   -2.8190 N.am   23  TYR23      -0.1974
     18  CA       -31.2980   -9.9860   -3.4850 C.3    23  TYR23       0.1639
     19  C        -32.2150  -10.2480   -4.6760 C.2    23  TYR23       0.2290
     20  O        -32.3060  -11.3930   -5.0960 O.2    23  TYR23      -0.2864
     21  CB       -30.0260   -9.3160   -3.9700 C.3    23  TYR23       0.0560
     22  CG       -29.1920  -10.1680   -4.8820 C.ar   23  TYR23      -0.0198
     23  CD1      -28.3420  -11.1550   -4.3970 C.ar   23  TYR23      -0.0009
     24  CD2      -29.2050   -9.9330   -6.2470 C.ar   23  TYR23      -0.0009
     25  CE1      -27.5150  -11.8800   -5.2380 C.ar   23  TYR23       0.0417
     26  CE2      -28.4300  -10.6870   -7.1090 C.ar   23  TYR23       0.0417
     27  CZ       -27.6010  -11.6730   -6.6070 C.ar   23  TYR23       0.1957
     28  OH       -26.8630  -12.3990   -7.4930 O.3    23  TYR23      -0.2866
     29  N        -27.6730   -4.7830  -13.2670 N.3    50  ASN50      -0.1240
     30  CA       -28.9700   -4.9650  -12.6220 C.3    50  ASN50       0.1653
     31  C        -29.1480   -4.0270  -11.4220 C.2    50  ASN50       0.2266
     32  O        -28.2130   -3.3870  -10.9370 O.2    50  ASN50      -0.2867
     33  CB       -29.2330   -6.4120  -12.1880 C.3    50  ASN50       0.1155
     34  CG       -28.0870   -7.0720  -11.4600 C.2    50  ASN50       0.2627
     35  OD1      -27.2930   -6.4080  -10.7910 O.2    50  ASN50      -0.2716
     36  ND2      -27.9710   -8.3820  -11.6360 N.am   50  ASN50      -0.0877
     37  N        -31.4970   -5.7920   -1.5570 N.3    54  GLY54      -0.1210
     38  CA       -30.6120   -6.8210   -0.9800 C.3    54  GLY54       0.1956
     39  C        -30.7470   -6.7660    0.5320 C.2    54  GLY54       0.2612
     40  O        -30.8340   -5.6770    1.0870 O.2    54  GLY54      -0.2717
     41  N        -30.8240   -7.9380    1.1720 N.am   55  TYR55      -0.1962
     42  CA       -31.0420   -8.0530    2.6060 C.3    55  TYR55       0.1771
     43  C        -29.6860   -8.0080    3.3120 C.2    55  TYR55       0.2619
     44  O        -28.9800   -8.9870    3.2280 O.2    55  TYR55      -0.2715
     45  CB       -31.7810   -9.3610    2.8720 C.3    55  TYR55       0.0574
     46  CG       -32.0240   -9.7150    4.3120 C.ar   55  TYR55      -0.0198
     47  CD1      -31.9560   -8.7830    5.3300 C.ar   55  TYR55      -0.0009
     48  CD2      -32.3320  -11.0200    4.6490 C.ar   55  TYR55      -0.0009
     49  CE1      -32.1500   -9.1420    6.6540 C.ar   55  TYR55       0.0417
     50  CE2      -32.5230  -11.4040    5.9700 C.ar   55  TYR55       0.0417
     51  CZ       -32.4240  -10.4620    6.9760 C.ar   55  TYR55       0.1957
     52  OH       -32.6170  -10.8690    8.2650 O.3    55  TYR55      -0.2866
     53  N        -29.3990   -6.9150    4.0330 N.am   56  VAL56      -0.1977
     54  CA       -28.1470   -6.7580    4.7930 C.3    56  VAL56       0.1596
     55  C        -28.4900   -7.0510    6.2580 C.2    56  VAL56       0.2287
     56  O        -28.9080   -6.1650    7.0000 O.2    56  VAL56      -0.2864
     57  CB       -27.5220   -5.3580    4.6630 C.3    56  VAL56       0.0276
     58  CG1      -26.2310   -5.2750    5.4640 C.3    56  VAL56       0.0022
     59  CG2      -27.2650   -4.9670    3.2110 C.3    56  VAL56       0.0022
     60  N        -21.1390   -8.9290    3.4980 N.3    62  PHE62      -0.1241
     61  CA       -20.8460   -7.7470    2.6610 C.3    62  PHE62       0.1605
     62  C        -20.4230   -6.4840    3.4250 C.2    62  PHE62       0.2264
     63  O        -19.8130   -5.6010    2.8230 O.2    62  PHE62      -0.2867
     64  CB       -22.0960   -7.4130    1.8460 C.3    62  PHE62       0.0534
     65  CG       -22.3700   -8.4110    0.7510 C.ar   62  PHE62      -0.0203
     66  CD1      -21.3400   -8.8550   -0.0590 C.ar   62  PHE62      -0.0042
     67  CD2      -23.6550   -8.8880    0.5280 C.ar   62  PHE62      -0.0042
     68  CE1      -21.5930   -9.7520   -1.0840 C.ar   62  PHE62      -0.0003
     69  CE2      -23.9050   -9.7900   -0.4940 C.ar   62  PHE62      -0.0003
     70  CZ       -22.8730  -10.2130   -1.3010 C.ar   62  PHE62      -0.0000
     71  N        -31.3140   -2.9440    1.6000 N.3    73  ILE73      -0.1245
     72  CA       -30.7930   -1.8040    0.8710 C.3    73  ILE73       0.1561
     73  C        -31.2320   -1.9010   -0.5910 C.2    73  ILE73       0.2260
     74  O        -31.7790   -2.9160   -0.9840 O.2    73  ILE73      -0.2867
     75  CB       -29.2640   -1.7370    1.0430 C.3    73  ILE73       0.0252
     76  CG1      -28.5280   -2.9550    0.4710 C.3    73  ILE73       0.0019
     77  CG2      -28.9650   -1.5490    2.5240 C.3    73  ILE73       0.0019
     78  CD1      -28.4870   -3.0320   -1.0450 C.3    73  ILE73       0.0001
     79  N        -29.6440   -1.6390   -4.4140 N.3    75  TYR75      -0.1241
     80  CA       -28.3250   -1.6950   -5.0360 C.3    75  TYR75       0.1605
     81  C        -28.4390   -1.4560   -6.5440 C.2    75  TYR75       0.2264
     82  O        -29.4900   -1.7040   -7.1670 O.2    75  TYR75      -0.2867
     83  CB       -27.6010   -3.0200   -4.7860 C.3    75  TYR75       0.0534
     84  CG       -28.0910   -4.1310   -5.6700 C.ar   75  TYR75      -0.0201
     85  CD1      -27.5400   -4.3390   -6.9170 C.ar   75  TYR75      -0.0009
     86  CD2      -29.2200   -4.8690   -5.3280 C.ar   75  TYR75      -0.0009
     87  CE1      -28.0350   -5.3170   -7.7730 C.ar   75  TYR75       0.0417
     88  CE2      -29.7400   -5.8300   -6.1880 C.ar   75  TYR75       0.0417
     89  CZ       -29.1790   -6.0260   -7.4420 C.ar   75  TYR75       0.1957
     90  OH       -29.6740   -6.9640   -8.3150 O.3    75  TYR75      -0.2866
     91  N        -25.8060   -2.4260   -9.7780 N.3    77  TYR77      -0.1241
     92  CA       -24.5620   -3.0410  -10.2010 C.3    77  TYR77       0.1605
     93  C        -24.4410   -2.8760  -11.7140 C.2    77  TYR77       0.2264
     94  O        -25.3610   -3.2470  -12.4620 O.2    77  TYR77      -0.2867
     95  CB       -24.4930   -4.5290   -9.8270 C.3    77  TYR77       0.0534
     96  CG       -23.3080   -5.1940  -10.4630 C.ar   77  TYR77      -0.0201
     97  CD1      -22.0280   -4.8980  -10.0310 C.ar   77  TYR77      -0.0009
     98  CD2      -23.4490   -5.9450  -11.6150 C.ar   77  TYR77      -0.0009
     99  CE1      -20.9110   -5.3890  -10.6880 C.ar   77  TYR77       0.0417
    100  CE2      -22.3520   -6.4530  -12.2850 C.ar   77  TYR77       0.0417
    101  CZ       -21.0760   -6.1530  -11.8260 C.ar   77  TYR77       0.1957
    102  OH       -19.9630   -6.6380  -12.4520 O.3    77  TYR77      -0.2866
    103  N        -19.7800   -2.0050   -0.6860 N.3   112  LEU112     -0.1245
    104  CA       -19.8750   -3.4310   -0.3820 C.3   112  LEU112      0.1561
    105  C        -18.4590   -4.0250   -0.3220 C.2   112  LEU112      0.2260
    106  O        -17.5920   -3.6100   -1.0780 O.2   112  LEU112     -0.2867
    107  CB       -20.7110   -4.0250   -1.5140 C.3   112  LEU112      0.0270
    108  CG       -21.2550   -5.4290   -1.3240 C.3   112  LEU112      0.0019
    109  CD1      -22.7450   -5.3870   -1.0680 C.3   112  LEU112      0.0001
    110  CD2      -20.9560   -6.2400   -2.5700 C.3   112  LEU112      0.0001
    111  N        -15.2070   -7.8730   -4.2540 N.3   121  PHE121     -0.1241
    112  CA       -16.0190   -6.6690   -4.0760 C.3   121  PHE121      0.1605
    113  C        -15.1720   -5.4670   -3.6550 C.2   121  PHE121      0.2264
    114  O        -15.6970   -4.3940   -3.4100 O.2   121  PHE121     -0.2867
    115  CB       -17.1670   -6.9680   -3.1110 C.3   121  PHE121      0.0534
    116  CG       -17.9550   -8.1850   -3.5270 C.ar  121  PHE121     -0.0203
    117  CD1      -18.4880   -8.2770   -4.8020 C.ar  121  PHE121     -0.0042
    118  CD2      -18.0730   -9.2720   -2.6790 C.ar  121  PHE121     -0.0042
    119  CE1      -19.1910   -9.4030   -5.2010 C.ar  121  PHE121     -0.0003
    120  CE2      -18.7760  -10.4000   -3.0780 C.ar  121  PHE121     -0.0003
    121  CZ       -19.3150  -10.4730   -4.3400 C.ar  121  PHE121     -0.0000
    122  N        -14.7650   -2.6930   -7.8790 N.3   184  PHE184     -0.1241
    123  CA       -16.0740   -3.2810   -8.1180 C.3   184  PHE184      0.1605
    124  C        -17.1910   -2.2400   -8.2850 C.2   184  PHE184      0.2264
    125  O        -17.3740   -1.3540   -7.4370 O.2   184  PHE184     -0.2867
    126  CB       -16.3940   -4.1680   -6.9120 C.3   184  PHE184      0.0534
    127  CG       -17.7620   -4.8010   -6.9460 C.ar  184  PHE184     -0.0203
    128  CD1      -18.0120   -5.8610   -7.8000 C.ar  184  PHE184     -0.0042
    129  CD2      -18.7880   -4.3190   -6.1540 C.ar  184  PHE184     -0.0042
    130  CE1      -19.2520   -6.4730   -7.8210 C.ar  184  PHE184     -0.0003
    131  CE2      -20.0300   -4.9270   -6.1890 C.ar  184  PHE184     -0.0003
    132  CZ       -20.2660   -5.9750   -7.0390 C.ar  184  PHE184     -0.0000
    133  N        -20.5520   -1.9790   -8.0540 N.3   186  GLY186     -0.1210
    134  CA       -21.8390   -2.0510   -7.4020 C.3   186  GLY186      0.1956
    135  C        -21.8410   -1.0790   -6.2420 C.2   186  GLY186      0.2612
    136  O        -20.7900   -0.7970   -5.6940 O.2   186  GLY186     -0.2717
    137  N        -22.9900   -0.4680   -5.9470 N.am  187  LEU187     -0.1965
    138  CA       -23.1100    0.2830   -4.7030 C.3   187  LEU187      0.1728
    139  C        -24.5650    0.3040   -4.2710 C.2   187  LEU187      0.2616
    140  O        -25.4660    0.0320   -5.0720 O.2   187  LEU187     -0.2715
    141  CB       -22.5510    1.7050   -4.7620 C.3   187  LEU187      0.0311
    142  CG       -23.0540    2.6720   -5.8350 C.3   187  LEU187      0.0022
    143  CD1      -24.2780    2.2320   -6.5950 C.3   187  LEU187      0.0001
    144  CD2      -23.2810    4.0400   -5.2330 C.3   187  LEU187      0.0001
    145  N        -24.7150    0.5680   -2.9800 N.am  188  ASP188     -0.1971
    146  CA       -25.9540    0.4040   -2.2590 C.3   188  ASP188      0.1709
    147  C        -26.4310    1.7610   -1.7380 C.2   188  ASP188      0.2293
    148  O        -25.6290    2.6640   -1.4600 O.2   188  ASP188     -0.2864
    149  CB       -25.7520   -0.5740   -1.0970 C.3   188  ASP188      0.1436
    150  CG       -25.3180   -1.9670   -1.5270 C.2   188  ASP188      0.3671
    151  OD1      -25.3600   -2.2440   -2.7500 O.co2 188  ASP188     -0.2456
    152  OD2      -24.9140   -2.7770   -0.6530 O.co2 188  ASP188     -0.2456
@<TRIPOS>BOND
     1    29    30    1
     2    30    33    1
     3    30    31    1
     4    94    93    2
     5   102   101    1
     6   100   101   ar
     7   100    98   ar
     8    33    34    1
     9   101    99   ar
    10    93    92    1
    11    36    34   am
    12    98    96   ar
    13    34    35    2
    14    31    32    2
    15    99    97   ar
    16    96    97   ar
    17    96    95    1
    18    92    95    1
    19    92    91    1
    20    90    89    1
    21   124   123    1
    22   124   125    2
    23   123   122    1
    24   123   126    1
    25   133   134    1
    26   130   128   ar
    27   130   132   ar
    28   128   127   ar
    29    87    89   ar
    30    87    85   ar
    31    28    27    1
    32    89    88   ar
    33   134   135    1
    34    82    81    2
    35    26    27   ar
    36    26    24   ar
    37   132   131   ar
    38   127   126    1
    39   127   129   ar
    40    85    84   ar
    41    27    25   ar
    42   143   142    1
    43    81    80    1
    44    24    22   ar
    45   135   137   am
    46   135   136    2
    47   131   129   ar
    48    88    86   ar
    49   137   138    1
    50   142   144    1
    51   142   141    1
    52    84    86   ar
    53    84    83    1
    54    25    23   ar
    55   119   117   ar
    56   119   121   ar
    57    20    19    2
    58   140   139    2
    59    80    83    1
    60    80    79    1
    61    22    23   ar
    62    22    21    1
    63   117   116   ar
    64   141   138    1
    65   138   139    1
    66    19    18    1
    67   121   120   ar
    68   139   145   am
    69   111   112    1
    70   112   113    1
    71   112   115    1
    72    21    18    1
    73   113   114    2
    74   116   115    1
    75   116   118   ar
    76    18    17    1
    77   120   118   ar
    78    15    14   ar
    79   145   146    1
    80    17    11   am
    81   151   150   ar
    82   110   108    1
    83   146   147    1
    84   146   149    1
    85    14    16   ar
    86    14    13    1
    87   147   148    2
    88    11    10    1
    89    11    12    2
    90    37    38    1
    91   150   149    1
    92   150   152   ar
    93   107   108    1
    94   107   104    1
    95   108   109    1
    96    70    68   ar
    97    70    69   ar
    98    68    66   ar
    99   106   105    2
   100    78    76    1
   101    10    13    1
   102    10     9    1
   103    74    73    2
   104    38    39    1
   105     4     3    2
   106   103   104    1
   107    73    72    1
   108    69    67   ar
   109   104   105    1
   110    66    65   ar
   111     3     9   am
   112     3     2    1
   113    76    75    1
   114    67    65   ar
   115    39    40    2
   116    39    41   am
   117    65    64    1
   118    72    75    1
   119    72    71    1
   120    75    77    1
   121    41    42    1
   122     2     5    1
   123     2     1    1
   124     5     6    1
   125    64    61    1
   126    42    45    1
   127    42    43    1
   128     6     8   ar
   129     6     7   ar
   130    61    62    1
   131    61    60    1
   132    63    62    2
   133    45    46    1
   134    59    57    1
   135    44    43    2
   136    43    53   am
   137    53    54    1
   138    46    48   ar
   139    46    47   ar
   140    48    50   ar
   141    57    54    1
   142    57    58    1
   143    54    55    1
   144    47    49   ar
   145    50    51   ar
   146    55    56    2
   147    49    51   ar
   148    51    52    1
