@<TRIPOS>MOLECULE
tmp/5zfkA01.pdb
 154 152 0 0 0
SMALL
GASTEIGER

@<TRIPOS>ATOM
      1  N         96.6220   65.1270   22.9620 N.3    10  THR10      -0.1204
      2  CA        97.7580   65.5260   23.7680 C.3    10  THR10       0.1979
      3  C         97.4250   65.5780   25.2630 C.2    10  THR10       0.2460
      4  O         96.3510   66.0510   25.6360 O.2    10  THR10      -0.2732
      5  CB        98.2770   66.8790   23.3240 C.3    10  THR10       0.1783
      6  OG1       99.3770   67.2760   24.1620 O.3    10  THR10      -0.2211
      7  CG2       97.2210   67.9590   23.3330 C.3    10  THR10       0.0376
      8  N         98.3910   65.1710   26.1200 N.am   11  PRO11      -0.2717
      9  CA        98.1880   65.1210   27.5380 C.3    11  PRO11       0.1535
     10  C         98.5710   66.4040   28.2840 C.2    11  PRO11       0.2598
     11  O         98.5510   66.4000   29.5110 O.2    11  PRO11      -0.2715
     12  CB        99.1160   63.9680   27.9770 C.3    11  PRO11       0.0310
     13  CG       100.2500   64.1090   27.0330 C.3    11  PRO11       0.0237
     14  CD        99.6210   64.4010   25.7240 C.3    11  PRO11       0.0939
     15  N         98.9500   67.4490   27.5680 N.am   12  VAL12      -0.1978
     16  CA        99.3730   68.6750   28.2320 C.3    12  VAL12       0.1596
     17  C         98.2250   69.4770   28.8150 C.2    12  VAL12       0.2287
     18  O         98.4590   70.3780   29.6260 O.2    12  VAL12      -0.2864
     19  CB       100.2440   69.5960   27.3270 C.3    12  VAL12       0.0276
     20  CG1      101.5320   68.8340   26.9380 C.3    12  VAL12       0.0022
     21  CG2       99.5290   70.0760   26.0870 C.3    12  VAL12       0.0022
     22  N         95.8880   74.8580   26.1270 N.3    19  ARG19      -0.1231
     23  CA        97.1650   74.3390   26.5490 C.3    19  ARG19       0.1694
     24  C         97.8240   73.4840   25.5070 C.2    19  ARG19       0.2593
     25  O         99.0150   73.3940   25.4690 O.2    19  ARG19      -0.2718
     26  CB        97.0470   73.4910   27.8040 C.3    19  ARG19       0.0321
     27  CG        96.7340   74.2610   28.9730 C.3    19  ARG19       0.0489
     28  CD        97.3190   73.6290   30.2160 C.3    19  ARG19       0.2205
     29  NE        97.1420   74.6870   31.1630 N.pl3  19  ARG19      -0.0865
     30  CZ        98.0830   75.5090   31.5800 C.cat  19  ARG19       0.5346
     31  NH1       99.3540   75.4270   31.1930 N.pl3  19  ARG19       0.1354
     32  NH2       97.7050   76.4440   32.4430 N.pl3  19  ARG19       0.1354
     33  N         97.0280   72.7880   24.7070 N.am   20  GLY20      -0.1942
     34  CA        97.5180   71.9220   23.6740 C.3    20  GLY20       0.2014
     35  C         97.8660   72.6130   22.3910 C.2    20  GLY20       0.2639
     36  O         98.2170   71.9210   21.4180 O.2    20  GLY20      -0.2714
     37  N         97.7660   73.9590   22.3320 N.am   21  GLY21      -0.1939
     38  CA        98.2550   74.6450   21.1400 C.3    21  GLY21       0.2014
     39  C         97.5040   74.2060   19.8900 C.2    21  GLY21       0.2639
     40  O         96.2760   73.9480   19.9140 O.2    21  GLY21      -0.2714
     41  N         98.2240   74.1030   18.7910 N.am   22  GLY22      -0.1939
     42  CA        97.6360   73.8050   17.5130 C.3    22  GLY22       0.2014
     43  C         97.0070   72.4130   17.4370 C.2    22  GLY22       0.2635
     44  O         96.1440   72.2020   16.6090 O.2    22  GLY22      -0.2714
     45  N         97.4760   71.4800   18.2540 N.am   23  VAL23      -0.2030
     46  CA        96.8280   70.1590   18.2880 C.3    23  VAL23       0.1282
     47  C         95.3240   70.2950   18.5540 C.3    23  VAL23       0.2035
     48  O         94.4910   69.4390   18.0530 O.3    23  VAL23      -0.2185
     49  CB        97.5170   69.2020   19.3160 C.3    23  VAL23       0.0226
     50  CG1       96.6420   67.9610   19.5550 C.3    23  VAL23       0.0018
     51  CG2       98.8660   68.8280   18.8090 C.3    23  VAL23       0.0018
     52  N        100.8330   66.2760   31.3890 N.3    64  GLN64      -0.1231
     53  CA       102.2430   66.2080   31.0650 C.3    64  GLN64       0.1698
     54  C        102.8240   67.6140   31.0300 C.2    64  GLN64       0.2593
     55  O        102.2210   68.5420   30.5190 O.2    64  GLN64      -0.2718
     56  CB       102.2870   65.5240   29.6930 C.3    64  GLN64       0.0381
     57  CG       103.3980   64.6520   29.3550 C.3    64  GLN64       0.0905
     58  CD       103.7840   63.5270   30.3110 C.2    64  GLN64       0.2608
     59  OE1      103.1280   63.0950   31.2550 O.2    64  GLN64      -0.2717
     60  NE2      104.9240   63.0630   30.0170 N.am   64  GLN64      -0.0878
     61  N        104.0580   67.7760   31.4870 N.am   65  SER65      -0.1938
     62  CA       104.7770   69.0370   31.3220 C.3    65  SER65       0.2055
     63  C        105.1290   69.1430   29.8240 C.2    65  SER65       0.2644
     64  O        105.2630   68.1210   29.1230 O.2    65  SER65      -0.2714
     65  CB       106.0870   69.0480   32.1860 C.3    65  SER65       0.2130
     66  OG       106.8860   67.9880   31.7550 O.3    65  SER65      -0.2179
     67  N        105.2220   70.3520   29.3110 N.am   66  THR66      -0.1936
     68  CA       105.4900   70.5350   27.8870 C.3    66  THR66       0.2028
     69  C        106.9220   70.1300   27.5180 C.2    66  THR66       0.2642
     70  O        107.9100   70.5340   28.2060 O.2    66  THR66      -0.2714
     71  CB       105.1770   71.9830   27.4210 C.3    66  THR66       0.1808
     72  OG1      105.8980   72.9310   28.2260 O.3    66  THR66      -0.2208
     73  CG2      103.7080   72.2760   27.5530 C.3    66  THR66       0.0379
     74  N        107.0530   69.4050   26.4070 N.am   67  ALA67      -0.1963
     75  CA       108.3300   68.9100   25.9990 C.3    67  ALA67       0.1728
     76  C        109.3290   70.0180   25.7360 C.2    67  ALA67       0.2616
     77  O        110.5000   69.8330   26.0130 O.2    67  ALA67      -0.2715
     78  CB       108.2260   67.9930   24.7950 C.3    67  ALA67       0.0334
     79  N        108.8890   71.1200   25.1720 N.am   68  GLN68      -0.1977
     80  CA       109.8010   72.1770   24.7910 C.3    68  GLN68       0.1601
     81  C        110.3360   72.9550   25.9910 C.2    68  GLN68       0.2287
     82  O        111.2070   73.7700   25.8410 O.2    68  GLN68      -0.2864
     83  CB       109.1430   73.0660   23.7720 C.3    68  GLN68       0.0394
     84  CG       108.0070   73.9200   24.3400 C.3    68  GLN68       0.0908
     85  CD       106.6230   73.2650   24.2690 C.2    68  GLN68       0.2608
     86  OE1      106.4740   72.0200   24.3400 O.2    68  GLN68      -0.2717
     87  NE2      105.5950   74.1050   24.2120 N.am   68  GLN68      -0.0878
     88  N         98.3300   61.8280   18.8410 N.3   104  PHE104     -0.1227
     89  CA        98.7220   63.2390   18.6640 C.3   104  PHE104      0.1736
     90  C         99.7270   63.8200   19.6840 C.2   104  PHE104      0.2595
     91  O        100.0920   64.9870   19.5910 O.2   104  PHE104     -0.2718
     92  CB        97.4590   64.1550   18.6470 C.3   104  PHE104      0.0547
     93  CG        96.5690   63.9780   17.4620 C.ar  104  PHE104     -0.0202
     94  CD1       95.7320   62.8660   17.3640 C.ar  104  PHE104     -0.0042
     95  CD2       96.6000   64.9070   16.4460 C.ar  104  PHE104     -0.0042
     96  CE1       94.8710   62.7070   16.2480 C.ar  104  PHE104     -0.0003
     97  CE2       95.7690   64.7590   15.3530 C.ar  104  PHE104     -0.0003
     98  CZ        94.9210   63.6570   15.2440 C.ar  104  PHE104     -0.0000
     99  N        100.1390   63.0290   20.6520 N.am  105  ALA105     -0.1966
    100  CA       100.9670   63.4550   21.7940 C.3   105  ALA105      0.1728
    101  C        102.4430   63.3390   21.4010 C.2   105  ALA105      0.2616
    102  O        102.8810   62.3010   20.9460 O.2   105  ALA105     -0.2715
    103  CB       100.6920   62.5430   22.9720 C.3   105  ALA105      0.0334
    104  N        103.1920   64.3810   21.7170 N.am  106  TYR106     -0.1960
    105  CA       104.6730   64.3850   21.5320 C.3   106  TYR106      0.1771
    106  C        105.2770   63.8580   22.8310 C.2   106  TYR106      0.2619
    107  O        105.7410   64.6090   23.7170 O.2   106  TYR106     -0.2715
    108  CB       105.0910   65.8030   21.2360 C.3   106  TYR106      0.0574
    109  CG       106.4870   65.9050   20.7230 C.ar  106  TYR106     -0.0198
    110  CD1      107.5930   65.8390   21.5830 C.ar  106  TYR106     -0.0009
    111  CD2      106.7130   66.0490   19.4040 C.ar  106  TYR106     -0.0009
    112  CE1      108.8610   65.9800   21.0780 C.ar  106  TYR106      0.0417
    113  CE2      108.0140   66.1740   18.8990 C.ar  106  TYR106      0.0417
    114  CZ       109.0660   66.0660   19.7530 C.ar  106  TYR106      0.1957
    115  OH       110.3760   66.2390   19.2470 O.3   106  TYR106     -0.2866
    116  N        105.1130   62.5730   23.0140 N.am  107  ASP107     -0.1971
    117  CA       105.5260   61.8840   24.2190 C.3   107  ASP107      0.1709
    118  C        106.1100   60.5240   23.8850 C.2   107  ASP107      0.2293
    119  O        105.6960   59.8280   22.9640 O.2   107  ASP107     -0.2864
    120  CB       104.3700   61.7300   25.2160 C.3   107  ASP107      0.1436
    121  CG       104.0280   63.0420   25.8730 C.2   107  ASP107      0.3671
    122  OD1      104.8900   63.5370   26.6550 O.co2 107  ASP107     -0.2456
    123  OD2      103.0220   63.6590   25.4420 O.co2 107  ASP107     -0.2456
    124  N        103.9380   66.6330   16.1890 N.3   126  SER126     -0.1217
    125  CA       103.5400   68.0590   16.1040 C.3   126  SER126      0.1889
    126  C        104.6870   69.0510   16.0840 C.2   126  SER126      0.2288
    127  O        104.4980   70.1850   15.7040 O.2   126  SER126     -0.2866
    128  CB       102.5730   68.4290   17.2750 C.3   126  SER126      0.2089
    129  OG       103.2580   68.2940   18.5060 O.3   126  SER126     -0.2183
    130  N         99.9460   80.6730   21.9890 N.3   191  ARG191     -0.1245
    131  CA       100.2450   80.4730   23.3800 C.3   191  ARG191      0.1563
    132  C        101.1970   81.5670   23.8550 C.2   191  ARG191      0.2260
    133  O        102.1590   81.8680   23.1620 O.2   191  ARG191     -0.2867
    134  CB       100.8470   79.1110   23.5470 C.3   191  ARG191      0.0307
    135  CG        99.8980   77.9810   23.2800 C.3   191  ARG191      0.0489
    136  CD       100.5400   76.6190   23.5190 C.3   191  ARG191      0.2205
    137  NE       101.5510   76.4470   22.4550 N.pl3 191  ARG191     -0.0865
    138  CZ       102.8940   76.5710   22.6600 C.cat 191  ARG191      0.5346
    139  NH1      103.4120   76.8370   23.8420 N.pl3 191  ARG191      0.1354
    140  NH2      103.7040   76.4500   21.6190 N.pl3 191  ARG191      0.1354
    141  N        111.6580   79.7510   18.6480 N.3   262  TRP262     -0.1241
    142  CA       111.9610   78.4430   18.0760 C.3   262  TRP262      0.1605
    143  C        111.7190   78.3100   16.5910 C.2   262  TRP262      0.2264
    144  O        111.3090   79.2500   15.9620 O.2   262  TRP262     -0.2867
    145  CB       111.2200   77.3190   18.8370 C.3   262  TRP262      0.0550
    146  CG       109.7120   77.3120   18.6380 C.ar  262  TRP262      0.0003
    147  CD1      108.9360   78.1300   17.8260 C.ar  262  TRP262      0.0946
    148  CD2      108.8290   76.3830   19.2360 C.ar  262  TRP262      0.0152
    149  NE1      107.5910   77.7890   17.9660 N.ar  262  TRP262     -0.2442
    150  CE2      107.5090   76.7000   18.8060 C.ar  262  TRP262      0.0810
    151  CE3      109.0270   75.3090   20.0950 C.ar  262  TRP262      0.0012
    152  CZ2      106.4050   75.9570   19.1970 C.ar  262  TRP262      0.0191
    153  CZ3      107.9250   74.6140   20.5260 C.ar  262  TRP262      0.0001
    154  CH2      106.6260   74.9130   20.0270 C.ar  262  TRP262      0.0015
@<TRIPOS>BOND
     1    98    97   ar
     2    98    96   ar
     3    97    95   ar
     4   127   126    2
     5   144   143    2
     6   126   125    1
     7   125   124    1
     8   125   128    1
     9    96    94   ar
    10    95    93   ar
    11   143   142    1
    12    44    43    2
    13   128   129    1
    14    94    93   ar
    15    43    42    1
    16    43    45   am
    17    93    92    1
    18    42    41    1
    19   147   149   ar
    20   147   146   ar
    21   149   150   ar
    22    48    47    1
    23   142   141    1
    24   142   145    1
    25    45    46    1
    26    46    47    1
    27    46    49    1
    28   146   145    1
    29   146   148   ar
    30    92    89    1
    31    89    88    1
    32    89    90    1
    33    41    39   am
    34   150   152   ar
    35   150   148   ar
    36    51    49    1
    37   113   111   ar
    38   113   114   ar
    39   152   154   ar
    40   148   151   ar
    41   115   114    1
    42    49    50    1
    43   111   109   ar
    44    91    90    2
    45    90    99   am
    46   114   112   ar
    47    39    40    2
    48    39    38    1
    49   154   153   ar
    50   151   153   ar
    51    99   100    1
    52   109   108    1
    53   109   110   ar
    54   102   101    2
    55   112   110   ar
    56    38    37    1
    57   108   105    1
    58   101   104   am
    59   101   100    1
    60    36    35    2
    61   105   104    1
    62   105   106    1
    63   140   138    1
    64   100   103    1
    65   130   131    1
    66    37    35   am
    67    35    34    1
    68   137   138    2
    69   137   136    1
    70   138   139    1
    71   106   116   am
    72   106   107    2
    73     1     2    1
    74   119   118    2
    75   116   117    1
    76   133   132    2
    77   135   136    1
    78   135   134    1
    79     5     7    1
    80     5     2    1
    81     5     6    1
    82   131   134    1
    83   131   132    1
    84    34    33    1
    85     2     3    1
    86    83    84    1
    87    83    80    1
    88   118   117    1
    89    87    85   am
    90   117   120    1
    91    85    84    1
    92    85    86    2
    93    33    24   am
    94    80    79    1
    95    80    81    1
    96    78    75    1
    97    79    76   am
    98   120   121    1
    99     3     4    2
   100     3     8   am
   101   123   121   ar
   102    25    24    2
   103    24    23    1
   104    14     8    1
   105    14    13    1
   106    76    75    1
   107    76    77    2
   108    82    81    2
   109   121   122   ar
   110    75    74    1
   111    21    19    1
   112     8     9    1
   113    22    23    1
   114    74    69   am
   115    23    26    1
   116    20    19    1
   117    13    12    1
   118    19    16    1
   119    71    73    1
   120    71    68    1
   121    71    72    1
   122    69    68    1
   123    69    70    2
   124     9    12    1
   125     9    10    1
   126    15    16    1
   127    15    10   am
   128    26    27    1
   129    68    67    1
   130    16    17    1
   131    10    11    2
   132    17    18    2
   133    27    28    1
   134    64    63    2
   135    67    63   am
   136    57    56    1
   137    57    58    1
   138    56    53    1
   139    63    62    1
   140    60    58   am
   141    28    29    1
   142    58    59    2
   143    55    54    2
   144    54    53    1
   145    54    61   am
   146    53    52    1
   147    29    30    2
   148    31    30    1
   149    62    61    1
   150    62    65    1
   151    30    32    1
   152    66    65    1
