@<TRIPOS>MOLECULE
tmp/5zfkA00.pdb
 169 163 0 0 0
SMALL
GASTEIGER

@<TRIPOS>ATOM
      1  N         97.0280   72.7880   24.7070 N.3    20  GLY20      -0.1210
      2  CA        97.5180   71.9220   23.6740 C.3    20  GLY20       0.1956
      3  C         97.8660   72.6130   22.3910 C.2    20  GLY20       0.2612
      4  O         98.2170   71.9210   21.4180 O.2    20  GLY20      -0.2717
      5  N         97.7660   73.9590   22.3320 N.am   21  GLY21      -0.1942
      6  CA        98.2550   74.6450   21.1400 C.3    21  GLY21       0.2014
      7  C         97.5040   74.2060   19.8900 C.2    21  GLY21       0.2639
      8  O         96.2760   73.9480   19.9140 O.2    21  GLY21      -0.2714
      9  N         98.2240   74.1030   18.7910 N.am   22  GLY22      -0.1939
     10  CA        97.6360   73.8050   17.5130 C.3    22  GLY22       0.2014
     11  C         97.0070   72.4130   17.4370 C.2    22  GLY22       0.2639
     12  O         96.1440   72.2020   16.6090 O.2    22  GLY22      -0.2714
     13  N         97.4760   71.4800   18.2540 N.am   23  VAL23      -0.1963
     14  CA        96.8280   70.1590   18.2880 C.3    23  VAL23       0.1727
     15  C         95.3240   70.2950   18.5540 C.2    23  VAL23       0.2616
     16  O         94.4910   69.4390   18.0530 O.2    23  VAL23      -0.2715
     17  CB        97.5170   69.2020   19.3160 C.3    23  VAL23       0.0290
     18  CG1       96.6420   67.9610   19.5550 C.3    23  VAL23       0.0023
     19  CG2       98.8660   68.8280   18.8090 C.3    23  VAL23       0.0023
     20  N         94.9030   71.3310   19.3130 N.am   24  GLU24      -0.1963
     21  CA        93.4900   71.4140   19.6570 C.3    24  GLU24       0.1733
     22  C         92.6550   71.7920   18.4490 C.2    24  GLU24       0.2616
     23  O         91.4480   71.6370   18.4780 O.2    24  GLU24      -0.2715
     24  CB        93.2140   72.4680   20.7440 C.3    24  GLU24       0.0429
     25  CG        94.0120   72.2420   21.9910 C.3    24  GLU24       0.1163
     26  CD        93.5420   73.0530   23.2320 C.2    24  GLU24       0.3649
     27  OE1       92.5460   73.8570   23.1630 O.co2  24  GLU24      -0.2457
     28  OE2       94.1960   72.8180   24.2980 O.co2  24  GLU24      -0.2457
     29  N         93.2910   72.3380   17.3870 N.am   25  LEU25      -0.1977
     30  CA        92.6240   72.5910   16.1270 C.3    25  LEU25       0.1596
     31  C         92.8080   71.4780   15.1170 C.2    25  LEU25       0.2287
     32  O         91.8470   71.0370   14.4310 O.2    25  LEU25      -0.2864
     33  CB        93.1310   73.9080   15.5180 C.3    25  LEU25       0.0297
     34  CG        92.3430   74.4770   14.3650 C.3    25  LEU25       0.0022
     35  CD1       90.9320   74.8510   14.8070 C.3    25  LEU25       0.0001
     36  CD2       93.0960   75.6080   13.6700 C.3    25  LEU25       0.0001
     37  N         98.7980   85.8680   17.3420 N.3   189  VAL189     -0.1231
     38  CA        98.0060   84.7880   17.9020 C.3   189  VAL189      0.1692
     39  C         98.9200   83.6340   18.3470 C.2   189  VAL189      0.2593
     40  O         99.6840   83.0780   17.5520 O.2   189  VAL189     -0.2718
     41  CB        96.9960   84.3130   16.8980 C.3   189  VAL189      0.0266
     42  CG1       96.1300   83.2200   17.4810 C.3   189  VAL189      0.0020
     43  CG2       96.1810   85.4390   16.3580 C.3   189  VAL189      0.0020
     44  N         98.8080   83.2240   19.5870 N.am  190  GLY190     -0.1942
     45  CA        99.6160   82.0570   20.0520 C.3   190  GLY190      0.2014
     46  C         99.5380   81.8540   21.5400 C.2   190  GLY190      0.2638
     47  O         99.1480   82.7820   22.2650 O.2   190  GLY190     -0.2714
     48  N         99.9460   80.6730   21.9890 N.am  191  ARG191     -0.1977
     49  CA       100.2450   80.4730   23.3800 C.3   191  ARG191      0.1597
     50  C        101.1970   81.5670   23.8550 C.2   191  ARG191      0.2287
     51  O        102.1590   81.8680   23.1620 O.2   191  ARG191     -0.2864
     52  CB       100.8470   79.1110   23.5470 C.3   191  ARG191      0.0334
     53  CG        99.8980   77.9810   23.2800 C.3   191  ARG191      0.0492
     54  CD       100.5400   76.6190   23.5190 C.3   191  ARG191      0.2205
     55  NE       101.5510   76.4470   22.4550 N.pl3 191  ARG191     -0.0865
     56  CZ       102.8940   76.5710   22.6600 C.cat 191  ARG191      0.5346
     57  NH1      103.4120   76.8370   23.8420 N.pl3 191  ARG191      0.1354
     58  NH2      103.7040   76.4500   21.6190 N.pl3 191  ARG191      0.1354
     59  N        107.3320   81.6240   21.6020 N.3   196  LYS196     -0.1245
     60  CA       106.5580   82.3360   20.5950 C.3   196  LYS196      0.1561
     61  C        107.0130   83.7550   20.3350 C.2   196  LYS196      0.2260
     62  O        106.6000   84.3380   19.3780 O.2   196  LYS196     -0.2867
     63  CB       105.0550   82.2690   20.9530 C.3   196  LYS196      0.0271
     64  CG       104.5850   80.8330   20.9100 C.3   196  LYS196      0.0035
     65  CD       104.3670   80.4270   19.4520 C.3   196  LYS196      0.0206
     66  CE       103.9880   78.9970   19.4050 C.3   196  LYS196      0.1093
     67  NZ       103.6330   78.7090   18.0000 N.3   196  LYS196     -0.1314
     68  N         95.7790   87.4630   20.7820 N.3   215  TRP215     -0.1227
     69  CA        94.9460   86.3590   21.2670 C.3   215  TRP215      0.1737
     70  C         95.8280   85.2220   21.7070 C.2   215  TRP215      0.2596
     71  O         96.7990   84.8900   21.0030 O.2   215  TRP215     -0.2718
     72  CB        94.0880   85.8370   20.1020 C.3   215  TRP215      0.0564
     73  CG        92.9640   86.8130   19.6010 C.ar  215  TRP215      0.0003
     74  CD1       91.6150   86.7570   19.9540 C.ar  215  TRP215      0.0946
     75  CD2       93.0700   87.8920   18.6690 C.ar  215  TRP215      0.0152
     76  NE1       90.9190   87.7580   19.2810 N.ar  215  TRP215     -0.2442
     77  CE2       91.7920   88.4530   18.5090 C.ar  215  TRP215      0.0810
     78  CE3       94.1370   88.4600   17.9510 C.ar  215  TRP215      0.0012
     79  CZ2       91.5750   89.5670   17.7050 C.ar  215  TRP215      0.0191
     80  CZ3       93.9120   89.5370   17.1650 C.ar  215  TRP215      0.0001
     81  CH2       92.6420   90.0710   17.0240 C.ar  215  TRP215      0.0015
     82  N         95.4880   84.5560   22.7850 N.am  216  GLY216     -0.1957
     83  CA        96.2260   83.3530   23.1560 C.3   216  GLY216      0.1869
     84  C         96.0040   82.9240   24.5610 C.2   216  GLY216      0.2309
     85  O         95.5530   83.6880   25.4190 O.2   216  GLY216     -0.2863
     86  N         91.7160   84.2600   25.2500 N.3   241  PHE241     -0.1227
     87  CA        91.7600   83.0060   24.4910 C.3   241  PHE241      0.1736
     88  C         90.3340   82.6970   24.1140 C.2   241  PHE241      0.2595
     89  O         89.4420   82.5850   25.0120 O.2   241  PHE241     -0.2718
     90  CB        92.3580   81.8780   25.3100 C.3   241  PHE241      0.0547
     91  CG        92.3900   80.5940   24.5700 C.ar  241  PHE241     -0.0202
     92  CD1       93.3080   80.3960   23.5410 C.ar  241  PHE241     -0.0042
     93  CD2       91.4290   79.6410   24.8000 C.ar  241  PHE241     -0.0042
     94  CE1       93.2990   79.2430   22.8280 C.ar  241  PHE241     -0.0003
     95  CE2       91.3800   78.5210   24.0360 C.ar  241  PHE241     -0.0003
     96  CZ        92.3200   78.2950   23.0780 C.ar  241  PHE241     -0.0000
     97  N         90.0750   82.5740   22.8350 N.am  242  VAL242     -0.1980
     98  CA        88.7160   82.5340   22.3280 C.3   242  VAL242      0.1595
     99  C         88.4670   81.4100   21.4030 C.2   242  VAL242      0.2287
    100  O         89.3960   80.7920   20.8630 O.2   242  VAL242     -0.2864
    101  CB        88.3320   83.9070   21.6890 C.3   242  VAL242      0.0276
    102  CG1       88.5850   85.0320   22.7060 C.3   242  VAL242      0.0022
    103  CG2       89.0640   84.1480   20.3820 C.3   242  VAL242      0.0022
    104  N         87.1670   79.4200   17.9520 N.3   244  THR244     -0.1218
    105  CA        87.4690   79.6140   16.5180 C.3   244  THR244      0.1862
    106  C         86.5840   80.7080   15.8790 C.2   244  THR244      0.2287
    107  O         87.0640   81.5740   15.1770 O.2   244  THR244     -0.2866
    108  CB        87.3560   78.3340   15.7380 C.3   244  THR244      0.1770
    109  OG1       88.3610   77.4350   16.1970 O.3   244  THR244     -0.2211
    110  CG2       87.4700   78.5490   14.2630 C.3   244  THR244      0.0375
    111  N         87.6980   84.0090   17.2150 N.3   247  LEU247     -0.1245
    112  CA        89.0700   84.2750   16.6360 C.3   247  LEU247      0.1561
    113  C         88.9960   84.7700   15.2180 C.2   247  LEU247      0.2260
    114  O         89.6110   85.7790   14.9040 O.2   247  LEU247     -0.2867
    115  CB        89.9990   83.0700   16.8290 C.3   247  LEU247      0.0270
    116  CG        91.4310   83.3260   16.3540 C.3   247  LEU247      0.0019
    117  CD1       92.1270   84.3590   17.2400 C.3   247  LEU247      0.0001
    118  CD2       92.1520   81.9930   16.3060 C.3   247  LEU247      0.0001
    119  N        111.6580   79.7510   18.6480 N.3   262  TRP262     -0.1241
    120  CA       111.9610   78.4430   18.0760 C.3   262  TRP262      0.1605
    121  C        111.7190   78.3100   16.5910 C.2   262  TRP262      0.2264
    122  O        111.3090   79.2500   15.9620 O.2   262  TRP262     -0.2867
    123  CB       111.2200   77.3190   18.8370 C.3   262  TRP262      0.0550
    124  CG       109.7120   77.3120   18.6380 C.ar  262  TRP262      0.0003
    125  CD1      108.9360   78.1300   17.8260 C.ar  262  TRP262      0.0946
    126  CD2      108.8290   76.3830   19.2360 C.ar  262  TRP262      0.0152
    127  NE1      107.5910   77.7890   17.9660 N.ar  262  TRP262     -0.2442
    128  CE2      107.5090   76.7000   18.8060 C.ar  262  TRP262      0.0810
    129  CE3      109.0270   75.3090   20.0950 C.ar  262  TRP262      0.0012
    130  CZ2      106.4050   75.9570   19.1970 C.ar  262  TRP262      0.0191
    131  CZ3      107.9250   74.6140   20.5260 C.ar  262  TRP262      0.0001
    132  CH2      106.6260   74.9130   20.0270 C.ar  262  TRP262      0.0015
    133  N        109.3170   77.0250   14.1220 N.3   264  GLU264     -0.1245
    134  CA       107.9390   76.6590   14.0960 C.3   264  GLU264      0.1567
    135  C        107.7610   75.4360   13.1850 C.2   264  GLU264      0.2260
    136  O        108.2020   75.4610   12.0430 O.2   264  GLU264     -0.2867
    137  CB       107.1560   77.8830   13.5520 C.3   264  GLU264      0.0388
    138  CG       105.7080   78.0050   13.9080 C.3   264  GLU264      0.1160
    139  CD       105.4140   77.9840   15.4090 C.2   264  GLU264      0.3649
    140  OE1      105.7160   78.9190   16.2160 O.co2 264  GLU264     -0.2457
    141  OE2      104.7690   76.9830   15.7840 O.co2 264  GLU264     -0.2457
    142  N        102.4120   76.0760   12.2040 N.3   267  GLY267     -0.1210
    143  CA       101.9040   77.3840   12.5750 C.3   267  GLY267      0.1956
    144  C        100.4920   77.5490   12.0670 C.2   267  GLY267      0.2612
    145  O        100.2610   78.2240   11.0440 O.2   267  GLY267     -0.2717
    146  N         99.5450   76.8840   12.7330 N.am  268  ASN268     -0.1960
    147  CA        98.1200   76.9280   12.3270 C.3   268  ASN268      0.1819
    148  C         97.6620   78.3480   12.1710 C.2   268  ASN268      0.2621
    149  O         96.8310   78.6480   11.3240 O.2   268  ASN268     -0.2715
    150  CB        97.1550   76.3010   13.3840 C.3   268  ASN268      0.1195
    151  CG        97.2600   74.7780   13.4460 C.2   268  ASN268      0.2630
    152  OD1       98.0070   74.1700   12.6820 O.2   268  ASN268     -0.2716
    153  ND2       96.5420   74.1630   14.3660 N.am  268  ASN268     -0.0877
    154  N         98.1280   79.2200   13.0530 N.am  269  VAL269     -0.1977
    155  CA        97.6260   80.5910   12.9960 C.3   269  VAL269      0.1596
    156  C         97.9190   81.2700   11.6550 C.2   269  VAL269      0.2287
    157  O         97.1710   82.1400   11.2350 O.2   269  VAL269     -0.2864
    158  CB        98.1340   81.4440   14.1730 C.3   269  VAL269      0.0276
    159  CG1       97.6430   80.8880   15.4810 C.3   269  VAL269      0.0022
    160  CG2       99.6470   81.6320   14.0980 C.3   269  VAL269      0.0022
    161  N         95.0390   80.1910    9.3790 N.3   272  GLU272     -0.1245
    162  CA        93.8390   80.8500    9.8620 C.3   272  GLU272      0.1567
    163  C         93.7830   82.3120    9.4040 C.2   272  GLU272      0.2260
    164  O         92.7350   82.8160    8.9220 O.2   272  GLU272     -0.2867
    165  CB        93.6810   80.7640   11.3730 C.3   272  GLU272      0.0388
    166  CG        93.4030   79.3290   11.8090 C.3   272  GLU272      0.1160
    167  CD        93.0520   79.2010   13.2550 C.2   272  GLU272      0.3649
    168  OE1       91.8680   78.9570   13.6130 O.co2 272  GLU272     -0.2457
    169  OE2       93.9410   79.4480   14.0450 O.co2 272  GLU272     -0.2457
@<TRIPOS>BOND
     1   164   163    2
     2   161   162    1
     3   163   162    1
     4   162   165    1
     5   145   144    2
     6   157   156    2
     7   149   148    2
     8   165   166    1
     9   156   155    1
    10   166   167    1
    11   136   135    2
    12   144   143    1
    13   144   146   am
    14   148   147    1
    15   148   154   am
    16   142   143    1
    17   147   146    1
    18   147   150    1
    19   152   151    2
    20   155   154    1
    21   155   158    1
    22   135   134    1
    23   167   168   ar
    24   167   169   ar
    25   150   151    1
    26   151   153   am
    27   137   138    1
    28   137   134    1
    29    36    34    1
    30   138   139    1
    31   134   133    1
    32   160   158    1
    33   158   159    1
    34   110   108    1
    35    34    35    1
    36    34    33    1
    37    32    31    2
    38   114   113    2
    39    31    30    1
    40   107   106    2
    41   113   112    1
    42   139   141   ar
    43   139   140   ar
    44    33    30    1
    45   108   109    1
    46   108   105    1
    47   106   105    1
    48   122   121    2
    49    30    29    1
    50   118   116    1
    51   116   115    1
    52   116   117    1
    53    43    41    1
    54   105   104    1
    55   121   120    1
    56    12    11    2
    57   112   115    1
    58   112   111    1
    59    41    42    1
    60    41    38    1
    61    81    80   ar
    62    81    79   ar
    63    80    78   ar
    64    37    38    1
    65    29    22   am
    66    11    10    1
    67    11    13   am
    68    10     9    1
    69    40    39    2
    70    79    77   ar
    71   125   127   ar
    72   125   124   ar
    73    38    39    1
    74    78    75   ar
    75   127   128   ar
    76    67    66    1
    77    16    15    2
    78   120   119    1
    79   120   123    1
    80    13    14    1
    81    14    15    1
    82    14    17    1
    83    39    44   am
    84    22    23    2
    85    22    21    1
    86    77    75   ar
    87    77    76   ar
    88    15    20   am
    89   124   123    1
    90   124   126   ar
    91    75    73   ar
    92     9     7   am
    93   128   130   ar
    94   128   126   ar
    95    19    17    1
    96   130   132   ar
    97   126   129   ar
    98    76    74   ar
    99    20    21    1
   100    17    18    1
   101    62    61    2
   102    66    65    1
   103    65    64    1
   104    44    45    1
   105    73    74   ar
   106    73    72    1
   107    21    24    1
   108     7     8    2
   109     7     6    1
   110   132   131   ar
   111    45    46    1
   112   129   131   ar
   113    72    69    1
   114    61    60    1
   115   103   101    1
   116    60    63    1
   117    60    59    1
   118    24    25    1
   119    68    69    1
   120   100    99    2
   121    64    63    1
   122    71    70    2
   123     6     5    1
   124    69    70    1
   125    99    98    1
   126     4     3    2
   127    46    48   am
   128    46    47    2
   129    58    56    1
   130   101    98    1
   131   101   102    1
   132    70    82   am
   133    48    49    1
   134    25    26    1
   135    98    97    1
   136     5     3   am
   137     3     2    1
   138    55    56    2
   139    55    54    1
   140    56    57    1
   141    82    83    1
   142    94    96   ar
   143    94    92   ar
   144    97    88   am
   145    96    95   ar
   146    83    84    1
   147    51    50    2
   148    27    26   ar
   149    26    28   ar
   150    53    54    1
   151    53    52    1
   152    49    52    1
   153    49    50    1
   154    92    91   ar
   155     2     1    1
   156    95    93   ar
   157    88    87    1
   158    88    89    2
   159    87    86    1
   160    87    90    1
   161    84    85    2
   162    91    93   ar
   163    91    90    1
