@<TRIPOS>MOLECULE
tmp/5zg0D00.pdb
 92 88 0 0 0
SMALL
GASTEIGER

@<TRIPOS>ATOM
      1  N         26.0130    8.3490   33.7460 N.3    92  ILE92      -0.1245
      2  CA        26.9400    8.0560   34.8260 C.3    92  ILE92       0.1561
      3  C         28.2230    8.8760   34.6190 C.2    92  ILE92       0.2260
      4  O         28.9340    8.7170   33.6180 O.2    92  ILE92      -0.2867
      5  CB        27.2540    6.5300   34.8940 C.3    92  ILE92       0.0252
      6  CG1       25.9650    5.7510   35.1770 C.3    92  ILE92       0.0019
      7  CG2       28.3480    6.2430   35.9380 C.3    92  ILE92       0.0019
      8  CD1       26.0080    4.2700   34.8040 C.3    92  ILE92       0.0001
      9  N         24.7300   -0.2450   38.0580 N.3   104  LYS104     -0.1231
     10  CA        25.3990   -0.5740   36.8090 C.3   104  LYS104      0.1678
     11  C         24.5430   -0.0300   35.6600 C.2   104  LYS104      0.2434
     12  O         23.3220    0.1050   35.8010 O.2   104  LYS104     -0.2733
     13  CB        25.5280   -2.1060   36.6620 C.3   104  LYS104      0.0284
     14  CG        26.5350   -2.7550   37.5990 C.3   104  LYS104      0.0035
     15  CD        27.9390   -2.2360   37.3080 C.3   104  LYS104      0.0206
     16  CE        28.9900   -2.9240   38.1810 C.3   104  LYS104      0.1093
     17  NZ        28.8640   -2.6090   39.6310 N.3   104  LYS104     -0.1314
     18  N         25.1620    0.2870   34.5200 N.am  105  PRO105     -0.2718
     19  CA        24.3960    0.9180   33.4400 C.3   105  PRO105      0.1535
     20  C         23.3560   -0.0000   32.8190 C.2   105  PRO105      0.2599
     21  O         23.5330   -1.2400   32.8020 O.2   105  PRO105     -0.2715
     22  CB        25.4500    1.2860   32.3960 C.3   105  PRO105      0.0310
     23  CG        26.7020    0.5760   32.7910 C.3   105  PRO105      0.0237
     24  CD        26.6110    0.2840   34.2600 C.3   105  PRO105      0.0939
     25  N         22.2680    0.5970   32.3470 N.am  106  PHE106     -0.1960
     26  CA        21.2680   -0.1810   31.6180 C.3   106  PHE106      0.1771
     27  C         21.2870    0.0660   30.1170 C.2   106  PHE106      0.2619
     28  O         20.5790   -0.6050   29.3830 O.2   106  PHE106     -0.2715
     29  CB        19.8490    0.0620   32.1860 C.3   106  PHE106      0.0574
     30  CG        19.3960    1.5140   32.1420 C.ar  106  PHE106     -0.0200
     31  CD1       18.8000    2.0410   30.9910 C.ar  106  PHE106     -0.0042
     32  CD2       19.5350    2.3460   33.2600 C.ar  106  PHE106     -0.0042
     33  CE1       18.3550    3.3690   30.9470 C.ar  106  PHE106     -0.0003
     34  CE2       19.0910    3.6760   33.2250 C.ar  106  PHE106     -0.0003
     35  CZ        18.5010    4.1860   32.0600 C.ar  106  PHE106     -0.0000
     36  N         22.0760    1.0460   29.6660 N.am  107  MET107     -0.1963
     37  CA        22.1550    1.3700   28.2430 C.3   107  MET107      0.1736
     38  C         23.5060    2.0150   27.9690 C.2   107  MET107      0.2617
     39  O         24.0100    2.7710   28.8020 O.2   107  MET107     -0.2715
     40  CB        21.0200    2.3300   27.8410 C.3   107  MET107      0.0427
     41  CG        20.8020    2.4640   26.3420 C.3   107  MET107      0.0599
     42  SD        19.3190    3.4240   26.0040 S.3   107  MET107     -0.1393
     43  CE        18.0470    2.1960   26.1230 C.3   107  MET107      0.0692
     44  N         24.1100    1.6660   26.8350 N.am  108  SER108     -0.1950
     45  CA        25.3430    2.3020   26.3930 C.3   108  SER108      0.1924
     46  C         25.0000    3.4660   25.4400 C.2   108  SER108      0.2314
     47  O         23.9580    3.4560   24.7530 O.2   108  SER108     -0.2863
     48  CB        26.2560    1.2740   25.7000 C.3   108  SER108      0.2116
     49  OG        25.6300    0.8370   24.5160 O.3   108  SER108     -0.2180
     50  N         32.2940    6.9620   25.0750 N.3   217  SER217     -0.1202
     51  CA        31.5310    5.7670   25.4190 C.3   217  SER217      0.2020
     52  C         31.1870    5.7990   26.8950 C.2   217  SER217      0.2619
     53  O         32.0630    5.9200   27.7370 O.2   217  SER217     -0.2717
     54  CB        32.3780    4.5180   25.1460 C.3   217  SER217      0.2103
     55  OG        32.6630    4.4100   23.7710 O.3   217  SER217     -0.2182
     56  N         29.9000    5.7110   27.2140 N.am  218  LYS218     -0.1965
     57  CA        29.4810    5.6910   28.6210 C.3   218  LYS218      0.1728
     58  C         28.1100    5.0590   28.7440 C.2   218  LYS218      0.2616
     59  O         27.6340    4.4590   27.7840 O.2   218  LYS218     -0.2715
     60  CB        29.5200    7.0880   29.2240 C.3   218  LYS218      0.0311
     61  CG        28.6430    8.0760   28.4900 C.3   218  LYS218      0.0038
     62  CD        29.3280    9.4150   28.4190 C.3   218  LYS218      0.0206
     63  CE        28.4400   10.3930   27.6580 C.3   218  LYS218      0.1093
     64  NZ        29.0870   11.7300   27.7170 N.3   218  LYS218     -0.1314
     65  N         27.5070    5.1840   29.9280 N.am  219  GLY219     -0.1955
     66  CA        26.2400    4.5100   30.1840 C.3   219  GLY219      0.1869
     67  C         25.2730    5.3850   30.9600 C.2   219  GLY219      0.2309
     68  O         25.6960    6.3530   31.6040 O.2   219  GLY219     -0.2863
     69  N         20.9750   -5.6580   36.6790 N.3   239  LEU239     -0.1245
     70  CA        21.7270   -6.7660   36.0930 C.3   239  LEU239      0.1561
     71  C         20.8090   -7.9260   35.6890 C.2   239  LEU239      0.2260
     72  O         20.9920   -8.4760   34.5890 O.2   239  LEU239     -0.2867
     73  CB        22.8380   -7.2330   37.0370 C.3   239  LEU239      0.0270
     74  CG        23.9330   -6.1870   37.2830 C.3   239  LEU239      0.0019
     75  CD1       24.9040   -6.8310   38.2560 C.3   239  LEU239      0.0001
     76  CD2       24.6920   -5.7860   36.0280 C.3   239  LEU239      0.0001
     77  N         19.0580   -7.0880   32.4180 N.3   242  ASN242     -0.1240
     78  CA        19.8640   -7.2270   31.2060 C.3   242  ASN242      0.1653
     79  C         19.9870   -8.6670   30.7150 C.2   242  ASN242      0.2266
     80  O         19.8480   -8.9720   29.5160 O.2   242  ASN242     -0.2867
     81  CB        21.2570   -6.6390   31.3820 C.3   242  ASN242      0.1155
     82  CG        21.9870   -6.5330   30.0660 C.2   242  ASN242      0.2627
     83  OD1       21.3730   -6.3790   29.0010 O.2   242  ASN242     -0.2716
     84  ND2       23.2960   -6.6630   30.1180 N.am  242  ASN242     -0.0877
     85  N         16.1800   -5.6540   28.7800 N.3   247  LEU247     -0.1245
     86  CA        16.6640   -4.3610   28.2650 C.3   247  LEU247      0.1561
     87  C         16.7340   -4.3150   26.7310 C.2   247  LEU247      0.2260
     88  O         16.3720   -3.3140   26.1100 O.2   247  LEU247     -0.2867
     89  CB        18.0120   -3.9760   28.9040 C.3   247  LEU247      0.0270
     90  CG        18.0370   -3.8910   30.4390 C.3   247  LEU247      0.0019
     91  CD1       19.4430   -3.5580   30.9400 C.3   247  LEU247      0.0001
     92  CD2       17.0330   -2.8800   30.9800 C.3   247  LEU247      0.0001
@<TRIPOS>BOND
     1    55    54    1
     2    49    48    1
     3    47    46    2
     4    50    51    1
     5    54    51    1
     6    51    52    1
     7    46    45    1
     8    48    45    1
     9    42    43    1
    10    42    41    1
    11    88    87    2
    12    41    40    1
    13    45    44    1
    14    87    86    1
    15    44    38   am
    16    52    56   am
    17    52    53    2
    18    56    57    1
    19    63    64    1
    20    63    62    1
    21    59    58    2
    22    40    37    1
    23    38    37    1
    24    38    39    2
    25    37    36    1
    26    86    85    1
    27    86    89    1
    28    62    61    1
    29    61    60    1
    30    57    58    1
    31    57    60    1
    32    58    65   am
    33    89    90    1
    34    83    82    2
    35    28    27    2
    36    80    79    2
    37    36    27   am
    38    65    66    1
    39    82    84   am
    40    82    81    1
    41    27    26    1
    42    66    67    1
    43    90    91    1
    44    90    92    1
    45    79    78    1
    46    33    31   ar
    47    33    35   ar
    48    67    68    2
    49    31    30   ar
    50    78    81    1
    51    78    77    1
    52    26    29    1
    53    26    25    1
    54    35    34   ar
    55    30    29    1
    56    30    32   ar
    57    25    20   am
    58    22    23    1
    59    22    19    1
    60    23    24    1
    61    21    20    2
    62    20    19    1
    63    34    32   ar
    64    19    18    1
    65     4     3    2
    66     1     2    1
    67    24    18    1
    68    18    11   am
    69    72    71    2
    70     3     2    1
    71     8     6    1
    72     2     5    1
    73     5     6    1
    74     5     7    1
    75    11    12    2
    76    11    10    1
    77    71    70    1
    78    76    74    1
    79    70    69    1
    80    70    73    1
    81    13    10    1
    82    13    14    1
    83    10     9    1
    84    73    74    1
    85    74    75    1
    86    15    14    1
    87    15    16    1
    88    16    17    1
