@<TRIPOS>MOLECULE
tmp/5zg2A01.pdb
 75 72 0 0 0
SMALL
GASTEIGER

@<TRIPOS>ATOM
      1  N         -2.7270   -5.8440  -25.5540 N.3    89  ILE89      -0.1245
      2  CA        -1.6660   -6.6830  -26.1240 C.3    89  ILE89       0.1561
      3  C         -1.7750   -6.6460  -27.6510 C.2    89  ILE89       0.2260
      4  O         -2.7990   -7.0780  -28.2110 O.2    89  ILE89      -0.2867
      5  CB        -1.7800   -8.1210  -25.5740 C.3    89  ILE89       0.0252
      6  CG1       -1.5650   -8.1240  -24.0330 C.3    89  ILE89       0.0019
      7  CG2       -0.7960   -9.0570  -26.2700 C.3    89  ILE89       0.0019
      8  CD1       -2.0330   -9.3930  -23.3370 C.3    89  ILE89       0.0001
      9  N         -2.7120  -12.1030  -20.4540 N.3   102  PRO102     -0.2102
     10  CA        -3.7460  -11.0880  -20.2040 C.3   102  PRO102      0.1504
     11  C         -4.4060  -11.2570  -18.8540 C.2   102  PRO102      0.2576
     12  O         -4.5810  -12.3920  -18.3700 O.2   102  PRO102     -0.2718
     13  CB        -4.7660  -11.3040  -21.3320 C.3   102  PRO102      0.0282
     14  CG        -4.4360  -12.6320  -21.8990 C.3   102  PRO102      0.0208
     15  CD        -2.9850  -12.8920  -21.6750 C.3   102  PRO102      0.0893
     16  N         -4.7820  -10.1510  -18.2410 N.am  103  PHE103     -0.1963
     17  CA        -5.5550  -10.1610  -17.0130 C.3   103  PHE103      0.1771
     18  C         -7.0340   -9.8790  -17.2340 C.2   103  PHE103      0.2619
     19  O         -7.8250  -10.0580  -16.3130 O.2   103  PHE103     -0.2715
     20  CB        -4.9320   -9.2130  -15.9480 C.3   103  PHE103      0.0574
     21  CG        -4.9170   -7.7420  -16.3390 C.ar  103  PHE103     -0.0200
     22  CD1       -6.0570   -6.9390  -16.1860 C.ar  103  PHE103     -0.0042
     23  CD2       -3.7370   -7.1400  -16.8170 C.ar  103  PHE103     -0.0042
     24  CE1       -6.0440   -5.6040  -16.5440 C.ar  103  PHE103     -0.0003
     25  CE2       -3.7300   -5.8110  -17.1490 C.ar  103  PHE103     -0.0003
     26  CZ        -4.8610   -5.0440  -16.9910 C.ar  103  PHE103     -0.0000
     27  N         -7.4140   -9.4400  -18.4330 N.am  104  MET104     -0.1963
     28  CA        -8.8210   -9.1050  -18.7320 C.3   104  MET104      0.1736
     29  C         -9.0220   -9.2370  -20.2180 C.2   104  MET104      0.2617
     30  O         -8.1490   -8.8820  -21.0040 O.2   104  MET104     -0.2715
     31  CB        -9.1500   -7.6760  -18.2810 C.3   104  MET104      0.0427
     32  CG       -10.6260   -7.2850  -18.3830 C.3   104  MET104      0.0599
     33  SD       -11.0000   -5.6490  -17.7580 S.3   104  MET104     -0.1393
     34  CE       -10.5210   -5.8080  -16.0400 C.3   104  MET104      0.0692
     35  N        -10.1860   -9.7470  -20.6280 N.am  105  SER105     -0.1950
     36  CA       -10.5600   -9.7790  -22.0330 C.3   105  SER105      0.1924
     37  C        -11.3980   -8.5780  -22.4540 C.2   105  SER105      0.2314
     38  O        -12.0560   -7.9220  -21.6240 O.2   105  SER105     -0.2863
     39  CB       -11.2970  -11.0650  -22.3360 C.3   105  SER105      0.2116
     40  OG       -12.4750  -11.0720  -21.6140 O.3   105  SER105     -0.2180
     41  N        -11.5150  -10.0730  -30.4280 N.3   214  SER214     -0.1202
     42  CA       -11.1240  -10.6000  -29.1140 C.3   214  SER214      0.2020
     43  C         -9.7070  -10.1860  -28.8440 C.2   214  SER214      0.2619
     44  O         -8.7990  -10.5640  -29.5770 O.2   214  SER214     -0.2717
     45  CB       -11.2340  -12.1100  -29.0770 C.3   214  SER214      0.2103
     46  OG       -12.5810  -12.5220  -29.1610 O.3   214  SER214     -0.2182
     47  N         -9.5070   -9.4250  -27.7740 N.am  215  LYS215     -0.1965
     48  CA        -8.1980   -8.9270  -27.3800 C.3   215  LYS215      0.1728
     49  C         -8.0930   -9.0800  -25.8660 C.2   215  LYS215      0.2616
     50  O         -9.0150   -9.4970  -25.1840 O.2   215  LYS215     -0.2715
     51  CB        -8.0500   -7.4330  -27.7890 C.3   215  LYS215      0.0311
     52  CG        -8.1580   -7.1400  -29.2920 C.3   215  LYS215      0.0038
     53  CD        -7.0090   -7.8060  -30.0130 C.3   215  LYS215      0.0206
     54  CE        -7.0730   -7.6140  -31.5180 C.3   215  LYS215      0.1093
     55  NZ        -6.3770   -6.3440  -31.8920 N.3   215  LYS215     -0.1314
     56  N         -6.9290   -8.7050  -25.3470 N.am  216  GLY216     -0.1955
     57  CA        -6.6860   -8.7500  -23.9050 C.3   216  GLY216      0.1869
     58  C         -5.8090   -7.5920  -23.4640 C.2   216  GLY216      0.2309
     59  O         -5.0190   -7.0560  -24.2640 O.2   216  GLY216     -0.2863
     60  N         -5.4300  -14.9790  -11.1950 N.3   239  ASN239     -0.1240
     61  CA        -6.6100  -15.5220  -11.8490 C.3   239  ASN239      0.1653
     62  C         -7.0730  -16.8100  -11.1820 C.2   239  ASN239      0.2266
     63  O         -8.2800  -16.9640  -10.9350 O.2   239  ASN239     -0.2867
     64  CB        -6.3770  -15.7400  -13.3400 C.3   239  ASN239      0.1155
     65  CG        -7.6840  -15.8620  -14.1070 C.2   239  ASN239      0.2627
     66  OD1       -8.6720  -15.1880  -13.7950 O.2   239  ASN239     -0.2716
     67  ND2       -7.6880  -16.7070  -15.1390 N.am  239  ASN239     -0.0877
     68  N         -8.9650  -11.7690  -10.0250 N.3   244  LEU244     -0.1245
     69  CA        -9.2760  -10.9190  -11.1910 C.3   244  LEU244      0.1561
     70  C        -10.7920  -10.7690  -11.3880 C.2   244  LEU244      0.2260
     71  O        -11.2790   -9.6580  -11.6050 O.2   244  LEU244     -0.2867
     72  CB        -8.5810  -11.4490  -12.4350 C.3   244  LEU244      0.0270
     73  CG        -7.0480  -11.5400  -12.3220 C.3   244  LEU244      0.0019
     74  CD1       -6.4760  -12.0480  -13.6390 C.3   244  LEU244      0.0001
     75  CD2       -6.3840  -10.2150  -11.9390 C.3   244  LEU244      0.0001
@<TRIPOS>BOND
     1    55    54    1
     2    54    53    1
     3    41    42    1
     4    53    52    1
     5    44    43    2
     6    52    51    1
     7    46    45    1
     8    42    45    1
     9    42    43    1
    10    43    47   am
    11     4     3    2
    12    51    48    1
    13    47    48    1
    14     3     2    1
    15    48    49    1
    16     7     5    1
    17     2     5    1
    18     2     1    1
    19    49    56   am
    20    49    50    2
    21     5     6    1
    22    56    57    1
    23    59    58    2
    24     6     8    1
    25    57    58    1
    26    37    36    1
    27    37    38    2
    28    39    36    1
    29    39    40    1
    30    36    35    1
    31    14    15    1
    32    14    13    1
    33    15     9    1
    34    13    10    1
    35    30    29    2
    36    35    29   am
    37     9    10    1
    38    29    28    1
    39    10    11    1
    40    11    12    2
    41    11    16   am
    42    28    27    1
    43    28    31    1
    44    27    18   am
    45    32    31    1
    46    32    33    1
    47    16    17    1
    48    33    34    1
    49    18    17    1
    50    18    19    2
    51    25    26   ar
    52    25    23   ar
    53    17    20    1
    54    26    24   ar
    55    23    21   ar
    56    24    22   ar
    57    21    22   ar
    58    21    20    1
    59    67    65   am
    60    65    66    2
    61    65    64    1
    62    74    73    1
    63    64    61    1
    64    72    73    1
    65    72    69    1
    66    73    75    1
    67    61    60    1
    68    61    62    1
    69    71    70    2
    70    70    69    1
    71    69    68    1
    72    62    63    2
