@<TRIPOS>MOLECULE
tmp/5zg3C01.pdb
 83 80 0 0 0
SMALL
GASTEIGER

@<TRIPOS>ATOM
      1  N         30.9110   -8.2830   33.7850 N.3    90  ILE90      -0.1245
      2  CA        29.9960   -7.9990   34.8670 C.3    90  ILE90       0.1561
      3  C         28.7260   -8.8360   34.6500 C.2    90  ILE90       0.2260
      4  O         28.0560   -8.7190   33.6170 O.2    90  ILE90      -0.2867
      5  CB        29.6590   -6.4830   34.8960 C.3    90  ILE90       0.0252
      6  CG1       30.9320   -5.6920   35.1970 C.3    90  ILE90       0.0019
      7  CG2       28.5490   -6.1800   35.9120 C.3    90  ILE90       0.0019
      8  CD1       30.8650   -4.2280   34.8010 C.3    90  ILE90       0.0001
      9  N         31.7700   -0.2480   34.4730 N.3   103  PRO103     -0.2102
     10  CA        32.5380   -0.8630   33.3720 C.3   103  PRO103      0.1504
     11  C         33.5940    0.0410   32.7700 C.2   103  PRO103      0.2576
     12  O         33.4390    1.2880   32.7410 O.2   103  PRO103     -0.2718
     13  CB        31.4780   -1.2000   32.3220 C.3   103  PRO103      0.0282
     14  CG        30.2480   -0.4860   32.7460 C.3   103  PRO103      0.0208
     15  CD        30.3210   -0.2510   34.2150 C.3   103  PRO103      0.0893
     16  N         34.6740   -0.5780   32.2960 N.am  104  PHE104     -0.1963
     17  CA        35.7210    0.1840   31.6120 C.3   104  PHE104      0.1771
     18  C         35.7260   -0.0850   30.1130 C.2   104  PHE104      0.2619
     19  O         36.4810    0.5300   29.3760 O.2   104  PHE104     -0.2715
     20  CB        37.1120   -0.0780   32.2240 C.3   104  PHE104      0.0574
     21  CG        37.5580   -1.5250   32.1750 C.ar  104  PHE104     -0.0200
     22  CD1       38.1780   -2.0500   31.0310 C.ar  104  PHE104     -0.0042
     23  CD2       37.3930   -2.3400   33.2830 C.ar  104  PHE104     -0.0042
     24  CE1       38.6310   -3.3760   31.0120 C.ar  104  PHE104     -0.0003
     25  CE2       37.8270   -3.6680   33.2640 C.ar  104  PHE104     -0.0003
     26  CZ        38.4470   -4.1790   32.1280 C.ar  104  PHE104     -0.0000
     27  N         34.8870   -1.0110   29.6600 N.am  105  MET105     -0.1963
     28  CA        34.8270   -1.3230   28.2230 C.3   105  MET105      0.1736
     29  C         33.4750   -1.9580   27.9590 C.2   105  MET105      0.2617
     30  O         32.9540   -2.6820   28.7980 O.2   105  MET105     -0.2715
     31  CB        35.9550   -2.3110   27.8360 C.3   105  MET105      0.0427
     32  CG        36.2260   -2.4370   26.3340 C.3   105  MET105      0.0599
     33  SD        37.6190   -3.5330   26.0110 S.3   105  MET105     -0.1393
     34  CE        39.0150   -2.4630   26.2430 C.3   105  MET105      0.0692
     35  N         32.9010   -1.6470   26.7970 N.am  106  SER106     -0.1950
     36  CA        31.6720   -2.2940   26.3470 C.3   106  SER106      0.1924
     37  C         31.9840   -3.4610   25.3830 C.2   106  SER106      0.2314
     38  O         33.0020   -3.4730   24.6770 O.2   106  SER106     -0.2863
     39  CB        30.7720   -1.2500   25.6740 C.3   106  SER106      0.2116
     40  OG        31.4060   -0.7940   24.4950 O.3   106  SER106     -0.2180
     41  N         24.6530   -6.9470   25.0860 N.3   215  SER215     -0.1202
     42  CA        25.4200   -5.7320   25.3850 C.3   215  SER215      0.2020
     43  C         25.7450   -5.7520   26.8540 C.2   215  SER215      0.2619
     44  O         24.8530   -5.8800   27.7000 O.2   215  SER215     -0.2717
     45  CB        24.5710   -4.4870   25.0850 C.3   215  SER215      0.2103
     46  OG        24.2750   -4.3830   23.7100 O.3   215  SER215     -0.2182
     47  N         27.0310   -5.6400   27.1640 N.am  216  LYS216     -0.1965
     48  CA        27.4540   -5.6550   28.5690 C.3   216  LYS216      0.1728
     49  C         28.8390   -5.0410   28.7030 C.2   216  LYS216      0.2616
     50  O         29.3420   -4.4300   27.7590 O.2   216  LYS216     -0.2715
     51  CB        27.3950   -7.0670   29.1320 C.3   216  LYS216      0.0311
     52  CG        28.3020   -8.0310   28.4090 C.3   216  LYS216      0.0038
     53  CD        27.6070   -9.3680   28.3740 C.3   216  LYS216      0.0206
     54  CE        28.4940  -10.3930   27.6990 C.3   216  LYS216      0.1093
     55  NZ        27.7770  -11.7000   27.7340 N.3   216  LYS216     -0.1314
     56  N         29.4150   -5.1330   29.9010 N.am  217  GLY217     -0.1955
     57  CA        30.7370   -4.5300   30.0990 C.3   217  GLY217      0.1869
     58  C         31.6950   -5.3750   30.9160 C.2   217  GLY217      0.2309
     59  O         31.2720   -6.3200   31.5850 O.2   217  GLY217     -0.2863
     60  N         37.8870    7.0720   32.3040 N.3   240  ASN240     -0.1240
     61  CA        37.0500    7.2020   31.1160 C.3   240  ASN240      0.1653
     62  C         36.9170    8.6420   30.6510 C.2   240  ASN240      0.2266
     63  O         37.0650    8.9460   29.4550 O.2   240  ASN240     -0.2867
     64  CB        35.6620    6.5830   31.3230 C.3   240  ASN240      0.1155
     65  CG        34.8770    6.4840   30.0260 C.2   240  ASN240      0.2627
     66  OD1       35.4180    6.1420   28.9610 O.2   240  ASN240     -0.2716
     67  ND2       33.5880    6.7740   30.1090 N.am  240  ASN240     -0.0877
     68  N         40.8180    5.5500   28.6760 N.3   245  LEU245     -0.1231
     69  CA        40.3390    4.2490   28.1970 C.3   245  LEU245      0.1693
     70  C         40.2740    4.1850   26.6650 C.2   245  LEU245      0.2592
     71  O         40.6610    3.1850   26.0680 O.2   245  LEU245     -0.2718
     72  CB        38.9950    3.8750   28.8380 C.3   245  LEU245      0.0284
     73  CG        38.9780    3.8420   30.3710 C.3   245  LEU245      0.0019
     74  CD1       37.5710    3.4970   30.8450 C.3   245  LEU245      0.0001
     75  CD2       39.9710    2.8170   30.9100 C.3   245  LEU245      0.0001
     76  N         39.8050    5.2660   26.0380 N.am  246  ASP246     -0.1974
     77  CA        39.8300    5.3720   24.5790 C.3   246  ASP246      0.1709
     78  C         41.2460    5.3100   23.9880 C.2   246  ASP246      0.2293
     79  O         41.4540    4.6340   22.9760 O.2   246  ASP246     -0.2864
     80  CB        39.1010    6.6430   24.1360 C.3   246  ASP246      0.1436
     81  CG        37.6140    6.5860   24.4390 C.2   246  ASP246      0.3671
     82  OD1       37.0210    5.4730   24.3750 O.co2 246  ASP246     -0.2456
     83  OD2       37.0400    7.6550   24.7400 O.co2 246  ASP246     -0.2456
@<TRIPOS>BOND
     1    79    78    2
     2    46    45    1
     3    78    77    1
     4    80    81    1
     5    80    77    1
     6    82    81   ar
     7    81    83   ar
     8    40    39    1
     9    77    76    1
    10    38    37    2
    11    45    42    1
    12    41    42    1
    13    37    36    1
    14    42    43    1
    15    39    36    1
    16    33    34    1
    17    33    32    1
    18    76    70   am
    19    71    70    2
    20    32    31    1
    21    36    35    1
    22    70    69    1
    23    35    29   am
    24    43    47   am
    25    43    44    2
    26    47    48    1
    27    54    55    1
    28    54    53    1
    29    50    49    2
    30    31    28    1
    31    29    28    1
    32    29    30    2
    33    69    68    1
    34    69    72    1
    35    28    27    1
    36    53    52    1
    37    52    51    1
    38    48    49    1
    39    48    51    1
    40    49    56   am
    41    72    73    1
    42    66    65    2
    43    19    18    2
    44    63    62    2
    45    27    18   am
    46    56    57    1
    47    65    67   am
    48    65    64    1
    49    57    58    1
    50    18    17    1
    51    73    74    1
    52    73    75    1
    53    62    61    1
    54    58    59    2
    55    24    22   ar
    56    24    26   ar
    57    22    21   ar
    58    61    64    1
    59    61    60    1
    60    17    20    1
    61    17    16    1
    62    26    25   ar
    63    21    20    1
    64    21    23   ar
    65    16    11   am
    66    13    14    1
    67    13    10    1
    68    12    11    2
    69    14    15    1
    70    11    10    1
    71    25    23   ar
    72    10     9    1
    73     4     3    2
    74     1     2    1
    75    15     9    1
    76     3     2    1
    77     8     6    1
    78     2     5    1
    79     5     6    1
    80     5     7    1
