@<TRIPOS>MOLECULE
tmp/5zgbF04.pdb
 77 71 0 0 0
SMALL
GASTEIGER

@<TRIPOS>ATOM
      1  N        162.9980  145.7250  178.5740 N.3    96  GLY96      -0.1225
      2  CA       162.2520  144.6690  177.9140 C.3    96  GLY96       0.1811
      3  C        162.7050  143.2870  178.3320 C.2    96  GLY96       0.2280
      4  O        161.8790  142.3910  178.5460 O.2    96  GLY96      -0.2866
      5  N        161.5600  142.7290  182.0270 N.3    99  TYR99      -0.1227
      6  CA       160.1240  142.5180  182.1260 C.3    99  TYR99       0.1736
      7  C        159.7260  141.1540  181.5830 C.2    99  TYR99       0.2595
      8  O        158.8340  140.4990  182.1370 O.2    99  TYR99      -0.2718
      9  CB       159.3750  143.6210  181.3900 C.3    99  TYR99       0.0548
     10  CG       157.8840  143.4840  181.4960 C.ar   99  TYR99      -0.0200
     11  CD1      157.2270  143.7940  182.6730 C.ar   99  TYR99      -0.0009
     12  CD2      157.1320  143.0450  180.4240 C.ar   99  TYR99      -0.0009
     13  CE1      155.8650  143.6680  182.7790 C.ar   99  TYR99       0.0417
     14  CE2      155.7680  142.9180  180.5210 C.ar   99  TYR99       0.0417
     15  CZ       155.1430  143.2300  181.7010 C.ar   99  TYR99       0.1957
     16  OH       153.7830  143.1030  181.7990 O.3    99  TYR99      -0.2866
     17  N        160.3730  140.7020  180.5070 N.am  100  LEU100     -0.1980
     18  CA       160.0540  139.3700  180.0100 C.3   100  LEU100      0.1596
     19  C        160.5550  138.2840  180.9430 C.2   100  LEU100      0.2287
     20  O        159.8940  137.2530  181.1010 O.2   100  LEU100     -0.2864
     21  CB       160.6200  139.1490  178.6230 C.3   100  LEU100      0.0297
     22  CG       159.8820  139.8720  177.5250 C.3   100  LEU100      0.0022
     23  CD1      160.5590  139.4910  176.2520 C.3   100  LEU100      0.0001
     24  CD2      158.4330  139.4500  177.5170 C.3   100  LEU100      0.0001
     25  N        151.3560  139.7250  178.4500 N.3   113  GLU113     -0.1231
     26  CA       151.9020  140.5930  177.4240 C.3   113  GLU113      0.1699
     27  C        150.8290  141.3730  176.6850 C.2   113  GLU113      0.2592
     28  O        151.1360  142.4230  176.1140 O.2   113  GLU113     -0.2718
     29  CB       152.7220  139.7840  176.4220 C.3   113  GLU113      0.0402
     30  CG       153.6160  138.7440  177.0460 C.3   113  GLU113      0.1161
     31  CD       154.5840  139.2710  178.0970 C.2   113  GLU113      0.3649
     32  OE1      155.0970  140.3980  178.0230 O.co2 113  GLU113     -0.2457
     33  OE2      154.8370  138.5070  179.0350 O.co2 113  GLU113     -0.2457
     34  N        149.5900  140.8870  176.6640 N.am  114  ILE114     -0.1980
     35  CA       148.4800  141.7560  176.2950 C.3   114  ILE114      0.1595
     36  C        148.3300  142.8460  177.3320 C.2   114  ILE114      0.2287
     37  O        148.5590  144.0290  177.0700 O.2   114  ILE114     -0.2864
     38  CB       147.1680  140.9700  176.2060 C.3   114  ILE114      0.0276
     39  CG1      147.2120  139.8590  175.1880 C.3   114  ILE114      0.0022
     40  CG2      146.0390  141.9140  175.8790 C.3   114  ILE114      0.0022
     41  CD1      146.0120  139.0160  175.3710 C.3   114  ILE114      0.0001
     42  N        149.5950  144.5460  180.3280 N.3   116  LEU116     -0.1245
     43  CA       150.8480  144.7380  181.0310 C.3   116  LEU116      0.1561
     44  C        150.5830  145.0030  182.5020 C.2   116  LEU116      0.2260
     45  O        149.7420  145.8370  182.8480 O.2   116  LEU116     -0.2867
     46  CB       151.6080  145.9070  180.4210 C.3   116  LEU116      0.0270
     47  CG       152.4510  145.7510  179.1600 C.3   116  LEU116      0.0019
     48  CD1      151.6390  145.4970  177.9070 C.3   116  LEU116      0.0001
     49  CD2      153.2120  147.0330  179.0080 C.3   116  LEU116      0.0001
     50  N        151.3700  147.0300  184.7250 N.3   118  VAL118     -0.1245
     51  CA       151.7610  148.4130  185.0060 C.3   118  VAL118      0.1561
     52  C        152.3660  148.5980  186.4020 C.2   118  VAL118      0.2260
     53  O        153.2980  149.4120  186.5360 O.2   118  VAL118     -0.2867
     54  CB       150.5500  149.3320  184.7540 C.3   118  VAL118      0.0252
     55  CG1      150.8340  150.7850  185.0690 C.3   118  VAL118      0.0019
     56  CG2      150.1000  149.1950  183.3060 C.3   118  VAL118      0.0019
     57  N        155.4810  146.4670  185.3090 N.3   121  ALA121     -0.1231
     58  CA       155.9940  147.1540  184.1310 C.3   121  ALA121      0.1694
     59  C        156.6750  148.4480  184.5330 C.2   121  ALA121      0.2591
     60  O        157.8910  148.5700  184.4030 O.2   121  ALA121     -0.2718
     61  CB       154.8780  147.4150  183.1240 C.3   121  ALA121      0.0304
     62  N        155.9320  149.3760  185.1430 N.am  122  LEU122     -0.1980
     63  CA       156.5530  150.6180  185.5990 C.3   122  LEU122      0.1596
     64  C        157.4950  150.4350  186.7770 C.2   122  LEU122      0.2287
     65  O        158.1650  151.3990  187.1580 O.2   122  LEU122     -0.2864
     66  CB       155.4920  151.6500  185.9520 C.3   122  LEU122      0.0297
     67  CG       154.9260  152.2960  184.6970 C.3   122  LEU122      0.0022
     68  CD1      153.7140  153.1300  184.9980 C.3   122  LEU122      0.0001
     69  CD2      156.0050  153.1660  184.1160 C.3   122  LEU122      0.0001
     70  N        160.4400  149.6530  183.9620 N.3   125  MET125     -0.1245
     71  CA       160.5600  150.8510  183.1250 C.3   125  MET125      0.1570
     72  C        161.5450  151.8470  183.6950 C.2   125  MET125      0.2261
     73  O        162.4000  152.3810  182.9820 O.2   125  MET125     -0.2867
     74  CB       159.1990  151.5360  183.0080 C.3   125  MET125      0.0387
     75  CG       158.1510  150.8340  182.1910 C.3   125  MET125      0.0595
     76  SD       158.4740  150.9610  180.4560 S.3   125  MET125     -0.1393
     77  CE       158.1130  152.6950  180.2650 C.3   125  MET125      0.0692
@<TRIPOS>BOND
     1    39    41    1
     2    39    38    1
     3    40    38    1
     4    28    27    2
     5    38    35    1
     6    23    22    1
     7    35    34    1
     8    35    36    1
     9    29    30    1
    10    29    26    1
    11    34    27   am
    12    27    26    1
    13    30    31    1
    14    37    36    2
    15    26    25    1
    16    24    22    1
    17    22    21    1
    18    48    47    1
    19     2     3    1
    20     2     1    1
    21    32    31   ar
    22    31    33   ar
    23     3     4    2
    24    21    18    1
    25    49    47    1
    26    47    46    1
    27    18    17    1
    28    18    19    1
    29    77    76    1
    30    42    43    1
    31    46    43    1
    32    12    14   ar
    33    12    10   ar
    34    76    75    1
    35    17     7   am
    36    14    15   ar
    37    19    20    2
    38    43    44    1
    39     9    10    1
    40     9     6    1
    41    10    11   ar
    42     7     6    1
    43     7     8    2
    44    15    16    1
    45    15    13   ar
    46     5     6    1
    47    75    74    1
    48    44    45    2
    49    11    13   ar
    50    73    72    2
    51    74    71    1
    52    61    58    1
    53    71    72    1
    54    71    70    1
    55    56    54    1
    56    69    67    1
    57    58    59    1
    58    58    57    1
    59    60    59    2
    60    59    62   am
    61    67    68    1
    62    67    66    1
    63    50    51    1
    64    54    51    1
    65    54    55    1
    66    51    52    1
    67    62    63    1
    68    63    66    1
    69    63    64    1
    70    52    53    2
    71    64    65    2
