@<TRIPOS>MOLECULE
tmp/5zgbQ07.pdb
 110 108 0 0 0
SMALL
GASTEIGER

@<TRIPOS>ATOM
      1  N        212.3530  127.0650  102.7440 N.3    72  LEU72      -0.1231
      2  CA       210.9850  126.5710  102.6650 C.3    72  LEU72       0.1693
      3  C        210.3170  126.6520  104.0280 C.2    72  LEU72       0.2592
      4  O        209.3930  125.8980  104.3320 O.2    72  LEU72      -0.2718
      5  CB       210.9180  125.1510  102.1080 C.3    72  LEU72       0.0284
      6  CG       210.8260  125.0570  100.5770 C.3    72  LEU72       0.0019
      7  CD1      209.7090  125.9540  100.0500 C.3    72  LEU72       0.0001
      8  CD2      212.1210  125.3400   99.8600 C.3    72  LEU72       0.0001
      9  N        210.7950  127.5770  104.8480 N.am   73  GLN73      -0.1966
     10  CA       210.2780  127.8310  106.1850 C.3    73  GLN73       0.1733
     11  C        210.2170  129.3460  106.3250 C.2    73  GLN73       0.2616
     12  O        210.2650  130.0590  105.3150 O.2    73  GLN73      -0.2715
     13  CB       211.1490  127.1640  107.2590 C.3    73  GLN73       0.0408
     14  CG       211.1410  125.6390  107.2660 C.3    73  GLN73       0.0908
     15  CD       212.1270  125.0340  106.2870 C.2    73  GLN73       0.2608
     16  OE1      213.0470  125.7040  105.8200 O.2    73  GLN73      -0.2717
     17  NE2      211.9330  123.7620  105.9630 N.am   73  GLN73      -0.0878
     18  N        210.1000  129.8300  107.5730 N.am   74  LEU74      -0.1963
     19  CA       210.1660  131.2560  107.9040 C.3    74  LEU74       0.1728
     20  C        209.0640  132.0500  107.2060 C.2    74  LEU74       0.2616
     21  O        209.2850  132.6550  106.1510 O.2    74  LEU74      -0.2715
     22  CB       211.5540  131.8370  107.6130 C.3    74  LEU74       0.0311
     23  CG       212.7080  131.2540  108.4430 C.3    74  LEU74       0.0022
     24  CD1      214.0570  131.8150  108.0070 C.3    74  LEU74       0.0001
     25  CD2      212.4870  131.4870  109.9270 C.3    74  LEU74       0.0001
     26  N        207.8570  131.9610  107.7620 N.am   75  SER75      -0.1950
     27  CA       206.5090  132.2540  107.2700 C.3    75  SER75       0.1924
     28  C        206.1920  133.3980  106.2930 C.2    75  SER75       0.2314
     29  O        205.3430  133.1590  105.4250 O.2    75  SER75      -0.2863
     30  CB       205.5870  132.4150  108.4880 C.3    75  SER75       0.2116
     31  OG       205.9640  133.4840  109.3300 O.3    75  SER75      -0.2180
     32  N        207.5200  132.9570  101.9860 N.3    78  LEU78      -0.1231
     33  CA       206.9790  131.7220  101.4390 C.3    78  LEU78       0.1693
     34  C        205.5020  131.6060  101.7990 C.2    78  LEU78       0.2592
     35  O        204.6090  131.7370  100.9410 O.2    78  LEU78      -0.2718
     36  CB       207.7890  130.5430  101.9980 C.3    78  LEU78       0.0284
     37  CG       207.7620  129.1210  101.4350 C.3    78  LEU78       0.0019
     38  CD1      206.5550  128.3070  101.8860 C.3    78  LEU78       0.0001
     39  CD2      207.8480  129.1850   99.9220 C.3    78  LEU78       0.0001
     40  N        205.2610  131.4640  103.1020 N.am   79  HIS79      -0.1976
     41  CA       203.9400  131.1170  103.6040 C.3    79  HIS79       0.1656
     42  C        202.9550  132.2570  103.4250 C.2    79  HIS79       0.2291
     43  O        201.8330  132.0380  102.9580 O.2    79  HIS79      -0.2864
     44  CB       204.0460  130.7240  105.0700 C.3    79  HIS79       0.0771
     45  CG       202.7850  130.1740  105.6390 C.ar   79  HIS79       0.0820
     46  ND1      201.8160  130.9730  106.2040 N.ar   79  HIS79      -0.2267
     47  CD2      202.3280  128.9040  105.7240 C.ar   79  HIS79       0.1154
     48  CE1      200.8160  130.2160  106.6180 C.ar   79  HIS79       0.1986
     49  NE2      201.1010  128.9570  106.3370 N.ar   79  HIS79      -0.2212
     50  N        209.9310  111.6280  109.4440 N.3   151  MET151     -0.1230
     51  CA       209.6580  112.4690  110.6050 C.3   151  MET151      0.1702
     52  C        210.9340  113.1200  111.1290 C.2   151  MET151      0.2592
     53  O        211.0010  114.3490  111.2710 O.2   151  MET151     -0.2718
     54  CB       208.9570  111.6540  111.6990 C.3   151  MET151      0.0401
     55  CG       207.4840  111.4010  111.4140 C.3   151  MET151      0.0596
     56  SD       206.4440  110.6420  112.6800 S.3   151  MET151     -0.1393
     57  CE       206.7660  108.9060  112.4510 C.3   151  MET151      0.0692
     58  N        211.9690  112.3170  111.3930 N.am  152  ILE152     -0.1980
     59  CA       213.2220  112.8790  111.8970 C.3   152  ILE152      0.1595
     60  C        213.9160  113.7020  110.8210 C.2   152  ILE152      0.2287
     61  O        214.3370  114.8380  111.0680 O.2   152  ILE152     -0.2864
     62  CB       214.1420  111.7740  112.4460 C.3   152  ILE152      0.0276
     63  CG1      213.6710  111.3330  113.8210 C.3   152  ILE152      0.0022
     64  CG2      215.5750  112.2350  112.5430 C.3   152  ILE152      0.0022
     65  CD1      212.7980  110.1780  113.7880 C.3   152  ILE152      0.0001
     66  N        212.6660  115.1980  108.3260 N.3   154  PHE154     -0.1227
     67  CA       212.0030  116.4870  108.2370 C.3   154  PHE154      0.1736
     68  C        212.3110  117.3500  109.4520 C.2   154  PHE154      0.2596
     69  O        212.2530  118.5830  109.3620 O.2   154  PHE154     -0.2718
     70  CB       210.4980  116.3060  108.0790 C.3   154  PHE154      0.0547
     71  CG       209.7790  117.5860  107.8620 C.ar  154  PHE154     -0.0202
     72  CD1      209.8460  118.2240  106.6400 C.ar  154  PHE154     -0.0042
     73  CD2      209.0730  118.1800  108.8850 C.ar  154  PHE154     -0.0042
     74  CE1      209.2000  119.4170  106.4420 C.ar  154  PHE154     -0.0003
     75  CE2      208.4380  119.3770  108.6870 C.ar  154  PHE154     -0.0003
     76  CZ       208.4960  119.9910  107.4620 C.ar  154  PHE154     -0.0000
     77  N        212.6340  116.7270  110.5900 N.am  155  GLY155     -0.1957
     78  CA       213.0990  117.4960  111.7350 C.3   155  GLY155      0.1869
     79  C        214.3990  118.2280  111.4570 C.2   155  GLY155      0.2309
     80  O        214.5310  119.4230  111.7390 O.2   155  GLY155     -0.2863
     81  N        213.8480  120.9840  108.8830 N.3   158  PHE158     -0.1227
     82  CA       213.4540  122.2420  109.4960 C.3   158  PHE158      0.1736
     83  C        214.6310  122.9080  110.1910 C.2   158  PHE158      0.2595
     84  O        214.9230  124.0790  109.9460 O.2   158  PHE158     -0.2718
     85  CB       212.3180  122.0270  110.4880 C.3   158  PHE158      0.0547
     86  CG       211.9910  123.2480  111.2880 C.ar  158  PHE158     -0.0202
     87  CD1      211.3800  124.3390  110.6950 C.ar  158  PHE158     -0.0042
     88  CD2      212.2970  123.3050  112.6360 C.ar  158  PHE158     -0.0042
     89  CE1      211.0770  125.4620  111.4340 C.ar  158  PHE158     -0.0003
     90  CE2      211.9990  124.4200  113.3770 C.ar  158  PHE158     -0.0003
     91  CZ       211.3880  125.5040  112.7780 C.ar  158  PHE158     -0.0000
     92  N        215.3260  122.1720  111.0580 N.am  159  HIS159     -0.1975
     93  CA       216.2180  122.8240  112.0140 C.3   159  HIS159      0.1656
     94  C        217.5620  123.2430  111.4410 C.2   159  HIS159      0.2291
     95  O        218.4040  123.7160  112.2070 O.2   159  HIS159     -0.2864
     96  CB       216.4410  121.9150  113.2120 C.3   159  HIS159      0.0771
     97  CG       215.2130  121.7080  114.0320 C.ar  159  HIS159      0.0820
     98  ND1      214.3010  120.7150  113.7590 N.ar  159  HIS159     -0.2267
     99  CD2      214.7370  122.3740  115.1080 C.ar  159  HIS159      0.1154
    100  CE1      213.3230  120.7650  114.6430 C.ar  159  HIS159      0.1986
    101  NE2      213.5590  121.7680  115.4670 N.ar  159  HIS159     -0.2212
    102  N        218.6330  125.9770  110.0750 N.3   161  GLN161     -0.1245
    103  CA       218.3400  127.3900  109.8730 C.3   161  GLN161      0.1566
    104  C        219.3300  128.3270  110.5440 C.2   161  GLN161      0.2260
    105  O        219.6680  129.3540  109.9570 O.2   161  GLN161     -0.2867
    106  CB       216.9480  127.7050  110.3950 C.3   161  GLN161      0.0367
    107  CG       215.8360  127.1410  109.5810 C.3   161  GLN161      0.0905
    108  CD       214.5150  127.2980  110.2830 C.2   161  GLN161      0.2608
    109  OE1      214.4560  127.7720  111.4170 O.2   161  GLN161     -0.2717
    110  NE2      213.4470  126.8850  109.6260 N.am  161  GLN161     -0.0878
@<TRIPOS>BOND
     1     8     6    1
     2    39    37    1
     3     7     6    1
     4     6     5    1
     5    35    34    2
     6    37    38    1
     7    37    36    1
     8    33    34    1
     9    33    32    1
    10    33    36    1
    11    34    40   am
    12     5     2    1
    13     2     1    1
    14     2     3    1
    15    43    42    2
    16    40    41    1
    17    42    41    1
    18    41    44    1
    19     3     4    2
    20     3     9   am
    21     9    10    1
    22    44    45    1
    23    12    11    2
    24    29    28    2
    25    45    47   ar
    26    45    46   ar
    27    47    49   ar
    28    16    15    2
    29    17    15   am
    30    21    20    2
    31    10    11    1
    32    10    13    1
    33    46    48   ar
    34    15    14    1
    35    28    27    1
    36    11    18   am
    37    49    48   ar
    38    74    72   ar
    39    74    76   ar
    40    72    71   ar
    41    20    26   am
    42    20    19    1
    43    13    14    1
    44    27    26    1
    45    27    30    1
    46    76    75   ar
    47    18    19    1
    48    22    19    1
    49    22    23    1
    50    71    70    1
    51    71    73   ar
    52    24    23    1
    53    70    67    1
    54    67    66    1
    55    67    68    1
    56    23    25    1
    57    30    31    1
    58    75    73   ar
    59    81    82    1
    60    69    68    2
    61    50    51    1
    62    68    77   am
    63    82    83    1
    64    82    85    1
    65   107   108    1
    66   107   106    1
    67   110   108   am
    68   103   102    1
    69   103   106    1
    70   103   104    1
    71    84    83    2
    72   105   104    2
    73    83    92   am
    74   108   109    2
    75    85    86    1
    76    77    78    1
    77    51    52    1
    78    51    54    1
    79    87    86   ar
    80    87    89   ar
    81    60    61    2
    82    60    59    1
    83    92    93    1
    84    52    53    2
    85    52    58   am
    86    86    88   ar
    87    58    59    1
    88    55    54    1
    89    55    56    1
    90    89    91   ar
    91    94    93    1
    92    94    95    2
    93    79    78    1
    94    79    80    2
    95    59    62    1
    96    93    96    1
    97    62    64    1
    98    62    63    1
    99    57    56    1
   100    88    90   ar
   101    91    90   ar
   102    96    97    1
   103    98    97   ar
   104    98   100   ar
   105    65    63    1
   106    97    99   ar
   107   100   101   ar
   108    99   101   ar
