@<TRIPOS>MOLECULE
tmp/5zgbJ09.pdb
 96 91 0 0 0
SMALL
GASTEIGER

@<TRIPOS>ATOM
      1  N        120.6690  123.1150  112.1530 N.3    11  TYR11      -0.1241
      2  CA       121.6360  124.0150  111.5380 C.3    11  TYR11       0.1605
      3  C        123.0600  123.5020  111.6910 C.2    11  TYR11       0.2264
      4  O        123.8580  123.5920  110.7540 O.2    11  TYR11      -0.2867
      5  CB       121.5140  125.4140  112.1270 C.3    11  TYR11       0.0534
      6  CG       122.5070  126.3740  111.5340 C.ar   11  TYR11      -0.0201
      7  CD1      122.3830  126.7990  110.2210 C.ar   11  TYR11      -0.0009
      8  CD2      123.5650  126.8600  112.2860 C.ar   11  TYR11      -0.0009
      9  CE1      123.2890  127.6750  109.6680 C.ar   11  TYR11       0.0417
     10  CE2      124.4740  127.7400  111.7450 C.ar   11  TYR11       0.0417
     11  CZ       124.3320  128.1440  110.4360 C.ar   11  TYR11       0.1957
     12  OH       125.2390  129.0230  109.8920 O.3    11  TYR11      -0.2866
     13  N        123.7940  120.1340  109.1360 N.3    14  GLN14      -0.1231
     14  CA       124.1800  120.2400  107.7350 C.3    14  GLN14       0.1698
     15  C        125.3930  121.1340  107.5240 C.2    14  GLN14       0.2592
     16  O        125.5590  121.7080  106.4420 O.2    14  GLN14      -0.2718
     17  CB       122.9960  120.7240  106.9030 C.3    14  GLN14       0.0381
     18  CG       121.8610  119.7180  106.8470 C.3    14  GLN14       0.0905
     19  CD       120.6870  120.2040  106.0230 C.2    14  GLN14       0.2608
     20  OE1      120.6910  121.3270  105.5200 O.2    14  GLN14      -0.2717
     21  NE2      119.6710  119.3610  105.8840 N.am   14  GLN14      -0.0878
     22  N        126.2530  121.2570  108.5320 N.am   15  LEU15      -0.1966
     23  CA       127.5250  121.9410  108.4020 C.3    15  LEU15       0.1713
     24  C        128.4670  121.1300  107.5170 C.2    15  LEU15       0.2458
     25  O        128.2170  119.9570  107.2390 O.2    15  LEU15      -0.2730
     26  CB       128.1270  122.1720  109.7880 C.3    15  LEU15       0.0310
     27  CG       127.4880  123.2970  110.5870 C.3    15  LEU15       0.0022
     28  CD1      128.1600  123.3810  111.9240 C.3    15  LEU15       0.0001
     29  CD2      127.6320  124.6040  109.8410 C.3    15  LEU15       0.0001
     30  N        129.5840  121.7190  107.0630 N.am   16  PRO16      -0.2727
     31  CA       130.5250  120.9410  106.2440 C.3    16  PRO16       0.1402
     32  C        131.3870  119.9420  106.9960 C.2    16  PRO16       0.2269
     33  O        132.4270  119.5400  106.4780 O.2    16  PRO16      -0.2865
     34  CB       131.4010  122.0200  105.6030 C.3    16  PRO16       0.0296
     35  CG       130.5860  123.2140  105.6140 C.3    16  PRO16       0.0237
     36  CD       129.7860  123.1630  106.8510 C.3    16  PRO16       0.0939
     37  N        127.5830  116.9090  108.4340 N.3    19  ARG19      -0.1245
     38  CA       126.7480  116.2720  107.4310 C.3    19  ARG19       0.1563
     39  C        127.2570  114.8610  107.1560 C.2    19  ARG19       0.2260
     40  O        128.4110  114.5280  107.4410 O.2    19  ARG19      -0.2867
     41  CB       126.7170  117.0980  106.1500 C.3    19  ARG19       0.0307
     42  CG       128.0250  117.1420  105.4170 C.3    19  ARG19       0.0489
     43  CD       127.9150  118.0250  104.1990 C.3    19  ARG19       0.2205
     44  NE       127.7780  119.4320  104.5370 N.pl3  19  ARG19      -0.0865
     45  CZ       127.5500  120.3840  103.6420 C.cat  19  ARG19       0.5346
     46  NH1      127.4370  120.0700  102.3620 N.pl3  19  ARG19       0.1354
     47  NH2      127.4450  121.6470  104.0220 N.pl3  19  ARG19       0.1354
     48  N        127.7840  112.2420  104.5560 N.3    21  GLY21      -0.1210
     49  CA       128.9150  111.6950  103.8400 C.3    21  GLY21       0.1956
     50  C        129.3860  112.5210  102.6680 C.2    21  GLY21       0.2611
     51  O        128.6500  112.7580  101.7080 O.2    21  GLY21      -0.2717
     52  N        130.6390  112.9620  102.7560 N.am   22  VAL22      -0.1979
     53  CA       131.3540  113.6640  101.6990 C.3    22  VAL22       0.1595
     54  C        132.7480  113.0510  101.7050 C.2    22  VAL22       0.2287
     55  O        133.2270  112.5900  102.7460 O.2    22  VAL22      -0.2864
     56  CB       131.4180  115.2120  101.9250 C.3    22  VAL22       0.0276
     57  CG1      132.0710  115.9500  100.7580 C.3    22  VAL22       0.0022
     58  CG2      130.0560  115.8220  102.1830 C.3    22  VAL22       0.0022
     59  N        136.6660  116.8850   99.4070 N.3    26  LEU26      -0.1245
     60  CA       135.6170  117.8580   99.1380 C.3    26  LEU26       0.1561
     61  C        135.0330  118.4130  100.4280 C.2    26  LEU26       0.2260
     62  O        134.6190  119.5800  100.4690 O.2    26  LEU26      -0.2867
     63  CB       134.5320  117.2150   98.2780 C.3    26  LEU26       0.0270
     64  CG       133.3750  118.1000   97.8330 C.3    26  LEU26       0.0019
     65  CD1      133.9010  119.2600   97.0130 C.3    26  LEU26       0.0001
     66  CD2      132.3730  117.2810   97.0380 C.3    26  LEU26       0.0001
     67  N        137.3070  120.9410  101.0200 N.3    29  LEU29      -0.1231
     68  CA       137.2350  121.9480   99.9740 C.3    29  LEU29       0.1693
     69  C        136.0670  122.8920  100.1910 C.2    29  LEU29       0.2591
     70  O        136.0940  124.0250   99.7020 O.2    29  LEU29      -0.2718
     71  CB       137.1640  121.2550   98.6120 C.3    29  LEU29       0.0284
     72  CG       137.3430  122.0460   97.3170 C.3    29  LEU29       0.0019
     73  CD1      138.0900  121.1930   96.3170 C.3    29  LEU29       0.0001
     74  CD2      136.0060  122.4360   96.7320 C.3    29  LEU29       0.0001
     75  N        135.0540  122.4550  100.9270 N.am   30  GLU30      -0.1979
     76  CA       133.9840  123.3590  101.3120 C.3    30  GLU30       0.1602
     77  C        134.4300  124.2770  102.4460 C.2    30  GLU30       0.2287
     78  O        134.0760  125.4660  102.4650 O.2    30  GLU30      -0.2864
     79  CB       132.7650  122.5280  101.6920 C.3    30  GLU30       0.0415
     80  CG       131.5190  123.2910  102.0090 C.3    30  GLU30       0.1163
     81  CD       130.3550  122.3550  102.2240 C.2    30  GLU30       0.3649
     82  OE1      130.5320  121.1360  102.0280 O.co2  30  GLU30      -0.2457
     83  OE2      129.2800  122.8190  102.6320 O.co2  30  GLU30      -0.2457
     84  N        136.6640  126.6040  100.9230 N.3    33  MET33      -0.1230
     85  CA       135.8420  127.4400  100.0630 C.3    33  MET33       0.1702
     86  C        135.1910  128.5690  100.8520 C.2    33  MET33       0.2592
     87  O        135.0170  129.6730  100.3250 O.2    33  MET33      -0.2718
     88  CB       134.7950  126.5860   99.3540 C.3    33  MET33       0.0401
     89  CG       134.0270  127.3450   98.3050 C.3    33  MET33       0.0596
     90  SD       132.8260  126.3780   97.3960 S.3    33  MET33      -0.1393
     91  CE       133.9060  125.4630   96.3090 C.3    33  MET33       0.0692
     92  N        134.8750  128.3360  102.1240 N.am   34  ALA34      -0.1980
     93  CA       134.4220  129.4450  102.9590 C.3    34  ALA34       0.1597
     94  C        135.5890  130.3240  103.4030 C.2    34  ALA34       0.2287
     95  O        135.6010  131.5390  103.1580 O.2    34  ALA34      -0.2864
     96  CB       133.6660  128.9080  104.1730 C.3    34  ALA34       0.0319
@<TRIPOS>BOND
     1    91    90    1
     2    73    72    1
     3    74    72    1
     4    65    64    1
     5    66    64    1
     6    72    71    1
     7    90    89    1
     8    64    63    1
     9    63    60    1
    10    89    88    1
    11    71    68    1
    12    60    59    1
    13    60    61    1
    14    88    85    1
    15    70    69    2
    16    68    69    1
    17    68    67    1
    18    85    86    1
    19    85    84    1
    20    69    75   am
    21    87    86    2
    22    61    62    2
    23    57    56    1
    24    86    92   am
    25    75    76    1
    26    76    79    1
    27    76    77    1
    28    79    80    1
    29    53    54    1
    30    53    56    1
    31    53    52    1
    32    54    55    2
    33    51    50    2
    34    56    58    1
    35    80    81    1
    36    82    81   ar
    37    92    93    1
    38    81    83   ar
    39    46    45    1
    40    77    78    2
    41    50    52   am
    42    50    49    1
    43    93    94    1
    44    93    96    1
    45    95    94    2
    46    45    47    1
    47    45    44    2
    48    49    48    1
    49    43    44    1
    50    43    42    1
    51    42    41    1
    52    20    19    2
    53    34    35    1
    54    34    31    1
    55    35    36    1
    56    21    19   am
    57    19    18    1
    58    41    38    1
    59    31    32    1
    60    31    30    1
    61    16    15    2
    62    33    32    2
    63    18    17    1
    64    36    30    1
    65    17    14    1
    66    30    24   am
    67    39    38    1
    68    39    40    2
    69    25    24    2
    70    38    37    1
    71    24    23    1
    72    15    14    1
    73    15    22   am
    74    14    13    1
    75    23    22    1
    76    23    26    1
    77     9     7   ar
    78     9    11   ar
    79    26    27    1
    80    29    27    1
    81    12    11    1
    82     7     6   ar
    83    11    10   ar
    84    27    28    1
    85     4     3    2
    86     6     5    1
    87     6     8   ar
    88     2     3    1
    89     2     5    1
    90     2     1    1
    91    10     8   ar
