@<TRIPOS>MOLECULE
tmp/5zgbP12.pdb
 133 128 0 0 0
SMALL
GASTEIGER

@<TRIPOS>ATOM
      1  N        163.1140  110.4610   99.8300 N.3    35  TRP35      -0.1241
      2  CA       162.9280  111.9010   99.6690 C.3    35  TRP35       0.1605
      3  C        164.2200  112.5860   99.2500 C.2    35  TRP35       0.2264
      4  O        164.1880  113.5510   98.4780 O.2    35  TRP35      -0.2867
      5  CB       162.4090  112.5340  100.9550 C.3    35  TRP35       0.0550
      6  CG       162.2840  114.0100  100.8130 C.ar   35  TRP35       0.0003
      7  CD1      163.1560  114.9530  101.2680 C.ar   35  TRP35       0.0946
      8  CD2      161.2530  114.7180  100.1260 C.ar   35  TRP35       0.0152
      9  NE1      162.7250  116.2020  100.9210 N.ar   35  TRP35      -0.2442
     10  CE2      161.5540  116.0870  100.2230 C.ar   35  TRP35       0.0810
     11  CE3      160.0950  114.3270   99.4470 C.ar   35  TRP35       0.0012
     12  CZ2      160.7450  117.0670   99.6680 C.ar   35  TRP35       0.0191
     13  CZ3      159.2910  115.3010   98.8970 C.ar   35  TRP35       0.0001
     14  CH2      159.6160  116.6560   99.0180 C.ar   35  TRP35       0.0015
     15  N        164.3410  112.0010   95.6080 N.3    38  GLU38      -0.1231
     16  CA       163.4610  112.8670   94.8320 C.3    38  GLU38       0.1699
     17  C        163.9600  114.3050   94.8220 C.2    38  GLU38       0.2592
     18  O        163.7770  115.0170   93.8270 O.2    38  GLU38      -0.2718
     19  CB       162.0400  112.7660   95.3840 C.3    38  GLU38       0.0402
     20  CG       160.9660  113.3270   94.4720 C.3    38  GLU38       0.1161
     21  CD       160.6240  114.7440   94.8060 C.2    38  GLU38       0.3649
     22  OE1      160.6830  115.0660   96.0060 O.co2  38  GLU38      -0.2457
     23  OE2      160.3120  115.5300   93.8860 O.co2  38  GLU38      -0.2457
     24  N        164.6230  114.7330   95.8950 N.am   39  GLY39      -0.1957
     25  CA       165.2750  116.0280   95.8860 C.3    39  GLY39       0.1869
     26  C        166.4940  116.0660   94.9890 C.2    39  GLY39       0.2309
     27  O        166.7990  117.1060   94.3990 O.2    39  GLY39      -0.2863
     28  N        164.9640  116.1890   91.4230 N.3    42  LYS42      -0.1231
     29  CA       164.3220  117.4600   91.1120 C.3    42  LYS42       0.1693
     30  C        165.3380  118.5950   91.0410 C.2    42  LYS42       0.2592
     31  O        165.2400  119.4620   90.1630 O.2    42  LYS42      -0.2718
     32  CB       163.2300  117.7480   92.1360 C.3    42  LYS42       0.0285
     33  CG       162.3480  118.9140   91.7750 C.3    42  LYS42       0.0035
     34  CD       161.1470  118.9690   92.6870 C.3    42  LYS42       0.0206
     35  CE       160.2650  120.1610   92.3850 C.3    42  LYS42       0.1093
     36  NZ       159.0920  120.2300   93.2940 N.3    42  LYS42      -0.1314
     37  N        166.3380  118.5840   91.9320 N.am   43  ASN43      -0.1974
     38  CA       167.4500  119.5250   91.8240 C.3    43  ASN43       0.1688
     39  C        168.2480  119.3150   90.5440 C.2    43  ASN43       0.2292
     40  O        168.7330  120.2850   89.9500 O.2    43  ASN43      -0.2864
     41  CB       168.3730  119.4000   93.0360 C.3    43  ASN43       0.1181
     42  CG       167.8250  120.0850   94.2640 C.2    43  ASN43       0.2629
     43  OD1      167.3440  121.2080   94.1940 O.2    43  ASN43      -0.2716
     44  ND2      167.8970  119.4130   95.4010 N.am   43  ASN43      -0.0877
     45  N        165.9250  120.7240   87.5700 N.3    46  VAL46      -0.1245
     46  CA       165.7430  122.1660   87.4800 C.3    46  VAL46       0.1561
     47  C        167.0920  122.8740   87.3510 C.2    46  VAL46       0.2260
     48  O        167.1840  123.9280   86.7080 O.2    46  VAL46      -0.2867
     49  CB       164.9060  122.6900   88.6610 C.3    46  VAL46       0.0252
     50  CG1      165.6830  122.7010   89.9470 C.3    46  VAL46       0.0019
     51  CG2      164.3650  124.0600   88.3540 C.3    46  VAL46       0.0019
     52  N        155.7030  133.6430   87.4460 N.3    88  ILE88      -0.1231
     53  CA       156.1910  132.3040   87.1560 C.3    88  ILE88       0.1692
     54  C        156.2250  131.4480   88.4200 C.2    88  ILE88       0.2591
     55  O        156.1890  130.2160   88.3200 O.2    88  ILE88      -0.2718
     56  CB       157.5530  132.3690   86.4420 C.3    88  ILE88       0.0266
     57  CG1      157.7910  131.0970   85.6360 C.3    88  ILE88       0.0019
     58  CG2      158.6870  132.5320   87.4170 C.3    88  ILE88       0.0020
     59  CD1      156.8110  130.9210   84.5090 C.3    88  ILE88       0.0001
     60  N        156.2440  132.0590   89.6130 N.am   89  LEU89      -0.1980
     61  CA       155.9650  131.2740   90.8110 C.3    89  LEU89       0.1596
     62  C        154.5140  130.8480   90.8610 C.2    89  LEU89       0.2287
     63  O        154.2070  129.7800   91.4050 O.2    89  LEU89      -0.2864
     64  CB       156.2930  132.0360   92.0930 C.3    89  LEU89       0.0297
     65  CG       157.6940  131.9480   92.6910 C.3    89  LEU89       0.0022
     66  CD1      158.6290  132.7800   91.8920 C.3    89  LEU89       0.0001
     67  CD2      157.6770  132.4010   94.1360 C.3    89  LEU89       0.0001
     68  N        154.3910  127.9040   88.2100 N.3    92  ILE92      -0.1231
     69  CA       155.0190  126.7290   88.8060 C.3    92  ILE92       0.1692
     70  C        154.1710  126.1740   89.9410 C.2    92  ILE92       0.2592
     71  O        154.0630  124.9490   90.0960 O.2    92  ILE92      -0.2718
     72  CB       156.4610  127.0830   89.2310 C.3    92  ILE92       0.0266
     73  CG1      157.3360  127.1510   87.9790 C.3    92  ILE92       0.0019
     74  CG2      157.0330  126.1170   90.2520 C.3    92  ILE92       0.0020
     75  CD1      158.7030  127.7070   88.1960 C.3    92  ILE92       0.0001
     76  N        153.4870  127.0490   90.6890 N.am   93  GLY93      -0.1957
     77  CA       152.5240  126.5690   91.6690 C.3    93  GLY93       0.1869
     78  C        151.3750  125.8230   91.0200 C.2    93  GLY93       0.2309
     79  O        150.9720  124.7530   91.4890 O.2    93  GLY93      -0.2863
     80  N        152.6840  122.5010   90.4070 N.3    96  GLU96      -0.1231
     81  CA       152.9920  121.6340   91.5290 C.3    96  GLU96       0.1699
     82  C        151.7560  121.3210   92.3710 C.2    96  GLU96       0.2592
     83  O        151.8470  120.5480   93.3320 O.2    96  GLU96      -0.2718
     84  CB       154.1210  122.2740   92.3430 C.3    96  GLU96       0.0402
     85  CG       154.9390  121.2980   93.1510 C.3    96  GLU96       0.1161
     86  CD       156.2350  121.9000   93.6380 C.2    96  GLU96       0.3649
     87  OE1      156.4300  123.1140   93.4130 O.co2  96  GLU96      -0.2457
     88  OE2      157.0540  121.1610   94.1860 O.co2  96  GLU96      -0.2457
     89  N        150.5930  121.8750   92.0110 N.am   97  PHE97      -0.1976
     90  CA       149.3380  121.2670   92.4430 C.3    97  PHE97       0.1639
     91  C        149.1400  119.9080   91.7840 C.2    97  PHE97       0.2290
     92  O        148.7970  118.9280   92.4550 O.2    97  PHE97      -0.2864
     93  CB       148.1470  122.1750   92.1190 C.3    97  PHE97       0.0560
     94  CG       148.0330  123.3930   92.9970 C.ar   97  PHE97      -0.0200
     95  CD1      148.7430  123.4900   94.1820 C.ar   97  PHE97      -0.0042
     96  CD2      147.2010  124.4410   92.6330 C.ar   97  PHE97      -0.0042
     97  CE1      148.6370  124.6080   94.9840 C.ar   97  PHE97      -0.0003
     98  CE2      147.0890  125.5630   93.4300 C.ar   97  PHE97      -0.0003
     99  CZ       147.8080  125.6470   94.6060 C.ar   97  PHE97      -0.0000
    100  N        152.8280  116.7110   92.1820 N.3   100  HIS100     -0.1241
    101  CA       153.0940  115.8490   93.3220 C.3   100  HIS100      0.1621
    102  C        151.8300  115.4560   94.0690 C.2   100  HIS100      0.2264
    103  O        151.7780  114.3570   94.6300 O.2   100  HIS100     -0.2867
    104  CB       154.0820  116.5340   94.2640 C.3   100  HIS100      0.0745
    105  CG       155.4290  116.7490   93.6530 C.ar  100  HIS100      0.0817
    106  ND1      156.3250  115.7220   93.4530 N.ar  100  HIS100     -0.2268
    107  CD2      156.0280  117.8680   93.1840 C.ar  100  HIS100      0.1154
    108  CE1      157.4210  116.2000   92.8920 C.ar  100  HIS100      0.1986
    109  NE2      157.2670  117.5000   92.7200 N.ar  100  HIS100     -0.2212
    110  N        152.4560  117.3300   98.0560 N.3   103  LYS103     -0.1231
    111  CA       153.1820  118.6170   98.0890 C.3   103  LYS103      0.1693
    112  C        153.6480  119.0630   99.4840 C.2   103  LYS103      0.2592
    113  O        153.8740  120.2530   99.7160 O.2   103  LYS103     -0.2718
    114  CB       152.3700  119.7390   97.4140 C.3   103  LYS103      0.0285
    115  CG       151.0830  120.2230   98.1010 C.3   103  LYS103      0.0035
    116  CD       150.3870  121.2670   97.2690 C.3   103  LYS103      0.0206
    117  CE       149.8490  120.6230   96.0120 C.3   103  LYS103      0.1093
    118  NZ       148.8080  119.5950   96.2740 N.3   103  LYS103     -0.1314
    119  N        153.8390  118.1520  100.4300 N.am  104  VAL104     -0.1966
    120  CA       154.3970  118.4980  101.7310 C.3   104  VAL104      0.1727
    121  C        155.7060  117.7320  101.8700 C.2   104  VAL104      0.2616
    122  O        155.7910  116.5700  101.4580 O.2   104  VAL104     -0.2715
    123  CB       153.4040  118.1940  102.8770 C.3   104  VAL104      0.0290
    124  CG1      153.9760  118.5580  104.2360 C.3   104  VAL104      0.0023
    125  CG2      152.1120  118.9550  102.6600 C.3   104  VAL104      0.0023
    126  N        156.7180  118.3900  102.4520 N.am  105  LEU105     -0.1977
    127  CA       158.1220  118.0730  102.1940 C.3   105  LEU105      0.1596
    128  C        158.5030  116.6970  102.7290 C.2   105  LEU105      0.2287
    129  O        158.8290  115.7910  101.9610 O.2   105  LEU105     -0.2864
    130  CB       158.9910  119.1600  102.8250 C.3   105  LEU105      0.0297
    131  CG       160.3990  119.5260  102.3360 C.3   105  LEU105      0.0022
    132  CD1      160.6840  120.9030  102.8240 C.3   105  LEU105      0.0001
    133  CD2      161.4560  118.6260  102.8560 C.3   105  LEU105      0.0001
@<TRIPOS>BOND
     1    59    57    1
     2    57    56    1
     3    56    53    1
     4    56    58    1
     5    48    47    2
     6    53    52    1
     7    53    54    1
     8    47    46    1
     9    46    45    1
    10    46    49    1
    11    73    75    1
    12    73    72    1
    13    68    69    1
    14    55    54    2
    15    51    49    1
    16    54    60   am
    17    49    50    1
    18    69    72    1
    19    69    70    1
    20    72    74    1
    21    60    61    1
    22    70    71    2
    23    70    76   am
    24    40    39    2
    25    31    30    2
    26    80    81    1
    27    39    38    1
    28    76    77    1
    29    61    62    1
    30    61    64    1
    31    62    63    2
    32    78    79    2
    33    78    77    1
    34    30    29    1
    35    30    37   am
    36    29    28    1
    37    29    32    1
    38    81    84    1
    39    81    82    1
    40    33    32    1
    41    33    34    1
    42    91    90    1
    43    91    92    2
    44    38    37    1
    45    38    41    1
    46    66    65    1
    47    89    82   am
    48    89    90    1
    49    64    65    1
    50    93    90    1
    51    93    94    1
    52   100   101    1
    53    84    85    1
    54    82    83    2
    55    35    34    1
    56    35    36    1
    57    96    94   ar
    58    96    98   ar
    59    65    67    1
    60   109   108   ar
    61   109   107   ar
    62   108   106   ar
    63    94    95   ar
    64    41    42    1
    65    85    86    1
    66   107   105   ar
    67   101   102    1
    68   101   104    1
    69    87    86   ar
    70    98    99   ar
    71   106   105   ar
    72    86    88   ar
    73   105   104    1
    74    18    17    2
    75    23    21   ar
    76   102   103    2
    77    95    97   ar
    78    43    42    2
    79    42    44   am
    80    27    26    2
    81    20    21    1
    82    20    19    1
    83    99    97   ar
    84    21    22   ar
    85    17    16    1
    86    17    24   am
    87    16    19    1
    88    16    15    1
    89    26    25    1
    90    25    24    1
    91   117   118    1
    92   117   116    1
    93   116   115    1
    94   114   111    1
    95   114   115    1
    96   110   111    1
    97   111   112    1
    98     4     3    2
    99    13    14   ar
   100    13    11   ar
   101    14    12   ar
   102     3     2    1
   103    11     8   ar
   104   112   113    2
   105   112   119   am
   106    12    10   ar
   107     2     1    1
   108     2     5    1
   109     8    10   ar
   110     8     6   ar
   111    10     9   ar
   112   119   120    1
   113     6     5    1
   114     6     7   ar
   115     9     7   ar
   116   122   121    2
   117   120   121    1
   118   120   123    1
   119   121   126   am
   120   129   128    2
   121   127   126    1
   122   127   128    1
   123   127   130    1
   124   131   132    1
   125   131   130    1
   126   131   133    1
   127   125   123    1
   128   123   124    1
