@<TRIPOS>MOLECULE
tmp/5zgbM13.pdb
 177 168 0 0 0
SMALL
GASTEIGER

@<TRIPOS>ATOM
      1  N        161.2250  160.6830  200.9060 N.3    40  ILE40      -0.1245
      2  CA       162.2280  161.0550  201.8970 C.3    40  ILE40       0.1561
      3  C        163.4540  161.6300  201.2100 C.2    40  ILE40       0.2260
      4  O        163.9570  162.6880  201.5970 O.2    40  ILE40      -0.2867
      5  CB       162.5920  159.8480  202.7790 C.3    40  ILE40       0.0252
      6  CG1      161.3720  159.3310  203.5270 C.3    40  ILE40       0.0019
      7  CG2      163.6300  160.2270  203.8010 C.3    40  ILE40       0.0019
      8  CD1      160.7530  160.3390  204.4240 C.3    40  ILE40       0.0001
      9  N        164.9240  165.4180  201.4200 N.3    44  ARG44      -0.1245
     10  CA       166.2070  165.7570  202.0110 C.3    44  ARG44       0.1563
     11  C        167.0970  166.4880  201.0170 C.2    44  ARG44       0.2260
     12  O        167.8020  167.4300  201.3940 O.2    44  ARG44      -0.2867
     13  CB       166.8740  164.4900  202.5420 C.3    44  ARG44       0.0307
     14  CG       166.0740  163.8730  203.6750 C.3    44  ARG44       0.0489
     15  CD       166.5910  162.5170  204.0910 C.3    44  ARG44       0.2205
     16  NE       166.6170  161.5680  202.9880 N.pl3  44  ARG44      -0.0865
     17  CZ       167.0620  160.3200  203.0960 C.cat  44  ARG44       0.5346
     18  NH1      167.4780  159.8610  204.2700 N.pl3  44  ARG44       0.1354
     19  NH2      167.0570  159.5170  202.0410 N.pl3  44  ARG44       0.1354
     20  N        165.6820  169.7300  200.5310 N.3    47  MET47      -0.1230
     21  CA       165.8810  170.4320  201.7860 C.3    47  MET47       0.1702
     22  C        167.2600  171.0800  201.8200 C.2    47  MET47       0.2592
     23  O        167.4040  172.2560  202.1800 O.2    47  MET47      -0.2718
     24  CB       165.7210  169.4370  202.9300 C.3    47  MET47       0.0401
     25  CG       165.3020  170.0440  204.2120 C.3    47  MET47       0.0596
     26  SD       165.4490  168.9490  205.6150 S.3    47  MET47      -0.1393
     27  CE       164.3350  167.6330  205.1870 C.3    47  MET47       0.0692
     28  N        168.2880  170.3210  201.4350 N.am   48  LEU48      -0.1980
     29  CA       169.6260  170.8850  201.3240 C.3    48  LEU48       0.1596
     30  C        169.7140  171.9020  200.1990 C.2    48  LEU48       0.2287
     31  O        170.4720  172.8720  200.3000 O.2    48  LEU48      -0.2864
     32  CB       170.6440  169.7790  201.0870 C.3    48  LEU48       0.0297
     33  CG       170.8210  168.7680  202.2080 C.3    48  LEU48       0.0022
     34  CD1      171.8230  167.7140  201.7830 C.3    48  LEU48       0.0001
     35  CD2      171.2540  169.4600  203.4860 C.3    48  LEU48       0.0001
     36  N        168.3620  174.9310  201.3370 N.3    51  LEU51      -0.1245
     37  CA       169.3070  175.4950  202.2950 C.3    51  LEU51       0.1561
     38  C        170.4430  176.2240  201.5830 C.2    51  LEU51       0.2260
     39  O        170.9460  177.2260  202.0990 O.2    51  LEU51      -0.2867
     40  CB       169.8450  174.4090  203.2300 C.3    51  LEU51       0.0270
     41  CG       170.6420  174.9360  204.4300 C.3    51  LEU51       0.0019
     42  CD1      169.7560  175.8180  205.2940 C.3    51  LEU51       0.0001
     43  CD2      171.2600  173.8260  205.2680 C.3    51  LEU51       0.0001
     44  N        175.7230  153.9800  200.4390 N.3    98  LEU98      -0.1245
     45  CA       174.4580  154.2710  201.1110 C.3    98  LEU98       0.1561
     46  C        173.4270  153.1700  200.8940 C.2    98  LEU98       0.2260
     47  O        172.9890  152.5160  201.8460 O.2    98  LEU98      -0.2867
     48  CB       173.9120  155.6180  200.6360 C.3    98  LEU98       0.0270
     49  CG       174.2220  156.8600  201.4780 C.3    98  LEU98       0.0019
     50  CD1      175.6880  157.2170  201.5530 C.3    98  LEU98       0.0001
     51  CD2      173.4340  158.0250  200.9170 C.3    98  LEU98       0.0001
     52  N        165.6740  147.3150  207.0020 N.3   112  GLY112     -0.1225
     53  CA       165.6830  147.9590  208.2990 C.3   112  GLY112      0.1811
     54  C        164.4970  148.8450  208.6090 C.2   112  GLY112      0.2280
     55  O        164.6750  149.9130  209.2060 O.2   112  GLY112     -0.2866
     56  N        162.7000  151.1070  207.6690 N.3   114  LYS114     -0.1231
     57  CA       162.5950  152.5190  207.4260 C.3   114  LYS114      0.1678
     58  C        163.4230  152.8680  206.2010 C.2   114  LYS114      0.2434
     59  O        164.5430  152.3600  206.0430 O.2   114  LYS114     -0.2733
     60  CB       163.0810  153.3250  208.6430 C.3   114  LYS114      0.0284
     61  CG       163.1400  154.8310  208.4260 C.3   114  LYS114      0.0035
     62  CD       161.7600  155.4430  208.2510 C.3   114  LYS114      0.0206
     63  CE       161.8570  156.9370  207.9760 C.3   114  LYS114      0.1093
     64  NZ       162.5110  157.2080  206.6620 N.3   114  LYS114     -0.1314
     65  N        162.9000  153.7110  205.3160 N.am  115  PRO115     -0.2718
     66  CA       163.7430  154.3090  204.2760 C.3   115  PRO115      0.1535
     67  C        164.7790  155.2810  204.8250 C.2   115  PRO115      0.2599
     68  O        164.6490  156.5000  204.6790 O.2   115  PRO115     -0.2715
     69  CB       162.7240  155.0320  203.3940 C.3   115  PRO115      0.0310
     70  CG       161.4740  154.2730  203.5780 C.3   115  PRO115      0.0237
     71  CD       161.4680  153.8570  205.0060 C.3   115  PRO115      0.0939
     72  N        165.8100  154.7380  205.4630 N.am  116  GLY116     -0.1941
     73  CA       166.9420  155.4920  205.9530 C.3   116  GLY116      0.2014
     74  C        168.1340  154.5640  205.9730 C.2   116  GLY116      0.2638
     75  O        168.0520  153.4650  206.5270 O.2   116  GLY116     -0.2714
     76  N        169.2390  154.9740  205.3650 N.am  117  GLU117     -0.1977
     77  CA       170.3270  154.0600  205.0520 C.3   117  GLU117      0.1602
     78  C        171.4870  154.2120  206.0290 C.2   117  GLU117      0.2287
     79  O        171.8970  155.3330  206.3540 O.2   117  GLU117     -0.2864
     80  CB       170.7850  154.2560  203.6030 C.3   117  GLU117      0.0415
     81  CG       171.2070  155.6630  203.2260 C.3   117  GLU117      0.1163
     82  CD       170.0590  156.5030  202.6930 C.2   117  GLU117      0.3649
     83  OE1      168.8890  156.1050  202.8720 O.co2 117  GLU117     -0.2457
     84  OE2      170.3310  157.5640  202.0940 O.co2 117  GLU117     -0.2457
     85  N        172.0190  154.2890  209.0180 N.3   119  GLY119     -0.1210
     86  CA       171.9050  155.0100  210.2630 C.3   119  GLY119      0.1956
     87  C        172.8910  156.1520  210.3510 C.2   119  GLY119      0.2612
     88  O        173.7110  156.1920  211.2740 O.2   119  GLY119     -0.2717
     89  N        172.8320  157.0820  209.3960 N.am  120  PHE120     -0.1962
     90  CA       173.6550  158.2790  209.4960 C.3   120  PHE120      0.1771
     91  C        173.1330  159.1460  210.6230 C.2   120  PHE120      0.2619
     92  O        172.2250  159.9580  210.4270 O.2   120  PHE120     -0.2715
     93  CB       173.6720  159.0780  208.1920 C.3   120  PHE120      0.0574
     94  CG       174.6310  158.5550  207.1630 C.ar  120  PHE120     -0.0200
     95  CD1      175.6060  157.6290  207.5040 C.ar  120  PHE120     -0.0042
     96  CD2      174.5790  159.0170  205.8590 C.ar  120  PHE120     -0.0042
     97  CE1      176.4980  157.1560  206.5570 C.ar  120  PHE120     -0.0003
     98  CE2      175.4670  158.5490  204.9070 C.ar  120  PHE120     -0.0003
     99  CZ       176.4250  157.6170  205.2560 C.ar  120  PHE120     -0.0000
    100  N        173.7020  158.9650  211.8020 N.am  121  ASN121     -0.1972
    101  CA       173.2580  159.6800  212.9840 C.3   121  ASN121      0.1688
    102  C        174.3860  159.7160  214.0080 C.2   121  ASN121      0.2292
    103  O        174.3560  158.9540  214.9830 O.2   121  ASN121     -0.2864
    104  CB       172.0230  159.0010  213.5710 C.3   121  ASN121      0.1181
    105  CG       171.2970  159.8720  214.5560 C.2   121  ASN121      0.2629
    106  OD1      171.6570  161.0290  214.7670 O.2   121  ASN121     -0.2716
    107  ND2      170.2740  159.3150  215.1900 N.am  121  ASN121     -0.0877
    108  N        167.7970  161.6300  219.0750 N.3   126  PRO126     -0.2102
    109  CA       166.5990  160.8290  218.7830 C.3   126  PRO126      0.1504
    110  C        166.8920  159.6000  217.9350 C.2   126  PRO126      0.2576
    111  O        167.7970  159.6100  217.0960 O.2   126  PRO126     -0.2718
    112  CB       165.6940  161.8150  218.0390 C.3   126  PRO126      0.0282
    113  CG       166.6260  162.6510  217.3090 C.3   126  PRO126      0.0208
    114  CD       167.8660  162.7800  218.1430 C.3   126  PRO126      0.0893
    115  N        166.1440  158.5280  218.1600 N.am  127  ASN127     -0.1961
    116  CA       166.1620  157.3660  217.2840 C.3   127  ASN127      0.1819
    117  C        165.0360  157.5060  216.2540 C.2   127  ASN127      0.2621
    118  O        164.4850  158.5940  216.0670 O.2   127  ASN127     -0.2715
    119  CB       166.0990  156.0780  218.1170 C.3   127  ASN127      0.1195
    120  CG       164.9050  156.0290  219.0630 C.2   127  ASN127      0.2630
    121  OD1      164.0410  156.9070  219.0650 O.2   127  ASN127     -0.2716
    122  ND2      164.8630  154.9870  219.8850 N.am  127  ASN127     -0.0877
    123  N        164.6800  156.4160  215.5710 N.am  128  ASP128     -0.1971
    124  CA       163.5810  156.4260  214.6010 C.3   128  ASP128      0.1709
    125  C        162.2330  156.4110  215.3300 C.2   128  ASP128      0.2293
    126  O        161.4760  155.4390  215.3120 O.2   128  ASP128     -0.2864
    127  CB       163.7090  155.2500  213.6450 C.3   128  ASP128      0.1436
    128  CG       164.9070  155.3740  212.7290 C.2   128  ASP128      0.3671
    129  OD1      165.3160  156.5160  212.4360 O.co2 128  ASP128     -0.2456
    130  OD2      165.4370  154.3280  212.3010 O.co2 128  ASP128     -0.2456
    131  N        159.8250  161.5450  215.4300 N.3   131  MET131     -0.1230
    132  CA       160.6400  162.5530  214.7540 C.3   131  MET131      0.1702
    133  C        160.6210  162.3580  213.2430 C.2   131  MET131      0.2592
    134  O        160.6680  163.3360  212.4840 O.2   131  MET131     -0.2718
    135  CB       162.0760  162.4790  215.2730 C.3   131  MET131      0.0401
    136  CG       163.0180  163.5600  214.7740 C.3   131  MET131      0.0596
    137  SD       162.6490  165.1740  215.4730 S.3   131  MET131     -0.1393
    138  CE       163.2160  164.9450  217.1570 C.3   131  MET131      0.0692
    139  N        160.5860  161.0910  212.7990 N.am  132  ARG132     -0.1980
    140  CA       160.3120  160.7460  211.4060 C.3   132  ARG132      0.1597
    141  C        159.0640  161.4450  210.8980 C.2   132  ARG132      0.2287
    142  O        159.0770  162.0430  209.8160 O.2   132  ARG132     -0.2864
    143  CB       160.1370  159.2340  211.2740 C.3   132  ARG132      0.0334
    144  CG       161.3640  158.4230  211.5950 C.3   132  ARG132      0.0492
    145  CD       161.0710  156.9440  211.5620 C.3   132  ARG132      0.2205
    146  NE       160.1890  156.5370  212.6450 N.pl3 132  ARG132     -0.0865
    147  CZ       159.6740  155.3190  212.7610 C.cat 132  ARG132      0.5346
    148  NH1      158.8780  155.0260  213.7810 N.pl3 132  ARG132      0.1354
    149  NH2      159.9590  154.3920  211.8590 N.pl3 132  ARG132      0.1354
    150  N        157.8900  164.2020  211.9020 N.3   134  ARG134     -0.1231
    151  CA       158.1640  165.6150  211.7180 C.3   134  ARG134      0.1694
    152  C        159.4110  165.8570  210.8860 C.2   134  ARG134      0.2591
    153  O        159.8290  167.0080  210.7380 O.2   134  ARG134     -0.2718
    154  CB       158.2580  166.3280  213.0680 C.3   134  ARG134      0.0321
    155  CG       159.4160  165.9580  213.9410 C.3   134  ARG134      0.0489
    156  CD       159.2800  166.6350  215.2870 C.3   134  ARG134      0.2205
    157  NE       158.1270  166.1350  216.0280 N.pl3 134  ARG134     -0.0865
    158  CZ       157.6860  166.6620  217.1650 C.cat 134  ARG134      0.5346
    159  NH1      158.3030  167.7080  217.6960 N.pl3 134  ARG134      0.1354
    160  NH2      156.6280  166.1460  217.7740 N.pl3 134  ARG134      0.1354
    161  N        160.0110  164.8030  210.3290 N.am  135  GLU135     -0.1979
    162  CA       161.0160  165.0300  209.2990 C.3   135  GLU135      0.1602
    163  C        160.3570  165.3480  207.9690 C.2   135  GLU135      0.2287
    164  O        160.7290  166.3210  207.3010 O.2   135  GLU135     -0.2864
    165  CB       161.9280  163.8150  209.1420 C.3   135  GLU135      0.0415
    166  CG       162.9390  163.9940  208.0130 C.3   135  GLU135      0.1163
    167  CD       163.8550  162.8040  207.8330 C.2   135  GLU135      0.3649
    168  OE1      163.6990  161.8140  208.5760 O.co2 135  GLU135     -0.2457
    169  OE2      164.7380  162.8590  206.9480 O.co2 135  GLU135     -0.2457
    170  N        159.0260  168.7190  207.2480 N.3   138  ASN138     -0.1240
    171  CA       160.1960  169.5630  207.0490 C.3   138  ASN138      0.1653
    172  C        160.9580  169.2350  205.7740 C.2   138  ASN138      0.2266
    173  O        161.9200  169.9400  205.4600 O.2   138  ASN138     -0.2867
    174  CB       161.1260  169.4500  208.2530 C.3   138  ASN138      0.1155
    175  CG       160.5760  170.1490  209.4740 C.2   138  ASN138      0.2627
    176  OD1      160.1170  171.2880  209.4000 O.2   138  ASN138     -0.2716
    177  ND2      160.5920  169.4580  210.6030 N.am  138  ASN138     -0.0877
@<TRIPOS>BOND
     1    30    31    2
     2    30    29    1
     3    44    45    1
     4    20    21    1
     5    48    45    1
     6    48    49    1
     7    46    45    1
     8    46    47    2
     9     1     2    1
    10    51    49    1
    11    11    12    2
    12    11    10    1
    13    32    29    1
    14    32    33    1
    15     3     4    2
    16     3     2    1
    17    29    28    1
    18    36    37    1
    19     9    10    1
    20    28    22   am
    21    49    50    1
    22    38    39    2
    23    38    37    1
    24    34    33    1
    25    21    22    1
    26    21    24    1
    27    22    23    2
    28     2     5    1
    29    10    13    1
    30    19    17    1
    31    84    82   ar
    32    33    35    1
    33    37    40    1
    34    13    14    1
    35    82    83   ar
    36    82    81    1
    37     5     6    1
    38     5     7    1
    39    24    25    1
    40    16    17    2
    41    16    15    1
    42    17    18    1
    43    81    80    1
    44    40    41    1
    45    69    70    1
    46    69    66    1
    47     6     8    1
    48    70    71    1
    49    80    77    1
    50    14    15    1
    51    25    26    1
    52    66    67    1
    53    66    65    1
    54    41    43    1
    55    41    42    1
    56    68    67    2
    57    67    72   am
    58    98    99   ar
    59    98    96   ar
    60    71    65    1
    61    77    76    1
    62    77    78    1
    63    27    26    1
    64    99    97   ar
    65    65    58   am
    66    76    74   am
    67   173   172    2
    68    72    73    1
    69   172   171    1
    70    96    94   ar
    71    73    74    1
    72    74    75    2
    73    78    79    2
    74    59    58    2
    75    58    57    1
    76    97    95   ar
    77    64    63    1
    78   169   167   ar
    79    52    53    1
    80   171   170    1
    81   171   174    1
    82    94    95   ar
    83    94    93    1
    84   164   163    2
    85    57    56    1
    86    57    60    1
    87   167   166    1
    88   167   168   ar
    89   163   162    1
    90    63    62    1
    91   166   165    1
    92    93    90    1
    93    62    61    1
    94   174   175    1
    95    53    54    1
    96    61    60    1
    97    54    55    2
    98    85    86    1
    99   165   162    1
   100   162   161    1
   101    89    90    1
   102    89    87   am
   103   176   175    2
   104   175   177   am
   105    90    91    1
   106   142   141    2
   107    86    87    1
   108   161   152   am
   109    87    88    2
   110    92    91    2
   111    91   100   am
   112   153   152    2
   113   152   151    1
   114   141   140    1
   115   143   140    1
   116   143   144    1
   117   140   139    1
   118   145   144    1
   119   145   146    1
   120   151   150    1
   121   151   154    1
   122   100   101    1
   123   149   147    1
   124   130   128   ar
   125   129   128   ar
   126   134   133    2
   127   146   147    2
   128   128   127    1
   129   147   148    1
   130   139   133   am
   131   101   104    1
   132   101   102    1
   133   154   155    1
   134   133   132    1
   135   104   105    1
   136   127   124    1
   137   155   156    1
   138   102   103    2
   139   105   106    2
   140   105   107   am
   141   124   125    1
   142   124   123    1
   143   132   135    1
   144   132   131    1
   145   136   135    1
   146   136   137    1
   147   156   157    1
   148   126   125    2
   149   137   138    1
   150   123   117   am
   151   157   158    2
   152   118   117    2
   153   117   116    1
   154   111   110    2
   155   158   159    1
   156   158   160    1
   157   116   119    1
   158   116   115    1
   159   113   112    1
   160   113   114    1
   161   110   115   am
   162   110   109    1
   163   112   109    1
   164   119   120    1
   165   114   108    1
   166   109   108    1
   167   120   121    2
   168   120   122   am
