@<TRIPOS>MOLECULE
tmp/5zgbQ17.pdb
 200 194 0 0 0
SMALL
GASTEIGER

@<TRIPOS>ATOM
      1  N        200.6250  106.2650  111.9610 N.3    42  ILE42      -0.1245
      2  CA       200.5350  106.1060  110.5170 C.3    42  ILE42       0.1561
      3  C        200.1370  107.4220  109.8590 C.2    42  ILE42       0.2260
      4  O        200.6630  107.7840  108.8020 O.2    42  ILE42      -0.2867
      5  CB       199.5760  104.9540  110.1740 C.3    42  ILE42       0.0252
      6  CG1      200.1370  103.6400  110.7120 C.3    42  ILE42       0.0019
      7  CG2      199.4300  104.7920  108.6960 C.3    42  ILE42       0.0019
      8  CD1      199.1680  102.4840  110.6350 C.3    42  ILE42       0.0001
      9  N        202.5420  109.3680  107.1180 N.3    46  ARG46      -0.1245
     10  CA       202.0960  109.7840  105.7840 C.3    46  ARG46       0.1563
     11  C        202.3200  111.2760  105.5740 C.2    46  ARG46       0.2260
     12  O        202.9370  111.6920  104.5790 O.2    46  ARG46      -0.2867
     13  CB       200.6120  109.4770  105.5650 C.3    46  ARG46       0.0307
     14  CG       200.1570  108.0340  105.6850 C.3    46  ARG46       0.0489
     15  CD       198.6890  107.9060  105.2710 C.3    46  ARG46       0.2205
     16  NE       197.9590  106.7950  105.8720 N.pl3  46  ARG46      -0.0865
     17  CZ       198.0310  105.5270  105.4960 C.cat  46  ARG46       0.5346
     18  NH1      198.8550  105.1750  104.5440 N.pl3  46  ARG46       0.1354
     19  NH2      197.2910  104.6020  106.0990 N.pl3  46  ARG46       0.1354
     20  N        206.0200  112.1520  105.2570 N.3    49  MET49      -0.1230
     21  CA       206.5910  111.8360  103.9510 C.3    49  MET49       0.1702
     22  C        206.1860  112.8740  102.9150 C.2    49  MET49       0.2592
     23  O        207.0190  113.3130  102.1070 O.2    49  MET49      -0.2718
     24  CB       206.1740  110.4340  103.5180 C.3    49  MET49       0.0401
     25  CG       206.8400  109.3300  104.2950 C.3    49  MET49       0.0596
     26  SD       206.4400  107.6440  103.8190 S.3    49  MET49      -0.1393
     27  CE       204.8340  107.4690  104.5710 C.3    49  MET49       0.0692
     28  N        204.9220  113.3100  102.9590 N.am   50  LEU50      -0.1980
     29  CA       204.5010  114.4470  102.1460 C.3    50  LEU50       0.1596
     30  C        205.2820  115.7120  102.4720 C.2    50  LEU50       0.2287
     31  O        205.5720  116.5090  101.5730 O.2    50  LEU50      -0.2864
     32  CB       203.0170  114.7050  102.3470 C.3    50  LEU50       0.0297
     33  CG       202.0670  113.7210  101.6930 C.3    50  LEU50       0.0022
     34  CD1      200.6910  114.0140  102.2050 C.3    50  LEU50       0.0001
     35  CD2      202.1230  113.9150  100.1940 C.3    50  LEU50       0.0001
     36  N        209.0710  115.2430  101.0430 N.3    53  LEU53      -0.1245
     37  CA       209.0870  115.3420   99.5880 C.3    53  LEU53       0.1561
     38  C        208.6480  116.7280   99.1370 C.2    53  LEU53       0.2260
     39  O        209.0600  117.1970   98.0680 O.2    53  LEU53      -0.2867
     40  CB       208.2020  114.2630   98.9710 C.3    53  LEU53       0.0270
     41  CG       208.2860  114.1200   97.4510 C.3    53  LEU53       0.0019
     42  CD1      209.6770  113.6610   97.0490 C.3    53  LEU53       0.0001
     43  CD2      207.2180  113.1990   96.8970 C.3    53  LEU53       0.0001
     44  N        188.7420  116.2880  104.2910 N.3    98  TRP98      -0.1241
     45  CA       189.2430  114.9120  104.2820 C.3    98  TRP98       0.1605
     46  C        189.2730  114.2940  105.6670 C.2    98  TRP98       0.2264
     47  O        188.8990  113.1310  105.8470 O.2    98  TRP98      -0.2867
     48  CB       190.6540  114.8780  103.7040 C.3    98  TRP98       0.0550
     49  CG       191.2220  113.5000  103.6170 C.ar   98  TRP98       0.0003
     50  CD1      192.0110  112.8710  104.5380 C.ar   98  TRP98       0.0946
     51  CD2      191.0900  112.6000  102.5220 C.ar   98  TRP98       0.0152
     52  NE1      192.3460  111.6180  104.0950 N.ar   98  TRP98      -0.2442
     53  CE2      191.7970  111.4290  102.8550 C.ar   98  TRP98       0.0810
     54  CE3      190.4270  112.6620  101.2950 C.ar   98  TRP98       0.0012
     55  CZ2      191.8650  110.3350  102.0040 C.ar   98  TRP98       0.0191
     56  CZ3      190.4970  111.5800  100.4530 C.ar   98  TRP98       0.0001
     57  CH2      191.2100  110.4300  100.8100 C.ar   98  TRP98       0.0015
     58  N        192.4470   97.6390  111.3190 N.3   116  GLU116     -0.1245
     59  CA       193.8920   97.6910  111.0720 C.3   116  GLU116      0.1567
     60  C        194.2370   99.1460  110.7710 C.2   116  GLU116      0.2260
     61  O        194.2970   99.5470  109.6030 O.2   116  GLU116     -0.2867
     62  CB       194.3580   96.7310  109.9670 C.3   116  GLU116      0.0388
     63  CG       195.8690   96.5570  109.8750 C.3   116  GLU116      0.1160
     64  CD       196.5270   97.5290  108.9150 C.2   116  GLU116      0.3649
     65  OE1      195.9030   97.8710  107.8890 O.co2 116  GLU116     -0.2457
     66  OE2      197.6570   97.9710  109.1990 O.co2 116  GLU116     -0.2457
     67  N        195.4640  101.7510  109.5780 N.3   118  GLY118     -0.1210
     68  CA       195.9510  102.6040  108.5170 C.3   118  GLY118      0.1956
     69  C        194.8010  102.7040  107.5410 C.2   118  GLY118      0.2612
     70  O        193.7890  103.3340  107.8550 O.2   118  GLY118     -0.2717
     71  N        194.9710  102.1050  106.3580 N.am  119  TYR119     -0.1962
     72  CA       193.9110  101.4740  105.5590 C.3   119  TYR119      0.1771
     73  C        192.7850  102.4460  105.1880 C.2   119  TYR119      0.2620
     74  O        191.6630  102.3810  105.6890 O.2   119  TYR119     -0.2715
     75  CB       193.3790  100.2290  106.2820 C.3   119  TYR119      0.0574
     76  CG       192.3940   99.4100  105.4780 C.ar  119  TYR119     -0.0198
     77  CD1      192.8000   98.7180  104.3440 C.ar  119  TYR119     -0.0009
     78  CD2      191.0690   99.2950  105.8770 C.ar  119  TYR119     -0.0009
     79  CE1      191.9020   97.9620  103.6100 C.ar  119  TYR119      0.0417
     80  CE2      190.1670   98.5420  105.1530 C.ar  119  TYR119      0.0417
     81  CZ       190.5860   97.8760  104.0230 C.ar  119  TYR119      0.1957
     82  OH       189.6840   97.1240  103.3040 O.3   119  TYR119     -0.2866
     83  N        193.1310  103.3950  104.3320 N.am  120  PHE120     -0.1960
     84  CA       192.1020  104.1130  103.5820 C.3   120  PHE120      0.1771
     85  C        191.8860  103.4680  102.2210 C.2   120  PHE120      0.2620
     86  O        191.7980  104.1610  101.2130 O.2   120  PHE120     -0.2715
     87  CB       192.4950  105.5750  103.4330 C.3   120  PHE120      0.0574
     88  CG       192.5460  106.3220  104.7280 C.ar  120  PHE120     -0.0200
     89  CD1      191.3990  106.8770  105.2690 C.ar  120  PHE120     -0.0042
     90  CD2      193.7400  106.4560  105.4140 C.ar  120  PHE120     -0.0042
     91  CE1      191.4450  107.5650  106.4640 C.ar  120  PHE120     -0.0003
     92  CE2      193.7930  107.1390  106.6130 C.ar  120  PHE120     -0.0003
     93  CZ       192.6430  107.6940  107.1380 C.ar  120  PHE120     -0.0000
     94  N        191.7630  102.1400  102.1940 N.am  121  GLY121     -0.1940
     95  CA       191.7280  101.3840  100.9460 C.3   121  GLY121      0.2014
     96  C        192.9850  101.5920  100.1140 C.2   121  GLY121      0.2639
     97  O        194.0950  101.2370  100.5250 O.2   121  GLY121     -0.2714
     98  N        192.7720  102.1200   98.9060 N.am  122  PHE122     -0.1959
     99  CA       193.7410  102.8660   98.0970 C.3   122  PHE122      0.1771
    100  C        194.9910  102.0460   97.7610 C.2   122  PHE122      0.2619
    101  O        196.0850  102.2660   98.2800 O.2   122  PHE122     -0.2715
    102  CB       194.1120  104.1930   98.7660 C.3   122  PHE122      0.0574
    103  CG       194.8760  105.1150   97.8690 C.ar  122  PHE122     -0.0200
    104  CD1      194.2580  105.6760   96.7660 C.ar  122  PHE122     -0.0042
    105  CD2      196.1920  105.4380   98.1310 C.ar  122  PHE122     -0.0042
    106  CE1      194.9410  106.5260   95.9270 C.ar  122  PHE122     -0.0003
    107  CE2      196.8840  106.2920   97.2970 C.ar  122  PHE122     -0.0003
    108  CZ       196.2560  106.8370   96.1930 C.ar  122  PHE122     -0.0000
    109  N        194.7810  101.0550   96.8980 N.am  123  ASP123     -0.1971
    110  CA       195.8640  100.4850   96.0990 C.3   123  ASP123      0.1709
    111  C        195.5150  100.6030   94.6230 C.2   123  ASP123      0.2293
    112  O        194.8760   99.7040   94.0550 O.2   123  ASP123     -0.2864
    113  CB       196.1390   99.0310   96.4590 C.3   123  ASP123      0.1436
    114  CG       197.2820   98.4570   95.6500 C.2   123  ASP123      0.3671
    115  OD1      198.4490   98.7680   95.9610 O.co2 123  ASP123     -0.2456
    116  OD2      197.0130   97.7250   94.6740 O.co2 123  ASP123     -0.2456
    117  N        197.3490   99.8490   92.1310 N.3   125  LEU125     -0.1245
    118  CA       198.4990   99.1450   91.5880 C.3   125  LEU125      0.1561
    119  C        198.0990   97.7460   91.1500 C.2   125  LEU125      0.2260
    120  O        197.2660   97.0890   91.7800 O.2   125  LEU125     -0.2867
    121  CB       199.6470   99.0340   92.5990 C.3   125  LEU125      0.0270
    122  CG       200.4000  100.3090   92.9630 C.3   125  LEU125      0.0019
    123  CD1      201.4370  100.0080   94.0260 C.3   125  LEU125      0.0001
    124  CD2      201.0480  100.9080   91.7280 C.3   125  LEU125      0.0001
    125  N        201.6060   93.7780   92.7040 N.3   128  GLY128     -0.1210
    126  CA       202.3480   94.3150   93.8300 C.3   128  GLY128      0.1956
    127  C        201.5000   94.9530   94.9110 C.2   128  GLY128      0.2612
    128  O        202.0150   95.3350   95.9660 O.2   128  GLY128     -0.2717
    129  N        200.2020   95.0870   94.6640 N.am  129  GLY129     -0.1942
    130  CA       199.3070   95.5830   95.6880 C.3   129  GLY129      0.2014
    131  C        198.6480   94.4780   96.4850 C.2   129  GLY129      0.2639
    132  O        197.4240   94.3280   96.4540 O.2   129  GLY129     -0.2714
    133  N        199.4480   93.6970   97.2030 N.am  130  THR130     -0.1950
    134  CA       198.9330   92.5490   97.9380 C.3   130  THR130      0.1897
    135  C        198.2980   93.0100   99.2430 C.2   130  THR130      0.2313
    136  O        198.9710   93.6100  100.0850 O.2   130  THR130     -0.2863
    137  CB       200.0520   91.5500   98.2200 C.3   130  THR130      0.1794
    138  OG1      200.6220   91.1030   96.9840 O.3   130  THR130     -0.2208
    139  CG2      199.5200   90.3550   98.9930 C.3   130  THR130      0.0378
    140  N        203.3440   90.8310  101.4380 N.3   135  GLN135     -0.1231
    141  CA       203.7390   92.1360  100.9280 C.3   135  GLN135      0.1698
    142  C        202.9960   93.2650  101.6260 C.2   135  GLN135      0.2592
    143  O        203.4800   94.4020  101.6420 O.2   135  GLN135     -0.2718
    144  CB       203.5150   92.1740   99.4160 C.3   135  GLN135      0.0381
    145  CG       204.1690   93.3260   98.6770 C.3   135  GLN135      0.0905
    146  CD       203.9910   93.2080   97.1810 C.2   135  GLN135      0.2608
    147  OE1      203.3050   92.3080   96.6980 O.2   135  GLN135     -0.2717
    148  NE2      204.6240   94.1020   96.4350 N.am  135  GLN135     -0.0878
    149  N        201.8500   92.9620  102.2320 N.am  136  TRP136     -0.1976
    150  CA       201.1280   93.9640  103.0030 C.3   136  TRP136      0.1640
    151  C        201.8810   94.3280  104.2730 C.2   136  TRP136      0.2290
    152  O        201.9770   95.5080  104.6320 O.2   136  TRP136     -0.2864
    153  CB       199.7400   93.4410  103.3430 C.3   136  TRP136      0.0576
    154  CG       198.8760   94.4390  103.9890 C.ar  136  TRP136      0.0006
    155  CD1      198.5660   94.5260  105.3110 C.ar  136  TRP136      0.0946
    156  CD2      198.1890   95.5070  103.3410 C.ar  136  TRP136      0.0152
    157  NE1      197.7240   95.5890  105.5290 N.ar  136  TRP136     -0.2442
    158  CE2      197.4780   96.2070  104.3310 C.ar  136  TRP136      0.0810
    159  CE3      198.1070   95.9420  102.0170 C.ar  136  TRP136      0.0012
    160  CZ2      196.6950   97.3140  104.0360 C.ar  136  TRP136      0.0191
    161  CZ3      197.3330   97.0350  101.7280 C.ar  136  TRP136      0.0001
    162  CH2      196.6350   97.7080  102.7290 C.ar  136  TRP136      0.0015
    163  N        205.5710   95.6310  103.2210 N.3   139  MET139     -0.1230
    164  CA       205.4960   96.9430  102.5980 C.3   139  MET139      0.1702
    165  C        204.9270   97.9830  103.5490 C.2   139  MET139      0.2592
    166  O        205.3280   99.1540  103.4930 O.2   139  MET139     -0.2718
    167  CB       204.6600   96.8720  101.3170 C.3   139  MET139      0.0401
    168  CG       204.6480   98.1600  100.5050 C.3   139  MET139      0.0596
    169  SD       203.7510   98.0490   98.9490 S.3   139  MET139     -0.1393
    170  CE       204.9230   97.1390   97.9520 C.3   139  MET139      0.0692
    171  N        204.0240   97.5690  104.4430 N.am  140  GLN140     -0.1979
    172  CA       203.5440   98.4640  105.4900 C.3   140  GLN140      0.1601
    173  C        204.6660   98.8480  106.4390 C.2   140  GLN140      0.2287
    174  O        204.7020   99.9780  106.9410 O.2   140  GLN140     -0.2864
    175  CB       202.3900   97.8070  106.2410 C.3   140  GLN140      0.0394
    176  CG       201.7170   98.7110  107.2400 C.3   140  GLN140      0.0908
    177  CD       200.5230   98.0640  107.8900 C.2   140  GLN140      0.2608
    178  OE1      200.2040   96.9060  107.6210 O.2   140  GLN140     -0.2717
    179  NE2      199.8480   98.8110  108.7510 N.am  140  GLN140     -0.0878
    180  N        207.5710   99.2320  105.2110 N.3   142  GLY142     -0.1210
    181  CA       208.2760  100.2090  104.3960 C.3   142  GLY142      0.1956
    182  C        207.6940  101.6030  104.5250 C.2   142  GLY142      0.2611
    183  O        208.4360  102.5830  104.6640 O.2   142  GLY142     -0.2717
    184  N        206.3600  101.7060  104.4880 N.am  143  GLU143     -0.1979
    185  CA       205.6850  102.9730  104.7540 C.3   143  GLU143      0.1602
    186  C        205.9780  103.4620  106.1630 C.2   143  GLU143      0.2287
    187  O        206.1370  104.6670  106.3990 O.2   143  GLU143     -0.2864
    188  CB       204.1770  102.8080  104.5680 C.3   143  GLU143      0.0415
    189  CG       203.4010  104.1000  104.7140 C.3   143  GLU143      0.1163
    190  CD       201.9090  103.9400  104.5520 C.2   143  GLU143      0.3649
    191  OE1      201.4340  102.8000  104.3920 O.co2 143  GLU143     -0.2457
    192  OE2      201.2040  104.9700  104.5680 O.co2 143  GLU143     -0.2457
    193  N        210.0420  104.4100  106.3410 N.3   146  ASN146     -0.1240
    194  CA       210.2720  105.6090  105.5420 C.3   146  ASN146      0.1653
    195  C        209.4810  106.7980  106.0680 C.2   146  ASN146      0.2266
    196  O        209.8980  107.9470  105.8860 O.2   146  ASN146     -0.2867
    197  CB       209.9350  105.3480  104.0770 C.3   146  ASN146      0.1155
    198  CG       210.9710  104.4850  103.3860 C.2   146  ASN146      0.2627
    199  OD1      210.6950  103.3570  102.9840 O.2   146  ASN146     -0.2716
    200  ND2      212.1740  105.0210  103.2350 N.am  146  ASN146     -0.0877
@<TRIPOS>BOND
     1   119   118    1
     2   119   120    2
     3   118   117    1
     4   118   121    1
     5   124   122    1
     6   121   122    1
     7   125   126    1
     8   122   123    1
     9   126   127    1
    10   112   111    2
    11   111   110    1
    12   129   127   am
    13   129   130    1
    14   116   114   ar
    15   127   128    2
    16   114   115   ar
    17   114   113    1
    18   130   131    1
    19   106   108   ar
    20   106   104   ar
    21   110   113    1
    22   110   109    1
    23   108   107   ar
    24   148   146   am
    25   132   131    2
    26   131   133   am
    27   147   146    2
    28   104   103   ar
    29    43    41    1
    30   109   100   am
    31   138   137    1
    32    42    41    1
    33   146   145    1
    34   133   134    1
    35   107   105   ar
    36    41    40    1
    37   100    99    1
    38   100   101    2
    39   103   105   ar
    40   103   102    1
    41   134   137    1
    42   134   135    1
    43   170   169    1
    44    39    38    2
    45    99   102    1
    46    99    98    1
    47   137   139    1
    48   145   144    1
    49    98    96   am
    50   169   168    1
    51    40    37    1
    52    38    37    1
    53   135   136    2
    54   144   141    1
    55    37    36    1
    56    96    97    2
    57    96    95    1
    58    35    33    1
    59    56    57   ar
    60    56    54   ar
    61   168   167    1
    62    57    55   ar
    63   141   140    1
    64   141   142    1
    65    95    94    1
    66    86    85    2
    67    54    51   ar
    68   167   164    1
    69    31    30    2
    70   142   143    2
    71   142   149   am
    72    33    34    1
    73    33    32    1
    74   161   159   ar
    75   161   162   ar
    76    55    53   ar
    77   159   156   ar
    78    23    22    2
    79    29    32    1
    80    29    30    1
    81    29    28    1
    82    94    85   am
    83    85    84    1
    84   149   150    1
    85    51    53   ar
    86    51    49   ar
    87   164   163    1
    88   164   165    1
    89   162   160   ar
    90    53    52   ar
    91    22    28   am
    92    22    21    1
    93   199   198    2
    94   150   153    1
    95   150   151    1
    96   200   198   am
    97    82    81    1
    98   156   154   ar
    99   156   158   ar
   100   153   154    1
   101   198   197    1
   102    87    84    1
   103    87    88    1
   104   166   165    2
   105    24    21    1
   106    24    25    1
   107   165   171   am
   108    84    83    1
   109    79    81   ar
   110    79    77   ar
   111    49    48    1
   112    49    50   ar
   113    48    45    1
   114    26    25    1
   115    26    27    1
   116    21    20    1
   117   154   155   ar
   118    81    80   ar
   119   160   158   ar
   120   197   194    1
   121    52    50   ar
   122   151   152    2
   123    45    44    1
   124    45    46    1
   125   158   157   ar
   126    83    73   am
   127    77    76   ar
   128   191   190   ar
   129   181   182    1
   130   181   180    1
   131   171   172    1
   132   184   182   am
   133   184   185    1
   134   182   183    2
   135    18    17    1
   136   190   192   ar
   137   190   189    1
   138   188   189    1
   139   188   185    1
   140    12    11    2
   141    88    89   ar
   142    88    90   ar
   143   185   186    1
   144    80    78   ar
   145    73    72    1
   146    73    74    2
   147    89    91   ar
   148    15    14    1
   149    15    16    1
   150   155   157   ar
   151    90    92   ar
   152    76    78   ar
   153    76    75    1
   154   172   175    1
   155   172   173    1
   156    17    16    2
   157    17    19    1
   158   194   195    1
   159   194   193    1
   160    72    75    1
   161    72    71    1
   162    13    14    1
   163    13    10    1
   164    11    10    1
   165    46    47    2
   166    10     9    1
   167   196   195    2
   168   186   187    2
   169   175   176    1
   170    71    69   am
   171   173   174    2
   172    91    93   ar
   173    92    93   ar
   174   176   177    1
   175    69    70    2
   176    69    68    1
   177   178   177    2
   178    65    64   ar
   179   177   179   am
   180    68    67    1
   181     7     5    1
   182     4     3    2
   183    64    66   ar
   184    64    63    1
   185    61    60    2
   186     3     2    1
   187    63    62    1
   188    62    59    1
   189     5     2    1
   190     5     6    1
   191     2     1    1
   192     8     6    1
   193    60    59    1
   194    59    58    1
