@<TRIPOS>MOLECULE
tmp/5zgbP02.pdb
 175 169 0 0 0
SMALL
GASTEIGER

@<TRIPOS>ATOM
      1  N        177.8940  106.1530   97.4880 N.3    22  PHE22      -0.1227
      2  CA       178.6370  107.2960   98.0150 C.3    22  PHE22       0.1736
      3  C        177.7410  108.0660   98.9830 C.2    22  PHE22       0.2595
      4  O        176.9730  108.9380   98.5770 O.2    22  PHE22      -0.2718
      5  CB       179.1160  108.1880   96.8860 C.3    22  PHE22       0.0547
      6  CG       180.0550  109.2620   97.3180 C.ar   22  PHE22      -0.0202
      7  CD1      181.3720  108.9600   97.5990 C.ar   22  PHE22      -0.0042
      8  CD2      179.6320  110.5710   97.4300 C.ar   22  PHE22      -0.0042
      9  CE1      182.2520  109.9410   97.9910 C.ar   22  PHE22      -0.0003
     10  CE2      180.5100  111.5580   97.8230 C.ar   22  PHE22      -0.0003
     11  CZ       181.8180  111.2410   98.0980 C.ar   22  PHE22      -0.0000
     12  N        177.8610  107.7380  100.2650 N.am   23  ASP23      -0.1960
     13  CA       177.3740  108.6030  101.3360 C.3    23  ASP23       0.1825
     14  C        178.3960  108.5120  102.4520 C.2    23  ASP23       0.2464
     15  O        178.2970  107.6570  103.3410 O.2    23  ASP23      -0.2730
     16  CB       175.9820  108.2040  101.8190 C.3    23  ASP23       0.1450
     17  CG       175.3600  109.2450  102.7410 C.2    23  ASP23       0.3671
     18  OD1      176.0050  110.2710  103.0430 O.co2  23  ASP23      -0.2456
     19  OD2      174.2120  109.0410  103.1740 O.co2  23  ASP23      -0.2456
     20  N        179.4130  109.3710  102.4260 N.am   24  PRO24      -0.2715
     21  CA       180.4070  109.3320  103.5010 C.3    24  PRO24       0.1536
     22  C        179.8850  109.8930  104.8030 C.2    24  PRO24       0.2598
     23  O        180.1600  109.3340  105.8710 O.2    24  PRO24      -0.2715
     24  CB       181.5490  110.1810  102.9400 C.3    24  PRO24       0.0310
     25  CG       181.3280  110.2210  101.4890 C.3    24  PRO24       0.0237
     26  CD       179.8540  110.2250  101.3170 C.3    24  PRO24       0.0939
     27  N        179.1240  110.9790  104.7480 N.am   25  LEU25      -0.1978
     28  CA       178.6350  111.6370  105.9480 C.3    25  LEU25       0.1596
     29  C        177.3290  111.0470  106.4570 C.2    25  LEU25       0.2287
     30  O        176.7000  111.6600  107.3260 O.2    25  LEU25      -0.2864
     31  CB       178.4610  113.1280  105.6880 C.3    25  LEU25       0.0297
     32  CG       179.7460  113.8810  105.3710 C.3    25  LEU25       0.0022
     33  CD1      179.4320  115.3200  105.0420 C.3    25  LEU25       0.0001
     34  CD2      180.6970  113.7920  106.5410 C.3    25  LEU25       0.0001
     35  N        174.2920  110.8100  105.3260 N.3    27  PHE27      -0.1241
     36  CA       173.0310  111.5320  105.1980 C.3    27  PHE27       0.1605
     37  C        171.8620  110.6190  104.8610 C.2    27  PHE27       0.2264
     38  O        170.7170  111.0480  104.9990 O.2    27  PHE27      -0.2867
     39  CB       173.0890  112.6000  104.1130 C.3    27  PHE27       0.0534
     40  CG       173.9310  113.7850  104.4410 C.ar   27  PHE27      -0.0203
     41  CD1      173.4660  114.7650  105.2990 C.ar   27  PHE27      -0.0042
     42  CD2      175.1570  113.9600  103.8290 C.ar   27  PHE27      -0.0042
     43  CE1      174.2300  115.8760  105.5780 C.ar   27  PHE27      -0.0003
     44  CE2      175.9250  115.0690  104.0990 C.ar   27  PHE27      -0.0003
     45  CZ       175.4630  116.0270  104.9780 C.ar   27  PHE27      -0.0000
     46  N        166.3380  118.5840   91.9320 N.3    43  ASN43      -0.1240
     47  CA       167.4500  119.5250   91.8240 C.3    43  ASN43       0.1653
     48  C        168.2480  119.3150   90.5440 C.2    43  ASN43       0.2266
     49  O        168.7330  120.2850   89.9500 O.2    43  ASN43      -0.2867
     50  CB       168.3730  119.4000   93.0360 C.3    43  ASN43       0.1155
     51  CG       167.8250  120.0850   94.2640 C.2    43  ASN43       0.2627
     52  OD1      167.3440  121.2080   94.1940 O.2    43  ASN43      -0.2716
     53  ND2      167.8970  119.4130   95.4010 N.am   43  ASN43      -0.0877
     54  N        165.9250  120.7240   87.5700 N.3    46  VAL46      -0.1231
     55  CA       165.7430  122.1660   87.4800 C.3    46  VAL46       0.1692
     56  C        167.0920  122.8740   87.3510 C.2    46  VAL46       0.2591
     57  O        167.1840  123.9280   86.7080 O.2    46  VAL46      -0.2718
     58  CB       164.9060  122.6900   88.6610 C.3    46  VAL46       0.0266
     59  CG1      165.6830  122.7010   89.9470 C.3    46  VAL46       0.0020
     60  CG2      164.3650  124.0600   88.3540 C.3    46  VAL46       0.0020
     61  N        168.1680  122.2930   87.8950 N.am   47  ALA47      -0.1980
     62  CA       169.4940  122.8150   87.6020 C.3    47  ALA47       0.1597
     63  C        169.8760  122.5050   86.1720 C.2    47  ALA47       0.2287
     64  O        170.6600  123.2370   85.5600 O.2    47  ALA47      -0.2864
     65  CB       170.5250  122.2230   88.5540 C.3    47  ALA47       0.0319
     66  N        167.6870  122.3880   83.5330 N.3    49  LEU49      -0.1231
     67  CA       167.0440  123.4170   82.7280 C.3    49  LEU49       0.1693
     68  C        167.6790  124.7790   82.9490 C.2    49  LEU49       0.2591
     69  O        167.7320  125.5940   82.0220 O.2    49  LEU49      -0.2718
     70  CB       165.5600  123.4910   83.0570 C.3    49  LEU49       0.0284
     71  CG       164.7290  122.2620   82.7210 C.3    49  LEU49       0.0019
     72  CD1      163.2970  122.4860   83.1640 C.3    49  LEU49       0.0001
     73  CD2      164.8080  121.9570   81.2380 C.3    49  LEU49       0.0001
     74  N        168.1620  125.0430   84.1620 N.am   50  ALA50      -0.1980
     75  CA       168.7420  126.3480   84.4470 C.3    50  ALA50       0.1597
     76  C        170.0810  126.5260   83.7400 C.2    50  ALA50       0.2287
     77  O        170.3500  127.5860   83.1550 O.2    50  ALA50      -0.2864
     78  CB       168.8810  126.5220   85.9520 C.3    50  ALA50       0.0319
     79  N        169.3220  127.2440   80.2260 N.3    53  HIS53      -0.1226
     80  CA       169.2340  128.6910   80.0240 C.3    53  HIS53       0.1752
     81  C        170.6120  129.3290   79.9330 C.2    53  HIS53       0.2596
     82  O        170.8300  130.2460   79.1310 O.2    53  HIS53      -0.2718
     83  CB       168.4230  129.3670   81.1310 C.3    53  HIS53       0.0759
     84  CG       168.6340  130.8490   81.1920 C.ar   53  HIS53       0.0818
     85  ND1      169.4730  131.4360   82.1140 N.ar   53  HIS53      -0.2268
     86  CD2      168.2200  131.8470   80.3760 C.ar   53  HIS53       0.1154
     87  CE1      169.5010  132.7400   81.9110 C.ar   53  HIS53       0.1986
     88  NE2      168.7480  133.0160   80.8620 N.ar   53  HIS53      -0.2212
     89  N        171.5610  128.8460   80.7230 N.am   54  PHE54      -0.1976
     90  CA       172.9320  129.3120   80.5600 C.3    54  PHE54       0.1639
     91  C        173.6670  128.6310   79.4090 C.2    54  PHE54       0.2290
     92  O        174.8710  128.8580   79.2440 O.2    54  PHE54      -0.2864
     93  CB       173.6980  129.1310   81.8660 C.3    54  PHE54       0.0560
     94  CG       173.3360  130.1360   82.9130 C.ar   54  PHE54      -0.0200
     95  CD1      172.7680  131.3510   82.5600 C.ar   54  PHE54      -0.0042
     96  CD2      173.5310  129.8570   84.2520 C.ar   54  PHE54      -0.0042
     97  CE1      172.4330  132.2720   83.5240 C.ar   54  PHE54      -0.0003
     98  CE2      173.1950  130.7780   85.2180 C.ar   54  PHE54      -0.0003
     99  CZ       172.6450  131.9880   84.8510 C.ar   54  PHE54      -0.0000
    100  N        173.1910  137.2710   83.1890 N.3    72  ALA72      -0.1245
    101  CA       173.3270  136.1320   84.1030 C.3    72  ALA72       0.1562
    102  C        173.4840  136.5080   85.5760 C.2    72  ALA72       0.2260
    103  O        173.5120  135.6120   86.4260 O.2    72  ALA72      -0.2867
    104  CB       174.4900  135.2050   83.7140 C.3    72  ALA72       0.0290
    105  N        170.3380  140.0510   85.8400 N.3    75  ALA75      -0.1231
    106  CA       169.2020  139.6990   84.9950 C.3    75  ALA75       0.1694
    107  C        168.0420  139.1940   85.8400 C.2    75  ALA75       0.2592
    108  O        166.8730  139.4660   85.5360 O.2    75  ALA75      -0.2718
    109  CB       169.6180  138.6500   83.9650 C.3    75  ALA75       0.0304
    110  N        168.3570  138.4540   86.9050 N.am   76  HIS76      -0.1976
    111  CA       167.3850  138.1590   87.9490 C.3    76  HIS76       0.1656
    112  C        166.7840  139.4320   88.5260 C.2    76  HIS76       0.2291
    113  O        165.5630  139.5450   88.6620 O.2    76  HIS76      -0.2864
    114  CB       168.0520  137.3450   89.0480 C.3    76  HIS76       0.0771
    115  CG       167.1480  137.0390   90.1930 C.ar   76  HIS76       0.0820
    116  ND1      167.0500  137.8510   91.3010 N.ar   76  HIS76      -0.2267
    117  CD2      166.2810  136.0210   90.3920 C.ar   76  HIS76       0.1154
    118  CE1      166.1720  137.3370   92.1420 C.ar   76  HIS76       0.1986
    119  NE2      165.6870  136.2310   91.6090 N.ar   76  HIS76      -0.2212
    120  N        158.0780  137.8300   87.4280 N.3    85  MET85      -0.1245
    121  CA       158.8250  136.7540   88.0550 C.3    85  MET85       0.1570
    122  C        158.0410  136.1760   89.2240 C.2    85  MET85       0.2261
    123  O        158.1800  134.9900   89.5330 O.2    85  MET85      -0.2867
    124  CB       160.2060  137.2530   88.4930 C.3    85  MET85       0.0387
    125  CG       161.1370  136.1560   88.9850 C.3    85  MET85       0.0595
    126  SD       162.7810  136.7100   89.4660 S.3    85  MET85      -0.1393
    127  CE       163.5460  136.9210   87.8700 C.3    85  MET85       0.0692
    128  N        155.7030  133.6430   87.4460 N.3    88  ILE88      -0.1245
    129  CA       156.1910  132.3040   87.1560 C.3    88  ILE88       0.1561
    130  C        156.2250  131.4480   88.4200 C.2    88  ILE88       0.2260
    131  O        156.1890  130.2160   88.3200 O.2    88  ILE88      -0.2867
    132  CB       157.5530  132.3690   86.4420 C.3    88  ILE88       0.0252
    133  CG1      157.7910  131.0970   85.6360 C.3    88  ILE88       0.0019
    134  CG2      158.6870  132.5320   87.4170 C.3    88  ILE88       0.0019
    135  CD1      156.8110  130.9210   84.5090 C.3    88  ILE88       0.0001
    136  N        174.3360  119.9450   87.6240 N.3   144  MET144     -0.1230
    137  CA       174.3570  120.7790   88.8150 C.3   144  MET144      0.1702
    138  C        175.6570  121.5690   88.8870 C.2   144  MET144      0.2592
    139  O        175.6460  122.8050   88.8240 O.2   144  MET144     -0.2718
    140  CB       174.1840  119.9260   90.0720 C.3   144  MET144      0.0401
    141  CG       172.8300  119.2570   90.2400 C.3   144  MET144      0.0596
    142  SD       172.8090  118.3660   91.8060 S.3   144  MET144     -0.1393
    143  CE       171.2830  117.4570   91.7500 C.3   144  MET144      0.0692
    144  N        176.7850  120.8490   88.9470 N.am  145  LEU145     -0.1980
    145  CA       178.0620  121.4110   89.3890 C.3   145  LEU145      0.1596
    146  C        178.5650  122.4910   88.4450 C.2   145  LEU145      0.2287
    147  O        178.8790  123.6090   88.8760 O.2   145  LEU145     -0.2864
    148  CB       179.1020  120.3000   89.5050 C.3   145  LEU145      0.0297
    149  CG       178.8540  119.2170   90.5470 C.3   145  LEU145      0.0022
    150  CD1      179.9030  118.1350   90.4150 C.3   145  LEU145      0.0001
    151  CD2      178.8710  119.8100   91.9350 C.3   145  LEU145      0.0001
    152  N        176.8330  124.1610   86.4660 N.3   147  PHE147     -0.1227
    153  CA       175.9070  125.2700   86.6490 C.3   147  PHE147      0.1736
    154  C        176.4480  126.2800   87.6470 C.2   147  PHE147      0.2595
    155  O        176.4830  127.4860   87.3670 O.2   147  PHE147     -0.2718
    156  CB       174.5650  124.7260   87.1070 C.3   147  PHE147      0.0547
    157  CG       173.5730  125.7740   87.4170 C.ar  147  PHE147     -0.0202
    158  CD1      173.0960  126.5930   86.4140 C.ar  147  PHE147     -0.0042
    159  CD2      173.0730  125.9140   88.6980 C.ar  147  PHE147     -0.0042
    160  CE1      172.1740  127.5640   86.6860 C.ar  147  PHE147     -0.0003
    161  CE2      172.1330  126.8730   88.9760 C.ar  147  PHE147     -0.0003
    162  CZ       171.6700  127.6910   87.9610 C.ar  147  PHE147     -0.0000
    163  N        176.9130  125.7880   88.8020 N.am  148  ALA148     -0.1980
    164  CA       177.6650  126.6180   89.7360 C.3   148  ALA148      0.1597
    165  C        178.8950  127.2080   89.0700 C.2   148  ALA148      0.2287
    166  O        179.1740  128.4060   89.2140 O.2   148  ALA148     -0.2864
    167  CB       178.0760  125.7930   90.9480 C.3   148  ALA148      0.0319
    168  N        177.8630  130.2650   87.3030 N.3   151  ILE151     -0.1245
    169  CA       177.4740  131.4320   88.0860 C.3   151  ILE151      0.1561
    170  C        178.6570  131.9740   88.8700 C.2   151  ILE151      0.2260
    171  O        178.7850  133.1900   89.0600 O.2   151  ILE151     -0.2867
    172  CB       176.3060  131.0780   89.0100 C.3   151  ILE151      0.0252
    173  CG1      175.1850  130.4490   88.2090 C.3   151  ILE151      0.0019
    174  CG2      175.7390  132.3180   89.6400 C.3   151  ILE151      0.0019
    175  CD1      174.1600  129.8720   89.0850 C.3   151  ILE151      0.0001
@<TRIPOS>BOND
     1    82    81    2
     2    92    91    2
     3    91    90    1
     4    81    80    1
     5    81    89   am
     6    80    79    1
     7    80    83    1
     8    86    88   ar
     9    86    84   ar
    10    90    89    1
    11    90    93    1
    12    88    87   ar
    13    83    84    1
    14    84    85   ar
    15    73    71    1
    16    93    94    1
    17    87    85   ar
    18    69    68    2
    19    95    94   ar
    20    95    97   ar
    21    71    70    1
    22    71    72    1
    23    67    68    1
    24    67    70    1
    25    67    66    1
    26    94    96   ar
    27    68    74   am
    28    77    76    2
    29   100   101    1
    30    97    99   ar
    31   104   101    1
    32    76    75    1
    33   109   106    1
    34   101   102    1
    35    74    75    1
    36    96    98   ar
    37    75    78    1
    38   135   133    1
    39    99    98   ar
    40   106   107    1
    41   106   105    1
    42   108   107    2
    43    64    63    2
    44   102   103    2
    45   133   132    1
    46   107   110   am
    47    63    62    1
    48   158   160   ar
    49   158   157   ar
    50   132   129    1
    51   132   134    1
    52   152   153    1
    53   153   156    1
    54   153   154    1
    55   160   162   ar
    56    57    56    2
    57   110   111    1
    58   156   157    1
    59   129   128    1
    60   129   130    1
    61   168   169    1
    62    56    55    1
    63    56    61   am
    64   155   154    2
    65   157   159   ar
    66   120   121    1
    67    55    54    1
    68    55    58    1
    69    62    61    1
    70    62    65    1
    71   136   137    1
    72   154   163   am
    73   127   126    1
    74   111   112    1
    75   111   114    1
    76   162   161   ar
    77   121   124    1
    78   121   122    1
    79   169   170    1
    80   169   172    1
    81   173   172    1
    82   173   175    1
    83   131   130    2
    84    60    58    1
    85   146   147    2
    86   146   145    1
    87   124   125    1
    88   112   113    2
    89    58    59    1
    90   159   161   ar
    91   163   164    1
    92   137   138    1
    93   137   140    1
    94   139   138    2
    95   170   171    2
    96   138   144   am
    97   144   145    1
    98   125   126    1
    99   172   174    1
   100   114   115    1
   101   165   166    2
   102   165   164    1
   103   122   123    2
   104   145   148    1
   105   148   149    1
   106   164   167    1
   107    49    48    2
   108   140   141    1
   109   115   117   ar
   110   115   116   ar
   111   141   142    1
   112   117   119   ar
   113   150   149    1
   114    48    47    1
   115   149   151    1
   116   116   118   ar
   117   119   118   ar
   118   143   142    1
   119    47    46    1
   120    47    50    1
   121    50    51    1
   122    52    51    2
   123    51    53   am
   124     5     6    1
   125     5     2    1
   126     6     8   ar
   127     6     7   ar
   128     8    10   ar
   129     1     2    1
   130     7     9   ar
   131    10    11   ar
   132     9    11   ar
   133     2     3    1
   134     4     3    2
   135     3    12   am
   136    12    13    1
   137    26    25    1
   138    26    20    1
   139    13    16    1
   140    13    14    1
   141    25    24    1
   142    16    17    1
   143    20    14   am
   144    20    21    1
   145    14    15    2
   146    17    18   ar
   147    17    19   ar
   148    24    21    1
   149    21    22    1
   150    42    44   ar
   151    42    40   ar
   152    44    45   ar
   153    39    40    1
   154    39    36    1
   155    40    41   ar
   156    27    22   am
   157    27    28    1
   158    22    23    2
   159    37    38    2
   160    37    36    1
   161    45    43   ar
   162    33    32    1
   163    36    35    1
   164    41    43   ar
   165    32    31    1
   166    32    34    1
   167    31    28    1
   168    28    29    1
   169    29    30    2
