@<TRIPOS>MOLECULE
tmp/5zgbQ05.pdb
 172 165 0 0 0
SMALL
GASTEIGER

@<TRIPOS>ATOM
      1  N        209.6680   98.5670  119.9840 N.3    23  PHE23      -0.1227
      2  CA       210.6200   99.4600  120.6450 C.3    23  PHE23       0.1736
      3  C        210.1740   99.8300  122.0570 C.2    23  PHE23       0.2595
      4  O        210.8140   99.4300  123.0350 O.2    23  PHE23      -0.2718
      5  CB       210.8440  100.7010  119.7750 C.3    23  PHE23       0.0547
      6  CG       211.6920  101.7460  120.4160 C.ar   23  PHE23      -0.0202
      7  CD1      212.9900  101.4610  120.7980 C.ar   23  PHE23      -0.0042
      8  CD2      211.2200  103.0360  120.5620 C.ar   23  PHE23      -0.0042
      9  CE1      213.7790  102.4230  121.3780 C.ar   23  PHE23      -0.0003
     10  CE2      212.0120  104.0140  121.1270 C.ar   23  PHE23      -0.0003
     11  CZ       213.2910  103.7020  121.5450 C.ar   23  PHE23      -0.0000
     12  N        209.0710  100.5910  122.1640 N.am   24  ASP24      -0.1960
     13  CA       208.2140  100.8910  123.3180 C.3    24  ASP24       0.1825
     14  C        208.8920  100.9550  124.6940 C.2    24  ASP24       0.2464
     15  O        208.5920  100.1210  125.5580 O.2    24  ASP24      -0.2730
     16  CB       207.1130   99.8310  123.3310 C.3    24  ASP24       0.1450
     17  CG       205.9060  100.2290  124.1450 C.2    24  ASP24       0.3671
     18  OD1      205.8410  101.3740  124.6430 O.co2  24  ASP24      -0.2456
     19  OD2      205.0360   99.3550  124.3020 O.co2  24  ASP24      -0.2456
     20  N        209.8160  101.8930  124.9540 N.am   25  PRO25      -0.2715
     21  CA       210.5050  101.8680  126.2510 C.3    25  PRO25       0.1536
     22  C        209.7470  102.5950  127.3470 C.2    25  PRO25       0.2598
     23  O        209.9060  102.2830  128.5310 O.2    25  PRO25      -0.2715
     24  CB       211.8400  102.5530  125.9440 C.3    25  PRO25       0.0310
     25  CG       211.5100  103.5130  124.8850 C.3    25  PRO25       0.0237
     26  CD       210.4170  102.8890  124.0540 C.3    25  PRO25       0.0939
     27  N        208.9240  103.5630  126.9700 N.am   26  LEU26      -0.1978
     28  CA       208.2510  104.4300  127.9180 C.3    26  LEU26       0.1596
     29  C        206.7760  104.0570  127.9700 C.2    26  LEU26       0.2287
     30  O        206.2060  103.5750  126.9860 O.2    26  LEU26      -0.2864
     31  CB       208.4500  105.9020  127.5300 C.3    26  LEU26       0.0297
     32  CG       207.9940  106.9930  128.4980 C.3    26  LEU26       0.0022
     33  CD1      208.6520  106.7880  129.8490 C.3    26  LEU26       0.0001
     34  CD2      208.3480  108.3620  127.9540 C.3    26  LEU26       0.0001
     35  N        203.6610  104.3800  127.3420 N.3    28  PHE28      -0.1241
     36  CA       202.5160  104.8290  126.5620 C.3    28  PHE28       0.1605
     37  C        201.5560  103.6880  126.2660 C.2    28  PHE28       0.2264
     38  O        200.3590  103.8030  126.5230 O.2    28  PHE28      -0.2867
     39  CB       202.9690  105.4730  125.2510 C.3    28  PHE28       0.0534
     40  CG       203.7470  106.7300  125.4350 C.ar   28  PHE28      -0.0203
     41  CD1      203.1080  107.9100  125.7700 C.ar   28  PHE28      -0.0042
     42  CD2      205.1170  106.7380  125.2520 C.ar   28  PHE28      -0.0042
     43  CE1      203.8250  109.0740  125.9350 C.ar   28  PHE28      -0.0003
     44  CE2      205.8400  107.8970  125.4110 C.ar   28  PHE28      -0.0003
     45  CZ       205.1940  109.0670  125.7540 C.ar   28  PHE28      -0.0000
     46  N        200.7690  110.5020  111.0210 N.3    44  HIS44      -0.1241
     47  CA       201.9630  111.3340  111.0950 C.3    44  HIS44       0.1621
     48  C        203.0260  110.9030  110.1030 C.2    44  HIS44       0.2264
     49  O        203.7520  111.7520  109.5690 O.2    44  HIS44      -0.2867
     50  CB       202.5360  111.3070  112.5050 C.3    44  HIS44       0.0745
     51  CG       201.7540  112.1190  113.4790 C.ar   44  HIS44       0.0817
     52  ND1      200.6650  111.6230  114.1590 N.ar   44  HIS44      -0.2268
     53  CD2      201.9040  113.3980  113.8860 C.ar   44  HIS44       0.1154
     54  CE1      200.1770  112.5640  114.9460 C.ar   44  HIS44       0.1986
     55  NE2      200.9080  113.6510  114.7940 N.ar   44  HIS44      -0.2212
     56  N        201.8550  112.0950  106.5270 N.3    47  VAL47      -0.1231
     57  CA       201.9520  113.5370  106.3400 C.3    47  VAL47       0.1692
     58  C        203.4000  114.0060  106.4300 C.2    47  VAL47       0.2591
     59  O        203.7650  115.0070  105.8010 O.2    47  VAL47      -0.2718
     60  CB       201.0270  114.2770  107.3340 C.3    47  VAL47       0.0266
     61  CG1      201.5460  114.2260  108.7640 C.3    47  VAL47       0.0020
     62  CG2      200.7760  115.7110  106.8860 C.3    47  VAL47       0.0020
     63  N        204.2600  113.2620  107.1240 N.am   48  ALA48      -0.1980
     64  CA       205.6640  113.6400  107.1710 C.3    48  ALA48       0.1597
     65  C        206.4020  113.2630  105.8990 C.2    48  ALA48       0.2287
     66  O        207.3410  113.9690  105.5110 O.2    48  ALA48      -0.2864
     67  CB       206.3460  112.9940  108.3670 C.3    48  ALA48       0.0319
     68  N        204.9220  113.3100  102.9590 N.3    50  LEU50      -0.1231
     69  CA       204.5010  114.4470  102.1460 C.3    50  LEU50       0.1693
     70  C        205.2820  115.7120  102.4720 C.2    50  LEU50       0.2591
     71  O        205.5720  116.5090  101.5730 O.2    50  LEU50      -0.2718
     72  CB       203.0170  114.7050  102.3470 C.3    50  LEU50       0.0284
     73  CG       202.0670  113.7210  101.6930 C.3    50  LEU50       0.0019
     74  CD1      200.6910  114.0140  102.2050 C.3    50  LEU50       0.0001
     75  CD2      202.1230  113.9150  100.1940 C.3    50  LEU50       0.0001
     76  N        205.6450  115.9000  103.7410 N.am   51  ALA51      -0.1980
     77  CA       206.3960  117.0860  104.1350 C.3    51  ALA51       0.1597
     78  C        207.8090  117.0690  103.5640 C.2    51  ALA51       0.2287
     79  O        208.2730  118.0710  103.0060 O.2    51  ALA51      -0.2864
     80  CB       206.4380  117.1900  105.6560 C.3    51  ALA51       0.0319
     81  N        207.8420  117.4040   99.9600 N.3    54  GLY54      -0.1210
     82  CA       207.5480  118.8030   99.7080 C.3    54  GLY54       0.1956
     83  C        208.7850  119.6770   99.7740 C.2    54  GLY54       0.2611
     84  O        209.0440  120.4650   98.8660 O.2    54  GLY54      -0.2717
     85  N        209.5870  119.5120  100.8300 N.am   55  VAL55      -0.1979
     86  CA       210.7720  120.3490  101.0170 C.3    55  VAL55       0.1595
     87  C        211.8120  120.0800   99.9360 C.2    55  VAL55       0.2287
     88  O        212.3770  121.0180   99.3580 O.2    55  VAL55      -0.2864
     89  CB       211.3450  120.1440  102.4330 C.3    55  VAL55       0.0276
     90  CG1      212.7200  120.7680  102.5690 C.3    55  VAL55       0.0022
     91  CG2      210.4290  120.7850  103.4270 C.3    55  VAL55       0.0022
     92  N        210.4180  121.1050   96.3780 N.3    58  GLN58      -0.1245
     93  CA       210.4410  122.5580   96.2690 C.3    58  GLN58       0.1566
     94  C        211.8630  123.0850   96.1910 C.2    58  GLN58       0.2260
     95  O        212.1180  124.0970   95.5300 O.2    58  GLN58      -0.2867
     96  CB       209.7000  123.1640   97.4470 C.3    58  GLN58       0.0367
     97  CG       208.2120  123.0980   97.3000 C.3    58  GLN58       0.0905
     98  CD       207.5280  123.2100   98.6300 C.2    58  GLN58       0.2608
     99  OE1      208.1610  123.1120   99.6770 O.2    58  GLN58      -0.2717
    100  NE2      206.2330  123.4080   98.6030 N.am   58  GLN58      -0.0878
    101  N        212.3530  127.0650  102.7440 N.3    72  LEU72      -0.1245
    102  CA       210.9850  126.5710  102.6650 C.3    72  LEU72       0.1561
    103  C        210.3170  126.6520  104.0280 C.2    72  LEU72       0.2260
    104  O        209.3930  125.8980  104.3320 O.2    72  LEU72      -0.2867
    105  CB       210.9180  125.1510  102.1080 C.3    72  LEU72       0.0270
    106  CG       210.8260  125.0570  100.5770 C.3    72  LEU72       0.0019
    107  CD1      209.7090  125.9540  100.0500 C.3    72  LEU72       0.0001
    108  CD2      212.1210  125.3400   99.8600 C.3    72  LEU72       0.0001
    109  N        207.5200  132.9570  101.9860 N.3    78  LEU78      -0.1231
    110  CA       206.9790  131.7220  101.4390 C.3    78  LEU78       0.1693
    111  C        205.5020  131.6060  101.7990 C.2    78  LEU78       0.2592
    112  O        204.6090  131.7370  100.9410 O.2    78  LEU78      -0.2718
    113  CB       207.7890  130.5430  101.9980 C.3    78  LEU78       0.0284
    114  CG       207.7620  129.1210  101.4350 C.3    78  LEU78       0.0019
    115  CD1      206.5550  128.3070  101.8860 C.3    78  LEU78       0.0001
    116  CD2      207.8480  129.1850   99.9220 C.3    78  LEU78       0.0001
    117  N        205.2610  131.4640  103.1020 N.am   79  HIS79      -0.1976
    118  CA       203.9400  131.1170  103.6040 C.3    79  HIS79       0.1656
    119  C        202.9550  132.2570  103.4250 C.2    79  HIS79       0.2291
    120  O        201.8330  132.0380  102.9580 O.2    79  HIS79      -0.2864
    121  CB       204.0460  130.7240  105.0700 C.3    79  HIS79       0.0771
    122  CG       202.7850  130.1740  105.6390 C.ar   79  HIS79       0.0820
    123  ND1      201.8160  130.9730  106.2040 N.ar   79  HIS79      -0.2267
    124  CD2      202.3280  128.9040  105.7240 C.ar   79  HIS79       0.1154
    125  CE1      200.8160  130.2160  106.6180 C.ar   79  HIS79       0.1986
    126  NE2      201.1010  128.9570  106.3370 N.ar   79  HIS79      -0.2212
    127  N        201.9680  132.9800  100.0420 N.3    82  PHE82      -0.1241
    128  CA       200.9200  132.0710   99.5960 C.3    82  PHE82       0.1605
    129  C        199.5590  132.4270  100.1860 C.2    82  PHE82       0.2264
    130  O        198.5390  132.3320   99.4950 O.2    82  PHE82      -0.2867
    131  CB       201.3120  130.6450   99.9560 C.3    82  PHE82       0.0534
    132  CG       202.4900  130.1360   99.1900 C.ar   82  PHE82      -0.0203
    133  CD1      202.8330  130.6880   97.9630 C.ar   82  PHE82      -0.0042
    134  CD2      203.2790  129.1330   99.7120 C.ar   82  PHE82      -0.0042
    135  CE1      203.9230  130.2260   97.2650 C.ar   82  PHE82      -0.0003
    136  CE2      204.3760  128.6710   99.0170 C.ar   82  PHE82      -0.0003
    137  CZ       204.6960  129.2210   97.7950 C.ar   82  PHE82      -0.0000
    138  N        196.4940  129.1790  100.1670 N.3    88  LEU88      -0.1245
    139  CA       196.5890  128.0360  101.0690 C.3    88  LEU88       0.1561
    140  C        195.2850  127.7620  101.8070 C.2    88  LEU88       0.2260
    141  O        195.1460  126.6780  102.3840 O.2    88  LEU88      -0.2867
    142  CB       197.7020  128.2230  102.0980 C.3    88  LEU88       0.0270
    143  CG       199.1760  128.2890  101.7230 C.3    88  LEU88       0.0019
    144  CD1      200.0040  128.5760  102.9600 C.3    88  LEU88       0.0001
    145  CD2      199.6470  127.0230  101.0690 C.3    88  LEU88       0.0001
    146  N        193.7770  124.8470  100.3220 N.3    91  ILE91      -0.1245
    147  CA       194.5560  123.6160  100.4580 C.3    91  ILE91       0.1561
    148  C        194.5750  123.1500  101.9110 C.2    91  ILE91       0.2260
    149  O        194.9030  121.9900  102.1890 O.2    91  ILE91      -0.2867
    150  CB       195.9740  123.7860   99.8860 C.3    91  ILE91       0.0252
    151  CG1      196.5670  122.4380   99.4840 C.3    91  ILE91       0.0019
    152  CG2      196.9020  124.3650  100.8980 C.3    91  ILE91       0.0019
    153  CD1      197.8400  122.5560   98.6910 C.3    91  ILE91       0.0001
    154  N        209.9310  111.6280  109.4440 N.3   151  MET151     -0.1245
    155  CA       209.6580  112.4690  110.6050 C.3   151  MET151      0.1570
    156  C        210.9340  113.1200  111.1290 C.2   151  MET151      0.2261
    157  O        211.0010  114.3490  111.2710 O.2   151  MET151     -0.2867
    158  CB       208.9570  111.6540  111.6990 C.3   151  MET151      0.0387
    159  CG       207.4840  111.4010  111.4140 C.3   151  MET151      0.0595
    160  SD       206.4440  110.6420  112.6800 S.3   151  MET151     -0.1393
    161  CE       206.7660  108.9060  112.4510 C.3   151  MET151      0.0692
    162  N        212.6660  115.1980  108.3260 N.3   154  PHE154     -0.1241
    163  CA       212.0030  116.4870  108.2370 C.3   154  PHE154      0.1605
    164  C        212.3110  117.3500  109.4520 C.2   154  PHE154      0.2264
    165  O        212.2530  118.5830  109.3620 O.2   154  PHE154     -0.2867
    166  CB       210.4980  116.3060  108.0790 C.3   154  PHE154      0.0534
    167  CG       209.7790  117.5860  107.8620 C.ar  154  PHE154     -0.0203
    168  CD1      209.8460  118.2240  106.6400 C.ar  154  PHE154     -0.0042
    169  CD2      209.0730  118.1800  108.8850 C.ar  154  PHE154     -0.0042
    170  CE1      209.2000  119.4170  106.4420 C.ar  154  PHE154     -0.0003
    171  CE2      208.4380  119.3770  108.6870 C.ar  154  PHE154     -0.0003
    172  CZ       208.4960  119.9910  107.4620 C.ar  154  PHE154     -0.0000
@<TRIPOS>BOND
     1    95    94    2
     2    94    93    1
     3    93    92    1
     4    93    96    1
     5   135   137   ar
     6   135   133   ar
     7    97    96    1
     8    97    98    1
     9   137   136   ar
    10   133   132   ar
    11   100    98   am
    12    98    99    2
    13   153   151    1
    14    84    83    2
    15   136   134   ar
    16   132   134   ar
    17   132   131    1
    18    88    87    2
    19   151   150    1
    20   130   129    2
    21   128   131    1
    22   128   127    1
    23   128   129    1
    24    82    83    1
    25    82    81    1
    26    83    85   am
    27   108   106    1
    28   150   147    1
    29   150   152    1
    30   116   114    1
    31    87    86    1
    32   107   106    1
    33   138   139    1
    34    75    73    1
    35   146   147    1
    36   147   148    1
    37   106   105    1
    38    85    86    1
    39   112   111    2
    40    86    89    1
    41   145   143    1
    42   139   140    1
    43   139   142    1
    44   114   115    1
    45   114   113    1
    46   110   111    1
    47   110   109    1
    48   110   113    1
    49    71    70    2
    50    73    74    1
    51    73    72    1
    52   143   142    1
    53   143   144    1
    54   111   117   am
    55   140   141    2
    56   148   149    2
    57   105   102    1
    58    69    72    1
    59    69    70    1
    60    69    68    1
    61    89    90    1
    62    89    91    1
    63    70    76   am
    64   102   101    1
    65   102   103    1
    66   120   119    2
    67    79    78    2
    68   117   118    1
    69   119   118    1
    70    78    77    1
    71   118   121    1
    72    76    77    1
    73   103   104    2
    74    77    80    1
    75   121   122    1
    76    66    65    2
    77   122   124   ar
    78   122   123   ar
    79   124   126   ar
    80    59    58    2
    81    65    64    1
    82   123   125   ar
    83   126   125   ar
    84    57    58    1
    85    57    56    1
    86    57    60    1
    87    58    63   am
    88   170   168   ar
    89   170   172   ar
    90   168   167   ar
    91    62    60    1
    92    63    64    1
    93    64    67    1
    94    60    61    1
    95   172   171   ar
    96   167   166    1
    97   167   169   ar
    98   166   163    1
    99   163   162    1
   100   163   164    1
   101   171   169   ar
   102   165   164    2
   103   154   155    1
   104    49    48    2
   105    48    47    1
   106   155   156    1
   107   155   158    1
   108    46    47    1
   109    47    50    1
   110   156   157    2
   111   159   158    1
   112   159   160    1
   113   161   160    1
   114    50    51    1
   115    51    53   ar
   116    51    52   ar
   117    53    55   ar
   118    52    54   ar
   119    55    54   ar
   120     5     6    1
   121     5     2    1
   122     1     2    1
   123     6     8   ar
   124     6     7   ar
   125     8    10   ar
   126     2     3    1
   127     7     9   ar
   128    10    11   ar
   129     9    11   ar
   130     3    12   am
   131     3     4    2
   132    12    13    1
   133    13    16    1
   134    13    14    1
   135    16    17    1
   136    26    25    1
   137    26    20    1
   138    17    19   ar
   139    17    18   ar
   140    14    20   am
   141    14    15    2
   142    25    24    1
   143    20    21    1
   144    39    40    1
   145    39    36    1
   146    42    44   ar
   147    42    40   ar
   148    44    45   ar
   149    40    41   ar
   150    45    43   ar
   151    41    43   ar
   152    24    21    1
   153    21    22    1
   154    37    38    2
   155    37    36    1
   156    36    35    1
   157    27    22   am
   158    27    28    1
   159    30    29    2
   160    22    23    2
   161    31    28    1
   162    31    32    1
   163    28    29    1
   164    34    32    1
   165    32    33    1
