@<TRIPOS>MOLECULE
tmp/5zgbQ11.pdb
 182 176 0 0 0
SMALL
GASTEIGER

@<TRIPOS>ATOM
      1  N        202.1270   95.0800  123.0420 N.3    13  ASP13      -0.1225
      2  CA       202.3250   94.8210  121.6270 C.3    13  ASP13       0.1805
      3  C        203.2770   93.6410  121.4200 C.2    13  ASP13       0.2598
      4  O        203.6840   92.9650  122.3700 O.2    13  ASP13      -0.2718
      5  CB       202.8190   96.1030  120.9550 C.3    13  ASP13       0.1424
      6  CG       203.9880   96.7330  121.6870 C.2    13  ASP13       0.3668
      7  OD1      204.3840   96.2140  122.7500 O.co2  13  ASP13      -0.2456
      8  OD2      204.4970   97.7650  121.2070 O.co2  13  ASP13      -0.2456
      9  N        203.6430   93.3900  120.1650 N.am   14  GLY14      -0.1957
     10  CA       204.5400   92.2970  119.8440 C.3    14  GLY14       0.1869
     11  C        204.2720   91.6520  118.5000 C.2    14  GLY14       0.2309
     12  O        205.1570   91.0060  117.9310 O.2    14  GLY14      -0.2863
     13  N        202.8130   93.7300  116.0630 N.3    16  LEU16      -0.1231
     14  CA       202.7520   94.8730  115.1740 C.3    16  LEU16       0.1678
     15  C        203.9590   94.8620  114.2340 C.2    16  LEU16       0.2434
     16  O        204.9600   94.1990  114.5120 O.2    16  LEU16      -0.2733
     17  CB       202.7120   96.1550  116.0030 C.3    16  LEU16       0.0284
     18  CG       201.4870   96.2840  116.9060 C.3    16  LEU16       0.0019
     19  CD1      201.5730   97.5560  117.7250 C.3    16  LEU16       0.0001
     20  CD2      200.2070   96.2410  116.0880 C.3    16  LEU16       0.0001
     21  N        203.8940   95.5900  113.0930 N.am   17  PRO17      -0.2718
     22  CA       205.0410   95.5980  112.1700 C.3    17  PRO17       0.1535
     23  C        206.2890   96.3080  112.6780 C.2    17  PRO17       0.2599
     24  O        206.6930   97.3350  112.1240 O.2    17  PRO17      -0.2715
     25  CB       204.4890   96.3160  110.9330 C.3    17  PRO17       0.0310
     26  CG       203.0450   96.0960  110.9860 C.3    17  PRO17       0.0237
     27  CD       202.6790   96.1010  112.4320 C.3    17  PRO17       0.0939
     28  N        206.9020   95.7770  113.7320 N.am   18  GLY18      -0.1955
     29  CA       208.2870   96.0750  114.0200 C.3    18  GLY18       0.1869
     30  C        209.1500   94.9230  113.5500 C.2    18  GLY18       0.2309
     31  O        209.2800   93.9160  114.2550 O.2    18  GLY18      -0.2863
     32  N        211.9720   94.7990  115.7250 N.3    21  GLY21      -0.1210
     33  CA       211.5110   94.5980  117.0870 C.3    21  GLY21       0.1956
     34  C        210.4570   95.5990  117.5170 C.2    21  GLY21       0.2612
     35  O        210.1710   96.5530  116.7870 O.2    21  GLY21      -0.2717
     36  N        209.8640   95.3920  118.6910 N.am   22  CYS22      -0.1956
     37  CA       208.9380   96.3560  119.2740 C.3    22  CYS22       0.1843
     38  C        209.7080   97.2590  120.2320 C.2    22  CYS22       0.2625
     39  O        210.3560   96.7760  121.1640 O.2    22  CYS22      -0.2714
     40  CB       207.7670   95.6500  119.9610 C.3    22  CYS22       0.0997
     41  SG       208.1660   94.4660  121.2600 S.3    22  CYS22      -0.0797
     42  N        209.6680   98.5670  119.9840 N.am   23  PHE23      -0.1960
     43  CA       210.6200   99.4600  120.6450 C.3    23  PHE23       0.1771
     44  C        210.1740   99.8300  122.0570 C.2    23  PHE23       0.2620
     45  O        210.8140   99.4300  123.0350 O.2    23  PHE23      -0.2715
     46  CB       210.8440  100.7010  119.7750 C.3    23  PHE23       0.0574
     47  CG       211.6920  101.7460  120.4160 C.ar   23  PHE23      -0.0200
     48  CD1      212.9900  101.4610  120.7980 C.ar   23  PHE23      -0.0042
     49  CD2      211.2200  103.0360  120.5620 C.ar   23  PHE23      -0.0042
     50  CE1      213.7790  102.4230  121.3780 C.ar   23  PHE23      -0.0003
     51  CE2      212.0120  104.0140  121.1270 C.ar   23  PHE23      -0.0003
     52  CZ       213.2910  103.7020  121.5450 C.ar   23  PHE23      -0.0000
     53  N        209.0710  100.5910  122.1640 N.am   24  ASP24      -0.1958
     54  CA       208.2140  100.8910  123.3180 C.3    24  ASP24       0.1825
     55  C        208.8920  100.9550  124.6940 C.2    24  ASP24       0.2464
     56  O        208.5920  100.1210  125.5580 O.2    24  ASP24      -0.2730
     57  CB       207.1130   99.8310  123.3310 C.3    24  ASP24       0.1450
     58  CG       205.9060  100.2290  124.1450 C.2    24  ASP24       0.3671
     59  OD1      205.8410  101.3740  124.6430 O.co2  24  ASP24      -0.2456
     60  OD2      205.0360   99.3550  124.3020 O.co2  24  ASP24      -0.2456
     61  N        209.8160  101.8930  124.9540 N.am   25  PRO25      -0.2727
     62  CA       210.5050  101.8680  126.2510 C.3    25  PRO25       0.1402
     63  C        209.7470  102.5950  127.3470 C.2    25  PRO25       0.2269
     64  O        209.9060  102.2830  128.5310 O.2    25  PRO25      -0.2865
     65  CB       211.8400  102.5530  125.9440 C.3    25  PRO25       0.0296
     66  CG       211.5100  103.5130  124.8850 C.3    25  PRO25       0.0237
     67  CD       210.4170  102.8890  124.0540 C.3    25  PRO25       0.0939
     68  N        203.6610  104.3800  127.3420 N.3    28  PHE28      -0.1227
     69  CA       202.5160  104.8290  126.5620 C.3    28  PHE28       0.1736
     70  C        201.5560  103.6880  126.2660 C.2    28  PHE28       0.2596
     71  O        200.3590  103.8030  126.5230 O.2    28  PHE28      -0.2718
     72  CB       202.9690  105.4730  125.2510 C.3    28  PHE28       0.0547
     73  CG       203.7470  106.7300  125.4350 C.ar   28  PHE28      -0.0202
     74  CD1      203.1080  107.9100  125.7700 C.ar   28  PHE28      -0.0042
     75  CD2      205.1170  106.7380  125.2520 C.ar   28  PHE28      -0.0042
     76  CE1      203.8250  109.0740  125.9350 C.ar   28  PHE28      -0.0003
     77  CE2      205.8400  107.8970  125.4110 C.ar   28  PHE28      -0.0003
     78  CZ       205.1940  109.0670  125.7540 C.ar   28  PHE28      -0.0000
     79  N        202.0710  102.5620  125.7700 N.am   29  THR29      -0.1953
     80  CA       201.2470  101.3860  125.5210 C.3    29  THR29       0.1897
     81  C        200.8750  100.6730  126.8210 C.2    29  THR29       0.2313
     82  O        200.0630   99.7380  126.8030 O.2    29  THR29      -0.2863
     83  CB       202.0070  100.4680  124.5630 C.3    29  THR29       0.1794
     84  OG1      202.6160  101.2700  123.5470 O.3    29  THR29      -0.2208
     85  CG2      201.0840   99.5140  123.8390 C.3    29  THR29       0.0378
     86  N        196.6990  101.6490  122.3760 N.3    34  LEU34      -0.1245
     87  CA       197.5950  101.3150  121.2610 C.3    34  LEU34       0.1561
     88  C        196.9720  101.4130  119.8630 C.2    34  LEU34       0.2260
     89  O        197.6950  101.5510  118.8710 O.2    34  LEU34      -0.2867
     90  CB       198.1880   99.9070  121.4840 C.3    34  LEU34       0.0270
     91  CG       199.1520   99.2490  120.4830 C.3    34  LEU34       0.0019
     92  CD1      200.3860  100.0950  120.2950 C.3    34  LEU34       0.0001
     93  CD2      199.5290   97.8450  120.8750 C.3    34  LEU34       0.0001
     94  N        197.2850  105.2110  119.1510 N.3    37  LEU37      -0.1231
     95  CA       198.6710  105.5590  118.8720 C.3    37  LEU37       0.1693
     96  C        199.1160  105.0290  117.5180 C.2    37  LEU37       0.2591
     97  O        200.0200  105.5950  116.8970 O.2    37  LEU37      -0.2718
     98  CB       199.5780  105.0140  119.9710 C.3    37  LEU37       0.0284
     99  CG       199.3500  105.4830  121.4060 C.3    37  LEU37       0.0019
    100  CD1      200.3330  104.7910  122.3280 C.3    37  LEU37       0.0001
    101  CD2      199.4760  106.9790  121.5150 C.3    37  LEU37       0.0001
    102  N        198.5010  103.9440  117.0500 N.am   38  ARG38      -0.1980
    103  CA       198.8490  103.3870  115.7510 C.3    38  ARG38       0.1597
    104  C        198.2650  104.2220  114.6230 C.2    38  ARG38       0.2287
    105  O        198.9440  104.4650  113.6170 O.2    38  ARG38      -0.2864
    106  CB       198.3750  101.9370  115.6770 C.3    38  ARG38       0.0334
    107  CG       198.7650  101.2000  114.4270 C.3    38  ARG38       0.0492
    108  CD       198.4420   99.7220  114.5610 C.3    38  ARG38       0.2205
    109  NE       198.6630   99.0180  113.3060 N.pl3  38  ARG38      -0.0865
    110  CZ       199.8360   98.5330  112.9190 C.cat  38  ARG38       0.5346
    111  NH1      200.9040   98.6750  113.6910 N.pl3  38  ARG38       0.1354
    112  NH2      199.9400   97.9120  111.7540 N.pl3  38  ARG38       0.1354
    113  N        197.6700  107.3830  114.9470 N.3    40  ALA40      -0.1231
    114  CA       198.4460  108.6170  115.0040 C.3    40  ALA40       0.1694
    115  C        199.8230  108.4460  114.3720 C.2    40  ALA40       0.2591
    116  O        200.3000  109.3430  113.6680 O.2    40  ALA40      -0.2718
    117  CB       198.5700  109.0840  116.4500 C.3    40  ALA40       0.0304
    118  N        200.4660  107.3020  114.6180 N.am   41  GLU41      -0.1979
    119  CA       201.7490  106.9820  113.9960 C.3    41  GLU41       0.1602
    120  C        201.6520  106.9350  112.4810 C.2    41  GLU41       0.2287
    121  O        202.4920  107.5100  111.7770 O.2    41  GLU41      -0.2864
    122  CB       202.2580  105.6470  114.5320 C.3    41  GLU41       0.0415
    123  CG       203.2930  104.9580  113.6500 C.3    41  GLU41       0.1163
    124  CD       204.5850  105.7160  113.4520 C.2    41  GLU41       0.3649
    125  OE1      205.0270  106.4590  114.3460 O.co2  41  GLU41      -0.2457
    126  OE2      205.1490  105.6070  112.3410 O.co2  41  GLU41      -0.2457
    127  N        200.7690  110.5020  111.0210 N.3    44  HIS44      -0.1241
    128  CA       201.9630  111.3340  111.0950 C.3    44  HIS44       0.1621
    129  C        203.0260  110.9030  110.1030 C.2    44  HIS44       0.2264
    130  O        203.7520  111.7520  109.5690 O.2    44  HIS44      -0.2867
    131  CB       202.5360  111.3070  112.5050 C.3    44  HIS44       0.0745
    132  CG       201.7540  112.1190  113.4790 C.ar   44  HIS44       0.0817
    133  ND1      200.6650  111.6230  114.1590 N.ar   44  HIS44      -0.2268
    134  CD2      201.9040  113.3980  113.8860 C.ar   44  HIS44       0.1154
    135  CE1      200.1770  112.5640  114.9460 C.ar   44  HIS44       0.1986
    136  NE2      200.9080  113.6510  114.7940 N.ar   44  HIS44      -0.2212
    137  N        206.0910  102.5260  107.1020 N.3   144  LEU144     -0.1231
    138  CA       206.3040  102.8750  108.4970 C.3   144  LEU144      0.1693
    139  C        207.7090  103.4300  108.7100 C.2   144  LEU144      0.2591
    140  O        207.8760  104.5150  109.2770 O.2   144  LEU144     -0.2718
    141  CB       206.0520  101.6380  109.3550 C.3   144  LEU144      0.0284
    142  CG       205.8110  101.7960  110.8470 C.3   144  LEU144      0.0019
    143  CD1      204.5360  102.5830  111.0570 C.3   144  LEU144      0.0001
    144  CD2      205.7010  100.4270  111.4880 C.3   144  LEU144      0.0001
    145  N        208.7280  102.7250  108.2070 N.am  145  ARG145     -0.1980
    146  CA       210.1140  103.1350  108.4240 C.3   145  ARG145      0.1597
    147  C        210.4640  104.3700  107.6100 C.2   145  ARG145      0.2287
    148  O        211.1230  105.2860  108.1160 O.2   145  ARG145     -0.2864
    149  CB       211.0660  101.9960  108.0740 C.3   145  ARG145      0.0334
    150  CG       210.9220  100.7680  108.9260 C.3   145  ARG145      0.0492
    151  CD       211.4400  100.9720  110.3210 C.3   145  ARG145      0.2205
    152  NE       211.2300   99.7680  111.1150 N.pl3 145  ARG145     -0.0865
    153  CZ       212.0700   98.7410  111.1460 C.cat 145  ARG145      0.5346
    154  NH1      213.1770   98.7660  110.4190 N.pl3 145  ARG145      0.1354
    155  NH2      211.7990   97.6830  111.8960 N.pl3 145  ARG145      0.1354
    156  N        208.9720  107.2090  109.3990 N.3   148  ARG148     -0.1245
    157  CA       209.6820  107.6160  110.6060 C.3   148  ARG148      0.1563
    158  C        210.9430  108.3940  110.2630 C.2   148  ARG148      0.2260
    159  O        211.2210  109.4460  110.8620 O.2   148  ARG148     -0.2867
    160  CB       209.9930  106.3810  111.4430 C.3   148  ARG148      0.0307
    161  CG       208.7780  105.7740  112.1100 C.3   148  ARG148      0.0489
    162  CD       209.0800  104.3800  112.6080 C.3   148  ARG148      0.2205
    163  NE       207.9200  103.7950  113.2640 N.pl3 148  ARG148     -0.0865
    164  CZ       207.8620  102.5350  113.6770 C.cat 148  ARG148      0.5346
    165  NH1      208.8950  101.7260  113.4880 N.pl3 148  ARG148      0.1354
    166  NH2      206.7690  102.0810  114.2730 N.pl3 148  ARG148      0.1354
    167  N        209.9310  111.6280  109.4440 N.3   151  MET151     -0.1230
    168  CA       209.6580  112.4690  110.6050 C.3   151  MET151      0.1702
    169  C        210.9340  113.1200  111.1290 C.2   151  MET151      0.2592
    170  O        211.0010  114.3490  111.2710 O.2   151  MET151     -0.2718
    171  CB       208.9570  111.6540  111.6990 C.3   151  MET151      0.0401
    172  CG       207.4840  111.4010  111.4140 C.3   151  MET151      0.0596
    173  SD       206.4440  110.6420  112.6800 S.3   151  MET151     -0.1393
    174  CE       206.7660  108.9060  112.4510 C.3   151  MET151      0.0692
    175  N        211.9690  112.3170  111.3930 N.am  152  ILE152     -0.1980
    176  CA       213.2220  112.8790  111.8970 C.3   152  ILE152      0.1595
    177  C        213.9160  113.7020  110.8210 C.2   152  ILE152      0.2287
    178  O        214.3370  114.8380  111.0680 O.2   152  ILE152     -0.2864
    179  CB       214.1420  111.7740  112.4460 C.3   152  ILE152      0.0276
    180  CG1      213.6710  111.3330  113.8210 C.3   152  ILE152      0.0022
    181  CG2      215.5750  112.2350  112.5430 C.3   152  ILE152      0.0022
    182  CD1      212.7980  110.1780  113.7880 C.3   152  ILE152      0.0001
@<TRIPOS>BOND
     1   137   138    1
     2   147   148    2
     3   147   146    1
     4   149   146    1
     5   149   150    1
     6   145   146    1
     7   145   139   am
     8   138   139    1
     9   138   141    1
    10   139   140    2
    11   150   151    1
    12   141   142    1
    13   156   157    1
    14   167   168    1
    15   130   129    2
    16   129   128    1
    17   158   157    1
    18   158   159    2
    19   151   152    1
    20   154   153    1
    21   168   169    1
    22   168   171    1
    23   157   160    1
    24   177   178    2
    25   177   176    1
    26   142   143    1
    27   142   144    1
    28    25    26    1
    29    25    22    1
    30    26    27    1
    31   127   128    1
    32   128   131    1
    33   152   153    2
    34   169   170    2
    35   169   175   am
    36   153   155    1
    37   175   176    1
    38   172   171    1
    39   172   173    1
    40   160   161    1
    41   112   110    1
    42   121   120    2
    43   176   179    1
    44   161   162    1
    45    24    23    2
    46    22    23    1
    47    22    21    1
    48   126   124   ar
    49    27    21    1
    50   179   181    1
    51   179   180    1
    52   174   173    1
    53   120   119    1
    54   131   132    1
    55   162   163    1
    56    23    28   am
    57   110   109    2
    58   110   111    1
    59    21    15   am
    60   163   164    2
    61   109   108    1
    62   124   123    1
    63   124   125   ar
    64   132   134   ar
    65   132   133   ar
    66   165   164    1
    67    30    29    1
    68    30    31    2
    69   105   104    2
    70   123   122    1
    71   116   115    2
    72   164   166    1
    73    28    29    1
    74   182   180    1
    75   134   136   ar
    76   119   122    1
    77   119   118    1
    78   133   135   ar
    79    15    16    2
    80    15    14    1
    81   115   118   am
    82   115   114    1
    83   107   108    1
    84   107   106    1
    85   104   103    1
    86   136   135   ar
    87   113   114    1
    88   114   117    1
    89    14    17    1
    90    14    13    1
    91   106   103    1
    92    32    33    1
    93   103   102    1
    94    17    18    1
    95    20    18    1
    96    35    34    2
    97    97    96    2
    98    18    19    1
    99   102    96   am
   100    33    34    1
   101    34    36   am
   102    96    95    1
   103    12    11    2
   104    11    10    1
   105    36    37    1
   106    89    88    2
   107    95    94    1
   108    95    98    1
   109    37    40    1
   110    37    38    1
   111    46    47    1
   112    46    43    1
   113    10     9    1
   114    88    87    1
   115    40    41    1
   116    98    99    1
   117    42    38   am
   118    42    43    1
   119     9     3   am
   120    38    39    2
   121    92    91    1
   122    47    49   ar
   123    47    48   ar
   124    91    93    1
   125    91    90    1
   126    49    51   ar
   127    43    44    1
   128    48    50   ar
   129     5     2    1
   130     5     6    1
   131    51    52   ar
   132     8     6   ar
   133    87    90    1
   134    87    86    1
   135    50    52   ar
   136    99   101    1
   137    99   100    1
   138     3     2    1
   139     3     4    2
   140     2     1    1
   141     6     7   ar
   142    44    53   am
   143    44    45    2
   144    53    54    1
   145    54    57    1
   146    54    55    1
   147    57    58    1
   148    84    83    1
   149    85    83    1
   150    67    66    1
   151    67    61    1
   152    58    60   ar
   153    58    59   ar
   154    83    80    1
   155    55    61   am
   156    55    56    2
   157    66    65    1
   158    61    62    1
   159    72    73    1
   160    72    69    1
   161    75    77   ar
   162    75    73   ar
   163    77    78   ar
   164    73    74   ar
   165    80    79    1
   166    80    81    1
   167    78    76   ar
   168    79    70   am
   169    74    76   ar
   170    65    62    1
   171    62    63    1
   172    70    71    2
   173    70    69    1
   174    69    68    1
   175    82    81    2
   176    63    64    2
