@<TRIPOS>MOLECULE
tmp/5zgbF02.pdb
 79 78 0 0 0
SMALL
GASTEIGER

@<TRIPOS>ATOM
      1  N        179.0180  163.0540  166.4080 N.3    78  PHE78      -0.1241
      2  CA       178.5280  161.6840  166.3490 C.3    78  PHE78       0.1605
      3  C        178.6860  160.9000  167.6400 C.2    78  PHE78       0.2264
      4  O        177.7350  160.2360  168.0580 O.2    78  PHE78      -0.2867
      5  CB       179.2180  160.9200  165.2170 C.3    78  PHE78       0.0534
      6  CG       178.7910  159.4930  165.1260 C.ar   78  PHE78      -0.0203
      7  CD1      177.5270  159.1730  164.6790 C.ar   78  PHE78      -0.0042
      8  CD2      179.6520  158.4690  165.4840 C.ar   78  PHE78      -0.0042
      9  CE1      177.1220  157.8600  164.5940 C.ar   78  PHE78      -0.0003
     10  CE2      179.2530  157.1540  165.4000 C.ar   78  PHE78      -0.0003
     11  CZ       177.9860  156.8500  164.9540 C.ar   78  PHE78      -0.0000
     12  N        176.1670  161.7520  170.7720 N.3    81  PRO81      -0.2102
     13  CA       174.8610  161.1000  170.6040 C.3    81  PRO81       0.1504
     14  C        174.9500  159.6080  170.3640 C.2    81  PRO81       0.2575
     15  O        173.9230  158.9290  170.4650 O.2    81  PRO81      -0.2718
     16  CB       174.2520  161.8180  169.3990 C.3    81  PRO81       0.0282
     17  CG       175.3590  162.3420  168.6730 C.3    81  PRO81       0.0208
     18  CD       176.3670  162.7340  169.6850 C.3    81  PRO81       0.0893
     19  N        176.1290  159.0680  170.0600 N.am   82  ALA82      -0.1980
     20  CA       176.2620  157.6190  169.9960 C.3    82  ALA82       0.1597
     21  C        176.1870  157.0040  171.3830 C.2    82  ALA82       0.2287
     22  O        175.4410  156.0440  171.6060 O.2    82  ALA82      -0.2864
     23  CB       177.5680  157.2250  169.3160 C.3    82  ALA82       0.0319
     24  N        172.6800  157.6040  172.7250 N.3    85  PHE85      -0.1227
     25  CA       171.6730  156.7350  172.1430 C.3    85  PHE85       0.1736
     26  C        171.8060  155.3080  172.6380 C.2    85  PHE85       0.2595
     27  O        170.7980  154.6600  172.9380 O.2    85  PHE85      -0.2718
     28  CB       171.7430  156.7390  170.6290 C.3    85  PHE85       0.0547
     29  CG       170.8140  155.7660  170.0410 C.ar   85  PHE85      -0.0202
     30  CD1      169.4640  155.9960  170.1060 C.ar   85  PHE85      -0.0042
     31  CD2      171.2700  154.5840  169.4890 C.ar   85  PHE85      -0.0042
     32  CE1      168.5910  155.0880  169.6110 C.ar   85  PHE85      -0.0003
     33  CE2      170.3930  153.6700  169.0160 C.ar   85  PHE85      -0.0003
     34  CZ       169.0560  153.9290  169.0660 C.ar   85  PHE85      -0.0000
     35  N        173.0330  154.7900  172.6980 N.am   86  LEU86      -0.1980
     36  CA       173.2160  153.4390  173.2050 C.3    86  LEU86       0.1596
     37  C        172.8450  153.3410  174.6720 C.2    86  LEU86       0.2287
     38  O        172.4600  152.2640  175.1300 O.2    86  LEU86      -0.2864
     39  CB       174.6480  152.9680  172.9960 C.3    86  LEU86       0.0297
     40  CG       175.0290  152.7430  171.5410 C.3    86  LEU86       0.0022
     41  CD1      176.4730  152.3150  171.4510 C.3    86  LEU86       0.0001
     42  CD2      174.1160  151.7160  170.9180 C.3    86  LEU86       0.0001
     43  N        168.8200  153.0080  174.3060 N.3    89  THR89      -0.1203
     44  CA       168.2870  151.7110  173.9170 C.3    89  THR89       0.1994
     45  C        168.9200  150.5550  174.6620 C.2    89  THR89       0.2618
     46  O        168.4250  149.4300  174.5640 O.2    89  THR89      -0.2717
     47  CB       168.4010  151.4990  172.4190 C.3    89  THR89       0.1784
     48  OG1      169.7390  151.7610  171.9820 O.3    89  THR89      -0.2211
     49  CG2      167.4200  152.4050  171.7430 C.3    89  THR89       0.0376
     50  N        169.9870  150.7960  175.4100 N.am   90  GLY90      -0.1956
     51  CA       170.3440  149.8540  176.4470 C.3    90  GLY90       0.1869
     52  C        169.3730  149.9140  177.6020 C.2    90  GLY90       0.2309
     53  O        169.1160  148.8940  178.2500 O.2    90  GLY90      -0.2863
     54  N        166.0920  150.6470  177.0320 N.3    92  ILE92      -0.1231
     55  CA       164.8820  150.0070  176.5160 C.3    92  ILE92       0.1692
     56  C        165.0790  148.5040  176.3900 C.2    92  ILE92       0.2592
     57  O        164.1980  147.7170  176.7640 O.2    92  ILE92      -0.2718
     58  CB       164.4720  150.6310  175.1740 C.3    92  ILE92       0.0266
     59  CG1      164.1350  152.0980  175.3410 C.3    92  ILE92       0.0019
     60  CG2      163.2550  149.9550  174.6320 C.3    92  ILE92       0.0020
     61  CD1      164.0700  152.8100  174.0360 C.3    92  ILE92       0.0001
     62  N        166.2540  148.0830  175.9260 N.am   93  GLY93      -0.1957
     63  CA       166.5270  146.6630  175.8200 C.3    93  GLY93       0.1869
     64  C        166.5950  145.9820  177.1700 C.2    93  GLY93       0.2309
     65  O        166.1040  144.8610  177.3380 O.2    93  GLY93      -0.2863
     66  N        171.7680  149.9920  183.6840 N.3   131  TRP131     -0.1241
     67  CA       171.9590  148.7850  182.9100 C.3   131  TRP131      0.1605
     68  C        173.3900  148.4330  182.4790 C.2   131  TRP131      0.2264
     69  O        173.6080  147.2470  182.2290 O.2   131  TRP131     -0.2867
     70  CB       171.0430  148.8370  181.6870 C.3   131  TRP131      0.0550
     71  CG       171.4410  149.8580  180.7580 C.ar  131  TRP131      0.0003
     72  CD1      171.0880  151.1620  180.7760 C.ar  131  TRP131      0.0946
     73  CD2      172.3180  149.6890  179.6550 C.ar  131  TRP131      0.0152
     74  NE1      171.6940  151.8270  179.7460 N.ar  131  TRP131     -0.2442
     75  CE2      172.4620  150.9370  179.0440 C.ar  131  TRP131      0.0810
     76  CE3      173.0110  148.5980  179.1330 C.ar  131  TRP131      0.0012
     77  CZ2      173.2670  151.1290  177.9330 C.ar  131  TRP131      0.0191
     78  CZ3      173.8000  148.7860  178.0290 C.ar  131  TRP131      0.0001
     79  CH2      173.9180  150.0390  177.4330 C.ar  131  TRP131      0.0015
@<TRIPOS>BOND
     1     9     7   ar
     2     9    11   ar
     3     7     6   ar
     4    11    10   ar
     5     6     5    1
     6     6     8   ar
     7     5     2    1
     8    10     8   ar
     9     2     1    1
    10     2     3    1
    11     3     4    2
    12    17    16    1
    13    17    18    1
    14    33    34   ar
    15    33    31   ar
    16    34    32   ar
    17    23    20    1
    18    16    13    1
    19    31    29   ar
    20    32    30   ar
    21    18    12    1
    22    20    19    1
    23    20    21    1
    24    29    30   ar
    25    29    28    1
    26    19    14   am
    27    14    15    2
    28    14    13    1
    29    13    12    1
    30    28    25    1
    31    42    40    1
    32    21    22    2
    33    41    40    1
    34    40    39    1
    35    49    47    1
    36    48    47    1
    37    25    26    1
    38    25    24    1
    39    47    44    1
    40    26    35   am
    41    26    27    2
    42    35    36    1
    43    39    36    1
    44    36    37    1
    45    44    43    1
    46    44    45    1
    47    61    59    1
    48    46    45    2
    49    60    58    1
    50    45    50   am
    51    37    38    2
    52    58    59    1
    53    58    55    1
    54    50    51    1
    55    63    62    1
    56    63    64    1
    57    62    56   am
    58    56    55    1
    59    56    57    2
    60    51    52    1
    61    55    54    1
    62    64    65    2
    63    79    77   ar
    64    79    78   ar
    65    52    53    2
    66    77    75   ar
    67    78    76   ar
    68    75    73   ar
    69    75    74   ar
    70    76    73   ar
    71    73    71   ar
    72    74    72   ar
    73    71    72   ar
    74    71    70    1
    75    70    67    1
    76    69    68    2
    77    68    67    1
    78    67    66    1
