@<TRIPOS>MOLECULE
tmp/5zgbJ01.pdb
 91 88 0 0 0
SMALL
GASTEIGER

@<TRIPOS>ATOM
      1  N        120.6690  123.1150  112.1530 N.3    11  TYR11      -0.1241
      2  CA       121.6360  124.0150  111.5380 C.3    11  TYR11       0.1605
      3  C        123.0600  123.5020  111.6910 C.2    11  TYR11       0.2264
      4  O        123.8580  123.5920  110.7540 O.2    11  TYR11      -0.2867
      5  CB       121.5140  125.4140  112.1270 C.3    11  TYR11       0.0534
      6  CG       122.5070  126.3740  111.5340 C.ar   11  TYR11      -0.0201
      7  CD1      122.3830  126.7990  110.2210 C.ar   11  TYR11      -0.0009
      8  CD2      123.5650  126.8600  112.2860 C.ar   11  TYR11      -0.0009
      9  CE1      123.2890  127.6750  109.6680 C.ar   11  TYR11       0.0417
     10  CE2      124.4740  127.7400  111.7450 C.ar   11  TYR11       0.0417
     11  CZ       124.3320  128.1440  110.4360 C.ar   11  TYR11       0.1957
     12  OH       125.2390  129.0230  109.8920 O.3    11  TYR11      -0.2866
     13  N        137.3070  120.9410  101.0200 N.3    29  LEU29      -0.1245
     14  CA       137.2350  121.9480   99.9740 C.3    29  LEU29       0.1561
     15  C        136.0670  122.8920  100.1910 C.2    29  LEU29       0.2260
     16  O        136.0940  124.0250   99.7020 O.2    29  LEU29      -0.2867
     17  CB       137.1640  121.2550   98.6120 C.3    29  LEU29       0.0270
     18  CG       137.3430  122.0460   97.3170 C.3    29  LEU29       0.0019
     19  CD1      138.0900  121.1930   96.3170 C.3    29  LEU29       0.0001
     20  CD2      136.0060  122.4360   96.7320 C.3    29  LEU29       0.0001
     21  N        136.6640  126.6040  100.9230 N.3    33  MET33      -0.1230
     22  CA       135.8420  127.4400  100.0630 C.3    33  MET33       0.1702
     23  C        135.1910  128.5690  100.8520 C.2    33  MET33       0.2592
     24  O        135.0170  129.6730  100.3250 O.2    33  MET33      -0.2718
     25  CB       134.7950  126.5860   99.3540 C.3    33  MET33       0.0401
     26  CG       134.0270  127.3450   98.3050 C.3    33  MET33       0.0596
     27  SD       132.8260  126.3780   97.3960 S.3    33  MET33      -0.1393
     28  CE       133.9060  125.4630   96.3090 C.3    33  MET33       0.0692
     29  N        134.8750  128.3360  102.1240 N.am   34  ALA34      -0.1980
     30  CA       134.4220  129.4450  102.9590 C.3    34  ALA34       0.1597
     31  C        135.5890  130.3240  103.4030 C.2    34  ALA34       0.2287
     32  O        135.6010  131.5390  103.1580 O.2    34  ALA34      -0.2864
     33  CB       133.6660  128.9080  104.1730 C.3    34  ALA34       0.0319
     34  N        137.8240  132.3180  100.8230 N.3    37  TYR37      -0.1227
     35  CA       137.0970  133.4800  100.3350 C.3    37  TYR37       0.1736
     36  C        137.0140  134.5490  101.4050 C.2    37  TYR37       0.2595
     37  O        136.9680  135.7420  101.0940 O.2    37  TYR37      -0.2718
     38  CB       135.6910  133.0870   99.8960 C.3    37  TYR37       0.0548
     39  CG       134.9180  134.2390   99.3100 C.ar   37  TYR37      -0.0200
     40  CD1      135.1620  134.6630   98.0190 C.ar   37  TYR37      -0.0009
     41  CD2      133.9620  134.9140  100.0530 C.ar   37  TYR37      -0.0009
     42  CE1      134.4770  135.7160   97.4780 C.ar   37  TYR37       0.0417
     43  CE2      133.2700  135.9700   99.5200 C.ar   37  TYR37       0.0417
     44  CZ       133.5300  136.3630   98.2310 C.ar   37  TYR37       0.1957
     45  OH       132.8420  137.4190   97.6880 O.3    37  TYR37      -0.2866
     46  N        136.9820  134.1320  102.6640 N.am   38  PHE38      -0.1976
     47  CA       136.8570  135.0830  103.7570 C.3    38  PHE38       0.1639
     48  C        138.1330  135.8930  103.9600 C.2    38  PHE38       0.2290
     49  O        138.0820  137.1190  104.1040 O.2    38  PHE38      -0.2864
     50  CB       136.4850  134.3290  105.0250 C.3    38  PHE38       0.0560
     51  CG       136.5580  135.1560  106.2380 C.ar   38  PHE38      -0.0200
     52  CD1      135.6090  136.1100  106.4850 C.ar   38  PHE38      -0.0042
     53  CD2      137.5910  134.9880  107.1400 C.ar   38  PHE38      -0.0042
     54  CE1      135.6840  136.8790  107.6030 C.ar   38  PHE38      -0.0003
     55  CE2      137.6690  135.7690  108.2520 C.ar   38  PHE38      -0.0003
     56  CZ       136.7120  136.7140  108.4900 C.ar   38  PHE38      -0.0000
     57  N        143.5980  123.3920   98.8850 N.3   104  LEU104     -0.1231
     58  CA       143.1930  123.6640   97.5090 C.3   104  LEU104      0.1693
     59  C        141.9070  124.4760   97.4630 C.2   104  LEU104      0.2592
     60  O        141.7740  125.3980   96.6470 O.2   104  LEU104     -0.2718
     61  CB       143.0380  122.3560   96.7320 C.3   104  LEU104      0.0284
     62  CG       144.2900  121.7400   96.0880 C.3   104  LEU104      0.0019
     63  CD1      145.2630  121.1340   97.0960 C.3   104  LEU104      0.0001
     64  CD2      143.8980  120.7030   95.0420 C.3   104  LEU104      0.0001
     65  N        140.9660  124.1750   98.3560 N.am  105  GLY105     -0.1957
     66  CA       139.7600  124.9740   98.4360 C.3   105  GLY105      0.1869
     67  C        139.9980  126.3520   99.0130 C.2   105  GLY105      0.2309
     68  O        139.2830  127.2990   98.6790 O.2   105  GLY105     -0.2863
     69  N        141.7460  128.3480   96.3460 N.3   108  GLY108     -0.1210
     70  CA       140.6650  128.6330   95.4180 C.3   108  GLY108      0.1956
     71  C        139.7250  129.7190   95.9050 C.2   108  GLY108      0.2612
     72  O        139.2250  130.5160   95.1070 O.2   108  GLY108     -0.2717
     73  N        139.4860  129.7800   97.2160 N.am  109  GLY109     -0.1956
     74  CA       138.7070  130.8740   97.7630 C.3   109  GLY109      0.1869
     75  C        139.4330  132.1970   97.6940 C.2   109  GLY109      0.2309
     76  O        138.8110  133.2420   97.4710 O.2   109  GLY109     -0.2863
     77  N        141.8540  133.0970   95.4010 N.3   111  GLY111     -0.1210
     78  CA       141.8280  133.5380   94.0180 C.3   111  GLY111      0.1956
     79  C        140.4370  133.8840   93.5370 C.2   111  GLY111      0.2611
     80  O        140.2740  134.7230   92.6480 O.2   111  GLY111     -0.2717
     81  N        139.4150  133.2660   94.1300 N.am  112  PHE112     -0.1976
     82  CA       138.0440  133.6070   93.7720 C.3   112  PHE112      0.1639
     83  C        137.6650  134.9850   94.2880 C.2   112  PHE112      0.2290
     84  O        137.0100  135.7540   93.5800 O.2   112  PHE112     -0.2864
     85  CB       137.0860  132.5570   94.3160 C.3   112  PHE112      0.0560
     86  CG       135.6660  132.7630   93.9000 C.ar  112  PHE112     -0.0200
     87  CD1      135.2610  132.4480   92.6150 C.ar  112  PHE112     -0.0042
     88  CD2      134.7320  133.2550   94.7920 C.ar  112  PHE112     -0.0042
     89  CE1      133.9510  132.6230   92.2290 C.ar  112  PHE112     -0.0003
     90  CE2      133.4190  133.4360   94.4110 C.ar  112  PHE112     -0.0003
     91  CZ       133.0290  133.1240   93.1270 C.ar  112  PHE112     -0.0000
@<TRIPOS>BOND
     1    89    87   ar
     2    89    91   ar
     3    87    86   ar
     4    80    79    2
     5    91    90   ar
     6    79    78    1
     7    79    81   am
     8    84    83    2
     9    82    81    1
    10    82    83    1
    11    82    85    1
    12    86    85    1
    13    86    88   ar
    14    78    77    1
    15    90    88   ar
    16    64    62    1
    17    72    71    2
    18    70    71    1
    19    70    69    1
    20    71    73   am
    21    62    61    1
    22    62    63    1
    23    28    27    1
    24    19    18    1
    25    60    59    2
    26    20    18    1
    27    61    58    1
    28    73    74    1
    29    18    17    1
    30    27    26    1
    31    59    58    1
    32    59    65   am
    33    76    75    2
    34    42    40   ar
    35    42    44   ar
    36    58    57    1
    37    45    44    1
    38    75    74    1
    39    40    39   ar
    40    44    43   ar
    41    26    25    1
    42    65    66    1
    43    66    67    1
    44    17    14    1
    45    68    67    2
    46    39    38    1
    47    39    41   ar
    48    25    22    1
    49    43    41   ar
    50    16    15    2
    51    38    35    1
    52    14    15    1
    53    14    13    1
    54    22    23    1
    55    22    21    1
    56    24    23    2
    57    35    34    1
    58    35    36    1
    59    23    29   am
    60    37    36    2
    61    36    46   am
    62    29    30    1
    63    46    47    1
    64    30    31    1
    65    30    33    1
    66    32    31    2
    67    47    48    1
    68    47    50    1
    69    48    49    2
    70    50    51    1
    71    51    52   ar
    72    51    53   ar
    73    52    54   ar
    74    53    55   ar
    75    54    56   ar
    76    55    56   ar
    77     9     7   ar
    78     9    11   ar
    79    12    11    1
    80     7     6   ar
    81    11    10   ar
    82     4     3    2
    83     6     5    1
    84     6     8   ar
    85     2     3    1
    86     2     5    1
    87     2     1    1
    88    10     8   ar
