@<TRIPOS>MOLECULE
tmp/5zgbB00.pdb
 124 119 0 0 0
SMALL
GASTEIGER

@<TRIPOS>ATOM
      1  N        157.9910  112.3840  125.2630 N.3     4  PHE4       -0.1241
      2  CA       158.7270  113.5820  125.7170 C.3     4  PHE4        0.1605
      3  C        159.9730  113.3600  126.5890 C.2     4  PHE4        0.2264
      4  O        161.0220  112.9960  126.0620 O.2     4  PHE4       -0.2867
      5  CB       157.8090  114.6590  126.3110 C.3     4  PHE4        0.0534
      6  CG       158.4320  116.0330  126.3230 C.ar    4  PHE4       -0.0203
      7  CD1      159.6980  116.2190  125.8050 C.ar    4  PHE4       -0.0042
      8  CD2      157.7870  117.1080  126.8980 C.ar    4  PHE4       -0.0042
      9  CE1      160.2960  117.4600  125.8240 C.ar    4  PHE4       -0.0003
     10  CE2      158.3800  118.3560  126.9210 C.ar    4  PHE4       -0.0003
     11  CZ       159.6360  118.5310  126.3820 C.ar    4  PHE4       -0.0000
     12  N        162.0830  111.9680  127.4540 N.3     6  LYS6       -0.1231
     13  CA       162.7390  110.7430  127.1320 C.3     6  LYS6        0.1693
     14  C        163.6480  110.4640  128.2810 C.2     6  LYS6        0.2592
     15  O        164.4630  109.5520  128.2130 O.2     6  LYS6       -0.2718
     16  CB       163.5360  110.8940  125.8370 C.3     6  LYS6        0.0285
     17  CG       163.3690  112.2490  125.1660 C.3     6  LYS6        0.0035
     18  CD       162.8180  112.1250  123.7510 C.3     6  LYS6        0.0206
     19  CE       163.5330  113.0670  122.7910 C.3     6  LYS6        0.1093
     20  NZ       162.7280  114.2760  122.4640 N.3     6  LYS6       -0.1314
     21  N        163.5310  111.2300  129.3600 N.am    7  PHE7       -0.1976
     22  CA       164.4650  110.8830  130.4180 C.3     7  PHE7        0.1639
     23  C        163.8190  110.5000  131.7350 C.2     7  PHE7        0.2290
     24  O        164.4760  109.8350  132.5410 O.2     7  PHE7       -0.2864
     25  CB       165.4470  112.0380  130.6720 C.3     7  PHE7        0.0560
     26  CG       164.7880  113.3610  130.9610 C.ar    7  PHE7       -0.0200
     27  CD1      164.4000  113.7060  132.2450 C.ar    7  PHE7       -0.0042
     28  CD2      164.5690  114.2660  129.9440 C.ar    7  PHE7       -0.0042
     29  CE1      163.8000  114.9110  132.5010 C.ar    7  PHE7       -0.0003
     30  CE2      163.9880  115.4820  130.1990 C.ar    7  PHE7       -0.0003
     31  CZ       163.5890  115.7980  131.4770 C.ar    7  PHE7       -0.0000
     32  N        159.1070  118.6950  131.6800 N.3    23  GLY23      -0.1210
     33  CA       160.0110  118.0610  130.7420 C.3    23  GLY23       0.1956
     34  C        161.0970  119.0030  130.2780 C.2    23  GLY23       0.2611
     35  O        162.2060  118.5700  129.9590 O.2    23  GLY23      -0.2717
     36  N        160.8030  120.2980  130.2530 N.am   24  ILE24      -0.1979
     37  CA       161.7990  121.2850  129.8670 C.3    24  ILE24       0.1595
     38  C        162.6960  121.6400  131.0420 C.2    24  ILE24       0.2287
     39  O        163.9250  121.5970  130.9410 O.2    24  ILE24      -0.2864
     40  CB       161.1000  122.5260  129.2880 C.3    24  ILE24       0.0276
     41  CG1      160.5250  122.2110  127.9150 C.3    24  ILE24       0.0022
     42  CG2      162.0400  123.6770  129.2070 C.3    24  ILE24       0.0022
     43  CD1      159.6230  123.2740  127.3990 C.3    24  ILE24       0.0001
     44  N        165.2960  119.0490  132.2870 N.3    27  ALA27      -0.1231
     45  CA       166.0810  118.3950  131.2520 C.3    27  ALA27       0.1694
     46  C        167.5490  118.3590  131.6240 C.2    27  ALA27       0.2592
     47  O        168.2070  117.3250  131.4800 O.2    27  ALA27      -0.2718
     48  CB       165.8860  119.1100  129.9210 C.3    27  ALA27       0.0304
     49  N        168.0700  119.4630  132.1240 N.am   28  HIS28      -0.1976
     50  CA       169.4660  119.5370  132.4980 C.3    28  HIS28       0.1656
     51  C        169.7130  119.0580  133.9160 C.2    28  HIS28       0.2291
     52  O        170.8680  118.9770  134.3340 O.2    28  HIS28      -0.2864
     53  CB       169.9530  120.9700  132.3340 C.3    28  HIS28       0.0771
     54  CG       169.8100  121.4860  130.9400 C.ar   28  HIS28       0.0820
     55  ND1      168.6550  122.0770  130.4840 N.ar   28  HIS28      -0.2267
     56  CD2      170.6700  121.4930  129.8990 C.ar   28  HIS28       0.1154
     57  CE1      168.8110  122.4290  129.2220 C.ar   28  HIS28       0.1986
     58  NE2      170.0290  122.0930  128.8460 N.ar   28  HIS28      -0.2212
     59  N        170.5700  116.5590  135.6380 N.3    30  PHE30      -0.1241
     60  CA       171.0930  115.2460  135.3040 C.3    30  PHE30       0.1605
     61  C        171.1640  114.3280  136.5050 C.2    30  PHE30       0.2264
     62  O        171.2200  113.1080  136.3310 O.2    30  PHE30      -0.2867
     63  CB       172.4770  115.3650  134.6760 C.3    30  PHE30       0.0534
     64  CG       172.4700  115.9160  133.2850 C.ar   30  PHE30      -0.0203
     65  CD1      171.3020  116.0180  132.5620 C.ar   30  PHE30      -0.0042
     66  CD2      173.6420  116.3050  132.6920 C.ar   30  PHE30      -0.0042
     67  CE1      171.3110  116.5180  131.2880 C.ar   30  PHE30      -0.0003
     68  CE2      173.6570  116.8030  131.4220 C.ar   30  PHE30      -0.0003
     69  CZ       172.4900  116.9090  130.7190 C.ar   30  PHE30      -0.0000
     70  N        167.3480  111.6310  136.8700 N.3    33  HIS33      -0.1241
     71  CA       166.7900  111.0260  135.6740 C.3    33  HIS33       0.1621
     72  C        166.3840  109.5970  136.0060 C.2    33  HIS33       0.2264
     73  O        166.3350  109.2040  137.1740 O.2    33  HIS33      -0.2867
     74  CB       167.7760  111.0620  134.5070 C.3    33  HIS33       0.0745
     75  CG       167.9000  112.4010  133.8500 C.ar   33  HIS33       0.0817
     76  ND1      168.7810  112.6390  132.8190 N.ar   33  HIS33      -0.2268
     77  CD2      167.2580  113.5700  134.0710 C.ar   33  HIS33       0.1154
     78  CE1      168.6690  113.8940  132.4270 C.ar   33  HIS33       0.1986
     79  NE2      167.7540  114.4820  133.1740 N.ar   33  HIS33      -0.2212
     80  N        170.3970  107.2810  135.3560 N.3    36  MET36      -0.1245
     81  CA       171.6820  107.8770  135.0120 C.3    36  MET36       0.1570
     82  C        172.5460  107.9190  136.2630 C.2    36  MET36       0.2261
     83  O        172.3670  108.7710  137.1350 O.2    36  MET36      -0.2867
     84  CB       171.4790  109.2500  134.3850 C.3    36  MET36       0.0387
     85  CG       170.7400  109.1240  133.0610 C.3    36  MET36       0.0595
     86  SD       170.4750  110.6120  132.0850 S.3    36  MET36      -0.1393
     87  CE       169.4250  109.9390  130.7930 C.3    36  MET36       0.0692
     88  N        178.0250  112.8590  130.5710 N.3    44  LYS44      -0.1245
     89  CA       177.0940  113.7340  129.8720 C.3    44  LYS44       0.1561
     90  C        177.3560  115.2080  130.1200 C.2    44  LYS44       0.2260
     91  O        177.2320  116.0130  129.1900 O.2    44  LYS44      -0.2867
     92  CB       175.6540  113.4200  130.2580 C.3    44  LYS44       0.0271
     93  CG       175.1090  112.1820  129.6100 C.3    44  LYS44       0.0035
     94  CD       173.7340  111.8930  130.1460 C.3    44  LYS44       0.0206
     95  CE       172.7500  112.9440  129.7050 C.3    44  LYS44       0.1093
     96  NZ       171.4100  112.6090  130.2250 N.3    44  LYS44      -0.1314
     97  N        178.2950  118.0210  127.2850 N.3    48  SER48      -0.1217
     98  CA       177.5120  119.2430  127.2030 C.3    48  SER48       0.1889
     99  C        178.3340  120.4800  127.5220 C.2    48  SER48       0.2288
    100  O        177.9560  121.5760  127.0930 O.2    48  SER48      -0.2866
    101  CB       176.3200  119.1600  128.1350 C.3    48  SER48       0.2089
    102  OG       176.7430  119.1710  129.4780 O.3    48  SER48      -0.2183
    103  N        179.5080  121.2500  124.0380 N.3    51  GLY51      -0.1210
    104  CA       178.4370  121.9010  123.3030 C.3    51  GLY51       0.1956
    105  C        178.2530  123.3430  123.7290 C.2    51  GLY51       0.2611
    106  O        178.0190  124.2270  122.8970 O.2    51  GLY51      -0.2717
    107  N        178.4350  123.6050  125.0200 N.am   52  HIS52      -0.1975
    108  CA       178.3380  124.9590  125.5410 C.3    52  HIS52       0.1656
    109  C        179.4560  125.8470  125.0160 C.2    52  HIS52       0.2291
    110  O        179.2130  126.9950  124.6190 O.2    52  HIS52      -0.2864
    111  CB       178.3910  124.9210  127.0510 C.3    52  HIS52       0.0771
    112  CG       178.1390  126.2400  127.6740 C.ar   52  HIS52       0.0820
    113  ND1      179.1100  127.2050  127.7980 N.ar   52  HIS52      -0.2267
    114  CD2      177.0180  126.7560  128.2130 C.ar   52  HIS52       0.1154
    115  CE1      178.5890  128.2710  128.3700 C.ar   52  HIS52       0.1986
    116  NE2      177.3300  128.0100  128.6560 N.ar   52  HIS52      -0.2212
    117  N        178.9120  126.8140  121.6250 N.3    55  ILE55      -0.1245
    118  CA       177.9300  127.8890  121.5190 C.3    55  ILE55       0.1561
    119  C        178.5770  129.2430  121.7890 C.2    55  ILE55       0.2260
    120  O        178.2850  130.2280  121.0910 O.2    55  ILE55      -0.2867
    121  CB       176.7290  127.6090  122.4350 C.3    55  ILE55       0.0252
    122  CG1      175.8840  126.5040  121.8190 C.3    55  ILE55       0.0019
    123  CG2      175.8710  128.8280  122.6450 C.3    55  ILE55       0.0019
    124  CD1      174.7600  126.0590  122.6820 C.3    55  ILE55       0.0001
@<TRIPOS>BOND
     1   120   119    2
     2   118   117    1
     3   118   119    1
     4   118   121    1
     5   122   121    1
     6   122   124    1
     7   121   123    1
     8    20    19    1
     9    19    18    1
    10   106   105    2
    11   104   105    1
    12   104   103    1
    13   105   107   am
    14    18    17    1
    15   110   109    2
    16   109   108    1
    17   107   108    1
    18    17    16    1
    19     1     2    1
    20   108   111    1
    21     2     5    1
    22     2     3    1
    23     7     9   ar
    24     7     6   ar
    25     9    11   ar
    26    16    13    1
    27     4     3    2
    28     5     6    1
    29     6     8   ar
    30    11    10   ar
    31     8    10   ar
    32   111   112    1
    33   100    99    2
    34    13    12    1
    35    13    14    1
    36    98    97    1
    37    98    99    1
    38    98   101    1
    39    43    41    1
    40   112   113   ar
    41   112   114   ar
    42   113   115   ar
    43    41    40    1
    44   101   102    1
    45    15    14    2
    46   114   116   ar
    47    14    21   am
    48   115   116   ar
    49    58    57   ar
    50    58    56   ar
    51    91    90    2
    52    42    40    1
    53    57    55   ar
    54    40    37    1
    55    21    22    1
    56    93    94    1
    57    93    92    1
    58    95    94    1
    59    95    96    1
    60    37    36    1
    61    37    38    1
    62    89    90    1
    63    89    92    1
    64    89    88    1
    65    56    54   ar
    66    48    45    1
    67    28    30   ar
    68    28    26   ar
    69    35    34    2
    70    30    31   ar
    71    36    34   am
    72    34    33    1
    73    22    25    1
    74    22    23    1
    75    55    54   ar
    76    25    26    1
    77    69    67   ar
    78    69    68   ar
    79    33    32    1
    80    87    86    1
    81    54    53    1
    82    39    38    2
    83    26    27   ar
    84    45    46    1
    85    45    44    1
    86    67    65   ar
    87    68    66   ar
    88    31    29   ar
    89    47    46    2
    90    46    49   am
    91    23    24    2
    92    86    85    1
    93    49    50    1
    94    27    29   ar
    95    53    50    1
    96    78    76   ar
    97    78    79   ar
    98    50    51    1
    99    65    64   ar
   100    66    64   ar
   101    76    75   ar
   102    85    84    1
   103    79    77   ar
   104    64    63    1
   105    75    77   ar
   106    75    74    1
   107    51    52    2
   108    84    81    1
   109    74    71    1
   110    63    60    1
   111    81    80    1
   112    81    82    1
   113    60    59    1
   114    60    61    1
   115    71    72    1
   116    71    70    1
   117    72    73    2
   118    82    83    2
   119    62    61    2
