@<TRIPOS>MOLECULE
tmp/5zgbP09.pdb
 186 182 0 0 0
SMALL
GASTEIGER

@<TRIPOS>ATOM
      1  N        165.9250  120.7240   87.5700 N.3    46  VAL46      -0.1245
      2  CA       165.7430  122.1660   87.4800 C.3    46  VAL46       0.1561
      3  C        167.0920  122.8740   87.3510 C.2    46  VAL46       0.2260
      4  O        167.1840  123.9280   86.7080 O.2    46  VAL46      -0.2867
      5  CB       164.9060  122.6900   88.6610 C.3    46  VAL46       0.0252
      6  CG1      165.6830  122.7010   89.9470 C.3    46  VAL46       0.0019
      7  CG2      164.3650  124.0600   88.3540 C.3    46  VAL46       0.0019
      8  N        167.6870  122.3880   83.5330 N.3    49  LEU49      -0.1231
      9  CA       167.0440  123.4170   82.7280 C.3    49  LEU49       0.1693
     10  C        167.6790  124.7790   82.9490 C.2    49  LEU49       0.2591
     11  O        167.7320  125.5940   82.0220 O.2    49  LEU49      -0.2718
     12  CB       165.5600  123.4910   83.0570 C.3    49  LEU49       0.0284
     13  CG       164.7290  122.2620   82.7210 C.3    49  LEU49       0.0019
     14  CD1      163.2970  122.4860   83.1640 C.3    49  LEU49       0.0001
     15  CD2      164.8080  121.9570   81.2380 C.3    49  LEU49       0.0001
     16  N        168.1620  125.0430   84.1620 N.am   50  ALA50      -0.1980
     17  CA       168.7420  126.3480   84.4470 C.3    50  ALA50       0.1597
     18  C        170.0810  126.5260   83.7400 C.2    50  ALA50       0.2287
     19  O        170.3500  127.5860   83.1550 O.2    50  ALA50      -0.2864
     20  CB       168.8810  126.5220   85.9520 C.3    50  ALA50       0.0319
     21  N        170.6370  124.9400   81.0740 N.3    52  LEU52      -0.1231
     22  CA       170.2550  125.0370   79.6690 C.3    52  LEU52       0.1693
     23  C        169.8930  126.4720   79.2940 C.2    52  LEU52       0.2592
     24  O        170.1470  126.8910   78.1620 O.2    52  LEU52      -0.2718
     25  CB       169.1080  124.0750   79.3500 C.3    52  LEU52       0.0284
     26  CG       168.8060  123.9130   77.8550 C.3    52  LEU52       0.0019
     27  CD1      170.0230  123.3500   77.1390 C.3    52  LEU52       0.0001
     28  CD2      167.5860  123.0430   77.5860 C.3    52  LEU52       0.0001
     29  N        169.3220  127.2440   80.2260 N.am   53  HIS53      -0.1976
     30  CA       169.2340  128.6910   80.0240 C.3    53  HIS53       0.1656
     31  C        170.6120  129.3290   79.9330 C.2    53  HIS53       0.2291
     32  O        170.8300  130.2460   79.1310 O.2    53  HIS53      -0.2864
     33  CB       168.4230  129.3670   81.1310 C.3    53  HIS53       0.0771
     34  CG       168.6340  130.8490   81.1920 C.ar   53  HIS53       0.0820
     35  ND1      169.4730  131.4360   82.1140 N.ar   53  HIS53      -0.2267
     36  CD2      168.2200  131.8470   80.3760 C.ar   53  HIS53       0.1154
     37  CE1      169.5010  132.7400   81.9110 C.ar   53  HIS53       0.1986
     38  NE2      168.7480  133.0160   80.8620 N.ar   53  HIS53      -0.2212
     39  N        171.6410  128.4820   76.2470 N.3    56  VAL56      -0.1245
     40  CA       170.9280  129.0320   75.0990 C.3    56  VAL56       0.1561
     41  C        170.7460  130.5180   75.4030 C.2    56  VAL56       0.2260
     42  O        169.6760  131.1050   75.2050 O.2    56  VAL56      -0.2867
     43  CB       169.6030  128.2880   74.8140 C.3    56  VAL56       0.0252
     44  CG1      169.0690  128.5970   73.4050 C.3    56  VAL56       0.0019
     45  CG2      169.7930  126.7930   74.9260 C.3    56  VAL56       0.0019
     46  N        169.1950  133.6600   69.8200 N.3    60  TYR60      -0.1227
     47  CA       167.8940  133.1100   69.4770 C.3    60  TYR60       0.1736
     48  C        166.9050  133.2940   70.6230 C.2    60  TYR60       0.2595
     49  O        167.2710  133.2460   71.8020 O.2    60  TYR60      -0.2718
     50  CB       168.0070  131.6270   69.1120 C.3    60  TYR60       0.0548
     51  CG       166.6980  131.0290   68.6460 C.ar   60  TYR60      -0.0200
     52  CD1      166.1830  131.3340   67.3900 C.ar   60  TYR60      -0.0009
     53  CD2      165.9690  130.1770   69.4660 C.ar   60  TYR60      -0.0009
     54  CE1      164.9800  130.8010   66.9620 C.ar   60  TYR60       0.0417
     55  CE2      164.7640  129.6400   69.0470 C.ar   60  TYR60       0.0417
     56  CZ       164.2760  129.9540   67.7950 C.ar   60  TYR60       0.1957
     57  OH       163.0810  129.4190   67.3730 O.3    60  TYR60      -0.2866
     58  N        165.6420  133.5220   70.2440 N.am   61  GLN61      -0.1965
     59  CA       164.4750  133.6000   71.1260 C.3    61  GLN61       0.1733
     60  C        164.6350  134.7230   72.1580 C.2    61  GLN61       0.2616
     61  O        164.7790  134.5040   73.3620 O.2    61  GLN61      -0.2715
     62  CB       164.1910  132.2430   71.7880 C.3    61  GLN61       0.0408
     63  CG       162.8230  132.1140   72.4630 C.3    61  GLN61       0.0908
     64  CD       161.6750  132.2260   71.4780 C.2    61  GLN61       0.2608
     65  OE1      160.9970  133.2490   71.4040 O.2    61  GLN61      -0.2717
     66  NE2      161.4530  131.1610   70.7090 N.am   61  GLN61      -0.0878
     67  N        164.6240  135.9500   71.6350 N.am   62  PHE62      -0.1960
     68  CA       164.5210  137.1490   72.4630 C.3    62  PHE62       0.1756
     69  C        163.1990  137.8600   72.1870 C.2    62  PHE62       0.2461
     70  O        163.2000  138.9400   71.5810 O.2    62  PHE62      -0.2730
     71  CB       165.6840  138.1070   72.1880 C.3    62  PHE62       0.0574
     72  CG       167.0210  137.6280   72.6920 C.ar   62  PHE62      -0.0200
     73  CD1      167.1150  136.6070   73.6170 C.ar   62  PHE62      -0.0042
     74  CD2      168.1880  138.2180   72.2410 C.ar   62  PHE62      -0.0042
     75  CE1      168.3380  136.1720   74.0790 C.ar   62  PHE62      -0.0003
     76  CE2      169.4190  137.7900   72.7000 C.ar   62  PHE62      -0.0003
     77  CZ       169.4920  136.7670   73.6230 C.ar   62  PHE62      -0.0000
     78  N        162.0480  137.3150   72.6230 N.am   63  PRO63      -0.2727
     79  CA       160.7660  137.8300   72.0930 C.3    63  PRO63       0.1402
     80  C        160.2120  139.0800   72.7740 C.2    63  PRO63       0.2269
     81  O        159.3430  139.0320   73.6470 O.2    63  PRO63      -0.2865
     82  CB       159.8290  136.6340   72.2790 C.3    63  PRO63       0.0296
     83  CG       160.3520  135.9500   73.4840 C.3    63  PRO63       0.0237
     84  CD       161.8410  136.1410   73.4880 C.3    63  PRO63       0.0939
     85  N        160.5690  141.3530   74.9270 N.3    65  PHE65      -0.1227
     86  CA       160.4650  141.8500   76.2960 C.3    65  PHE65       0.1736
     87  C        161.7970  142.2130   76.9320 C.2    65  PHE65       0.2595
     88  O        161.8570  143.1710   77.7050 O.2    65  PHE65      -0.2718
     89  CB       159.7350  140.8320   77.1930 C.3    65  PHE65       0.0547
     90  CG       160.4880  139.5470   77.4230 C.ar   65  PHE65      -0.0202
     91  CD1      160.3910  138.5090   76.5220 C.ar   65  PHE65      -0.0042
     92  CD2      161.2430  139.3560   78.5690 C.ar   65  PHE65      -0.0042
     93  CE1      161.0610  137.3310   76.7280 C.ar   65  PHE65      -0.0003
     94  CE2      161.9180  138.1730   78.7720 C.ar   65  PHE65      -0.0003
     95  CZ       161.8190  137.1620   77.8460 C.ar   65  PHE65      -0.0000
     96  N        162.8720  141.4850   76.6420 N.am   66  ALA66      -0.1980
     97  CA       164.0780  141.5860   77.4720 C.3    66  ALA66       0.1597
     98  C        165.0620  142.6170   76.9310 C.2    66  ALA66       0.2287
     99  O        165.3140  143.6430   77.5710 O.2    66  ALA66      -0.2864
    100  CB       164.7380  140.2110   77.5910 C.3    66  ALA66       0.0319
    101  N        168.1750  142.3380   76.8900 N.3    68  ALA68      -0.1231
    102  CA       169.3780  142.2970   77.7220 C.3    68  ALA68       0.1679
    103  C        170.0560  140.9430   77.5350 C.2    68  ALA68       0.2434
    104  O        169.8620  140.0260   78.3470 O.2    68  ALA68      -0.2733
    105  CB       169.0470  142.5450   79.1920 C.3    68  ALA68       0.0304
    106  N        170.8640  140.7830   76.4840 N.am   69  PRO69      -0.2718
    107  CA       171.4460  139.4640   76.1930 C.3    69  PRO69       0.1535
    108  C        172.6750  139.1740   77.0480 C.2    69  PRO69       0.2598
    109  O        173.5690  140.0150   77.1770 O.2    69  PRO69      -0.2715
    110  CB       171.8120  139.5600   74.7080 C.3    69  PRO69       0.0310
    111  CG       172.0650  141.0120   74.4840 C.3    69  PRO69       0.0237
    112  CD       171.1370  141.7550   75.4060 C.3    69  PRO69       0.0939
    113  N        172.6960  137.9680   77.6310 N.am   70  LYS70      -0.1978
    114  CA       173.8570  137.3670   78.2990 C.3    70  LYS70       0.1596
    115  C        174.3490  138.2290   79.4690 C.2    70  LYS70       0.2287
    116  O        175.4330  138.8160   79.4460 O.2    70  LYS70      -0.2864
    117  CB       174.9700  137.0770   77.2800 C.3    70  LYS70       0.0298
    118  CG       176.0810  136.1470   77.7620 C.3    70  LYS70       0.0038
    119  CD       177.0960  135.8770   76.6600 C.3    70  LYS70       0.0206
    120  CE       176.8690  134.5340   75.9810 C.3    70  LYS70       0.1093
    121  NZ       175.7200  134.5420   75.0310 N.3    70  LYS70      -0.1314
    122  N        170.3380  140.0510   85.8400 N.3    75  ALA75      -0.1231
    123  CA       169.2020  139.6990   84.9950 C.3    75  ALA75       0.1694
    124  C        168.0420  139.1940   85.8400 C.2    75  ALA75       0.2592
    125  O        166.8730  139.4660   85.5360 O.2    75  ALA75      -0.2718
    126  CB       169.6180  138.6500   83.9650 C.3    75  ALA75       0.0304
    127  N        168.3570  138.4540   86.9050 N.am   76  HIS76      -0.1976
    128  CA       167.3850  138.1590   87.9490 C.3    76  HIS76       0.1656
    129  C        166.7840  139.4320   88.5260 C.2    76  HIS76       0.2291
    130  O        165.5630  139.5450   88.6620 O.2    76  HIS76      -0.2864
    131  CB       168.0520  137.3450   89.0480 C.3    76  HIS76       0.0771
    132  CG       167.1480  137.0390   90.1930 C.ar   76  HIS76       0.0820
    133  ND1      167.0500  137.8510   91.3010 N.ar   76  HIS76      -0.2267
    134  CD2      166.2810  136.0210   90.3920 C.ar   76  HIS76       0.1154
    135  CE1      166.1720  137.3370   92.1420 C.ar   76  HIS76       0.1986
    136  NE2      165.6870  136.2310   91.6090 N.ar   76  HIS76      -0.2212
    137  N        164.4610  141.2080   85.9930 N.3    79  PHE79      -0.1241
    138  CA       163.0780  140.7640   85.8960 C.3    79  PHE79       0.1605
    139  C        162.3510  140.7270   87.2330 C.2    79  PHE79       0.2264
    140  O        161.1360  140.5110   87.2490 O.2    79  PHE79      -0.2867
    141  CB       163.0050  139.3990   85.2170 C.3    79  PHE79       0.0534
    142  CG       163.4210  139.4400   83.7900 C.ar   79  PHE79      -0.0203
    143  CD1      162.5810  139.9790   82.8360 C.ar   79  PHE79      -0.0042
    144  CD2      164.6560  138.9570   83.4000 C.ar   79  PHE79      -0.0042
    145  CE1      162.9670  140.0390   81.5180 C.ar   79  PHE79      -0.0003
    146  CE2      165.0510  139.0120   82.0830 C.ar   79  PHE79      -0.0003
    147  CZ       164.2010  139.5450   81.1370 C.ar   79  PHE79      -0.0000
    148  N        161.3380  144.0530   86.2150 N.3    82  SER82      -0.1202
    149  CA       160.4050  143.9890   85.0940 C.3    82  SER82       0.2020
    150  C        159.0810  143.3260   85.4460 C.2    82  SER82       0.2619
    151  O        158.1720  143.3230   84.6090 O.2    82  SER82      -0.2717
    152  CB       161.0350  143.2420   83.9170 C.3    82  SER82       0.2103
    153  OG       160.1210  143.1140   82.8420 O.3    82  SER82      -0.2182
    154  N        158.9460  142.7660   86.6420 N.am   83  GLY83      -0.1942
    155  CA       157.7430  142.0480   86.9910 C.3    83  GLY83       0.2014
    156  C        157.7070  140.6800   86.3440 C.2    83  GLY83       0.2639
    157  O        158.6610  140.2220   85.7090 O.2    83  GLY83      -0.2714
    158  N        156.5790  139.9950   86.5710 N.am   84  ALA84      -0.1963
    159  CA       156.2400  138.6710   86.0440 C.3    84  ALA84       0.1728
    160  C        157.2140  137.5670   86.4490 C.2    84  ALA84       0.2616
    161  O        157.1860  136.4740   85.8750 O.2    84  ALA84      -0.2715
    162  CB       156.1050  138.7080   84.5190 C.3    84  ALA84       0.0334
    163  N        158.0780  137.8300   87.4280 N.am   85  MET85      -0.1977
    164  CA       158.8250  136.7540   88.0550 C.3    85  MET85       0.1605
    165  C        158.0410  136.1760   89.2240 C.2    85  MET85       0.2287
    166  O        158.1800  134.9900   89.5330 O.2    85  MET85      -0.2864
    167  CB       160.2060  137.2530   88.4930 C.3    85  MET85       0.0413
    168  CG       161.1370  136.1560   88.9850 C.3    85  MET85       0.0598
    169  SD       162.7810  136.7100   89.4660 S.3    85  MET85      -0.1393
    170  CE       163.5460  136.9210   87.8700 C.3    85  MET85       0.0692
    171  N        155.7030  133.6430   87.4460 N.3    88  ILE88      -0.1245
    172  CA       156.1910  132.3040   87.1560 C.3    88  ILE88       0.1561
    173  C        156.2250  131.4480   88.4200 C.2    88  ILE88       0.2260
    174  O        156.1890  130.2160   88.3200 O.2    88  ILE88      -0.2867
    175  CB       157.5530  132.3690   86.4420 C.3    88  ILE88       0.0252
    176  CG1      157.7910  131.0970   85.6360 C.3    88  ILE88       0.0019
    177  CG2      158.6870  132.5320   87.4170 C.3    88  ILE88       0.0019
    178  CD1      156.8110  130.9210   84.5090 C.3    88  ILE88       0.0001
    179  N        154.3910  127.9040   88.2100 N.3    92  ILE92      -0.1245
    180  CA       155.0190  126.7290   88.8060 C.3    92  ILE92       0.1561
    181  C        154.1710  126.1740   89.9410 C.2    92  ILE92       0.2260
    182  O        154.0630  124.9490   90.0960 O.2    92  ILE92      -0.2867
    183  CB       156.4610  127.0830   89.2310 C.3    92  ILE92       0.0252
    184  CG1      157.3360  127.1510   87.9790 C.3    92  ILE92       0.0019
    185  CG2      157.0330  126.1170   90.2520 C.3    92  ILE92       0.0019
    186  CD1      158.7030  127.7070   88.1960 C.3    92  ILE92       0.0001
@<TRIPOS>BOND
     1    54    52   ar
     2    54    56   ar
     3    57    56    1
     4    52    51   ar
     5    56    55   ar
     6    51    50    1
     7    51    53   ar
     8    55    53   ar
     9    50    47    1
    10    47    46    1
    11    47    48    1
    12    58    48   am
    13    58    59    1
    14    48    49    2
    15    66    64   am
    16    59    62    1
    17    59    60    1
    18    65    64    2
    19    64    63    1
    20    70    69    2
    21    67    60   am
    22    67    68    1
    23    62    63    1
    24    79    82    1
    25    79    78    1
    26    79    80    1
    27    60    61    2
    28    69    68    1
    29    69    78   am
    30    71    68    1
    31    71    72    1
    32    74    72   ar
    33    74    76   ar
    34    82    83    1
    35    78    84    1
    36    72    73   ar
    37    76    77   ar
    38    80    81    2
    39    44    43    1
    40    83    84    1
    41    73    75   ar
    42    77    75   ar
    43   111   110    1
    44   111   112    1
    45   110   107    1
    46    43    45    1
    47    43    40    1
    48    85    86    1
    49   121   120    1
    50    40    41    1
    51    40    39    1
    52    42    41    2
    53   112   106    1
    54   120   119    1
    55   107   106    1
    56   107   108    1
    57    86    87    1
    58    86    89    1
    59   106   103   am
    60    91    93   ar
    61    91    90   ar
    62    96    87   am
    63    96    97    1
    64   119   118    1
    65    93    95   ar
    66   101   102    1
    67    98    97    1
    68    98    99    2
    69    87    88    2
    70   108   109    2
    71   108   113   am
    72    27    26    1
    73    89    90    1
    74   117   118    1
    75   117   114    1
    76    90    92   ar
    77    97   100    1
    78   103   102    1
    79   103   104    2
    80    28    26    1
    81   113   114    1
    82   102   105    1
    83    95    94   ar
    84    26    25    1
    85    24    23    2
    86   114   115    1
    87    92    94   ar
    88    32    31    2
    89    23    22    1
    90    23    29   am
    91    25    22    1
    92   116   115    2
    93    22    21    1
    94    31    30    1
    95    30    29    1
    96    30    33    1
    97    36    38   ar
    98    36    34   ar
    99    38    37   ar
   100    33    34    1
   101   147   145   ar
   102   147   146   ar
   103    34    35   ar
   104    15    13    1
   105   145   143   ar
   106    37    35   ar
   107    11    10    2
   108   146   144   ar
   109    13    12    1
   110    13    14    1
   111     9    10    1
   112     9    12    1
   113     9     8    1
   114   143   142   ar
   115   153   152    1
   116    10    16   am
   117    19    18    2
   118   144   142   ar
   119    18    17    1
   120   142   141    1
   121   152   149    1
   122   126   123    1
   123    16    17    1
   124    17    20    1
   125   178   176    1
   126   162   159    1
   127   151   150    2
   128   123   122    1
   129   123   124    1
   130   149   150    1
   131   149   148    1
   132   141   138    1
   133   150   154   am
   134   125   124    2
   135   176   175    1
   136   157   156    2
   137   124   127   am
   138   161   160    2
   139   138   137    1
   140   138   139    1
   141   159   160    1
   142   159   158    1
   143   156   158   am
   144   156   155    1
   145   175   172    1
   146   175   177    1
   147   160   163   am
   148   154   155    1
   149     4     3    2
   150   127   128    1
   151   172   171    1
   152   172   173    1
   153   139   140    2
   154     3     2    1
   155   163   164    1
   156     2     1    1
   157     2     5    1
   158   170   169    1
   159   128   129    1
   160   128   131    1
   161   184   186    1
   162   184   183    1
   163   164   167    1
   164   164   165    1
   165   179   180    1
   166   174   173    2
   167     7     5    1
   168   167   168    1
   169   129   130    2
   170     5     6    1
   171   180   183    1
   172   180   181    1
   173   168   169    1
   174   131   132    1
   175   165   166    2
   176   183   185    1
   177   181   182    2
   178   132   134   ar
   179   132   133   ar
   180   134   136   ar
   181   133   135   ar
   182   136   135   ar
