@<TRIPOS>MOLECULE
tmp/5zgbQ16.pdb
 115 110 0 0 0
SMALL
GASTEIGER

@<TRIPOS>ATOM
      1  N        194.7440  103.9360  119.0120 N.3    36  TRP36      -0.1241
      2  CA       194.8750  105.3760  118.8740 C.3    36  TRP36       0.1605
      3  C        196.2860  105.7740  118.4680 C.2    36  TRP36       0.2264
      4  O        196.4820  106.5730  117.5410 O.2    36  TRP36      -0.2867
      5  CB       194.5050  106.0260  120.2000 C.3    36  TRP36       0.0550
      6  CG       194.6670  107.4560  120.1530 C.ar   36  TRP36       0.0003
      7  CD1      195.6610  108.1920  120.7140 C.ar   36  TRP36       0.0946
      8  CD2      193.8310  108.3610  119.4590 C.ar   36  TRP36       0.0152
      9  NE1      195.4820  109.5190  120.4240 N.ar   36  TRP36      -0.2442
     10  CE2      194.3590  109.6460  119.6510 C.ar   36  TRP36       0.0810
     11  CE3      192.6740  108.2130  118.6990 C.ar   36  TRP36       0.0012
     12  CZ2      193.7690  110.7700  119.1120 C.ar   36  TRP36       0.0191
     13  CZ3      192.0970  109.3200  118.1750 C.ar   36  TRP36       0.0001
     14  CH2      192.6440  110.5810  118.3700 C.ar   36  TRP36       0.0015
     15  N        197.0190  104.6870  114.7830 N.3    39  GLU39      -0.1231
     16  CA       196.4440  105.6090  113.8060 C.3    39  GLU39       0.1699
     17  C        197.2100  106.9270  113.7780 C.2    39  GLU39       0.2592
     18  O        197.4180  107.5160  112.7070 O.2    39  GLU39      -0.2718
     19  CB       194.9710  105.8610  114.1220 C.3    39  GLU39       0.0402
     20  CG       194.2500  106.7720  113.1250 C.3    39  GLU39       0.1161
     21  CD       193.9910  106.1120  111.7790 C.2    39  GLU39       0.3649
     22  OE1      193.7950  104.8810  111.7420 O.co2  39  GLU39      -0.2457
     23  OE2      193.9860  106.8220  110.7520 O.co2  39  GLU39      -0.2457
     24  N        197.6700  107.3830  114.9470 N.am   40  ALA40      -0.1980
     25  CA       198.4460  108.6170  115.0040 C.3    40  ALA40       0.1597
     26  C        199.8230  108.4460  114.3720 C.2    40  ALA40       0.2287
     27  O        200.3000  109.3430  113.6680 O.2    40  ALA40      -0.2864
     28  CB       198.5700  109.0840  116.4500 C.3    40  ALA40       0.0319
     29  N        199.2730  108.2020  110.5080 N.3    43  LYS43      -0.1231
     30  CA       198.8700  109.4660  109.9020 C.3    43  LYS43       0.1693
     31  C        200.0080  110.4800  109.9230 C.2    43  LYS43       0.2592
     32  O        200.2280  111.2040  108.9370 O.2    43  LYS43      -0.2718
     33  CB       197.6470  110.0030  110.6220 C.3    43  LYS43       0.0285
     34  CG       196.9310  111.0700  109.8600 C.3    43  LYS43       0.0035
     35  CD       195.6340  111.3970  110.5440 C.3    43  LYS43       0.0206
     36  CE       194.5050  110.5650  109.9580 C.3    43  LYS43       0.1093
     37  NZ       194.4440  109.1640  110.4670 N.3    43  LYS43      -0.1314
     38  N        200.7690  110.5020  111.0210 N.am   44  HIS44      -0.1976
     39  CA       201.9630  111.3340  111.0950 C.3    44  HIS44       0.1656
     40  C        203.0260  110.9030  110.1030 C.2    44  HIS44       0.2291
     41  O        203.7520  111.7520  109.5690 O.2    44  HIS44      -0.2864
     42  CB       202.5360  111.3070  112.5050 C.3    44  HIS44       0.0771
     43  CG       201.7540  112.1190  113.4790 C.ar   44  HIS44       0.0820
     44  ND1      200.6650  111.6230  114.1590 N.ar   44  HIS44      -0.2267
     45  CD2      201.9040  113.3980  113.8860 C.ar   44  HIS44       0.1154
     46  CE1      200.1770  112.5640  114.9460 C.ar   44  HIS44       0.1986
     47  NE2      200.9080  113.6510  114.7940 N.ar   44  HIS44      -0.2212
     48  N        201.8550  112.0950  106.5270 N.3    47  VAL47      -0.1245
     49  CA       201.9520  113.5370  106.3400 C.3    47  VAL47       0.1561
     50  C        203.4000  114.0060  106.4300 C.2    47  VAL47       0.2260
     51  O        203.7650  115.0070  105.8010 O.2    47  VAL47      -0.2867
     52  CB       201.0270  114.2770  107.3340 C.3    47  VAL47       0.0252
     53  CG1      201.5460  114.2260  108.7640 C.3    47  VAL47       0.0019
     54  CG2      200.7760  115.7110  106.8860 C.3    47  VAL47       0.0019
     55  N        194.1970  124.0210  102.8440 N.3    92  LEU92      -0.1245
     56  CA       193.7980  123.5750  104.1680 C.3    92  LEU92       0.1561
     57  C        192.3630  123.0650  104.1700 C.2    92  LEU92       0.2260
     58  O        192.0830  122.0220  104.7680 O.2    92  LEU92      -0.2867
     59  CB       193.9910  124.7140  105.1710 C.3    92  LEU92       0.0270
     60  CG       193.5080  124.6020  106.6190 C.3    92  LEU92       0.0019
     61  CD1      194.5120  125.1870  107.5680 C.3    92  LEU92       0.0001
     62  CD2      192.2380  125.4120  106.7550 C.3    92  LEU92       0.0001
     63  N        191.6160  119.5370  103.1190 N.3    95  VAL95      -0.1231
     64  CA       191.9990  118.5770  104.1430 C.3    95  VAL95       0.1692
     65  C        191.0360  118.6860  105.3200 C.2    95  VAL95       0.2592
     66  O        190.7400  117.6840  105.9880 O.2    95  VAL95      -0.2718
     67  CB       193.4660  118.7880  104.5480 C.3    95  VAL95       0.0266
     68  CG1      193.9260  117.6960  105.4990 C.3    95  VAL95       0.0020
     69  CG2      194.3460  118.8430  103.3150 C.3    95  VAL95       0.0020
     70  N        190.4610  119.8770  105.5270 N.am   96  CYS96      -0.1970
     71  CA       189.3730  120.0340  106.4820 C.3    96  CYS96       0.1712
     72  C        188.1380  119.2620  106.0520 C.2    96  CYS96       0.2296
     73  O        187.3200  118.8900  106.9010 O.2    96  CYS96      -0.2864
     74  CB       189.0300  121.5130  106.6600 C.3    96  CYS96       0.0983
     75  SG       190.2990  122.4620  107.4960 S.3    96  CYS96      -0.0798
     76  N        189.6930  115.0580  106.6610 N.3    99  GLU99      -0.1231
     77  CA       189.7930  114.4620  107.9790 C.3    99  GLU99       0.1699
     78  C        188.4240  114.3360  108.6350 C.2    99  GLU99       0.2592
     79  O        188.1300  113.3240  109.2780 O.2    99  GLU99      -0.2718
     80  CB       190.7260  115.2830  108.8500 C.3    99  GLU99       0.0402
     81  CG       191.0720  114.5620  110.0930 C.3    99  GLU99       0.1161
     82  CD       192.0550  113.4480  109.8700 C.2    99  GLU99       0.3649
     83  OE1      192.8580  113.5310  108.9170 O.co2  99  GLU99      -0.2457
     84  OE2      192.0220  112.4910  110.6630 O.co2  99  GLU99      -0.2457
     85  N        187.5630  115.3370  108.4600 N.am  100  PHE100     -0.1976
     86  CA       186.2640  115.2930  109.1160 C.3   100  PHE100      0.1639
     87  C        185.3010  114.3620  108.3970 C.2   100  PHE100      0.2290
     88  O        184.4370  113.7500  109.0340 O.2   100  PHE100     -0.2864
     89  CB       185.6860  116.7030  109.2060 C.3   100  PHE100      0.0560
     90  CG       184.3310  116.7590  109.8260 C.ar  100  PHE100     -0.0200
     91  CD1      184.1700  116.5570  111.1850 C.ar  100  PHE100     -0.0042
     92  CD2      183.2110  117.0220  109.0490 C.ar  100  PHE100     -0.0042
     93  CE1      182.9170  116.6050  111.7590 C.ar  100  PHE100     -0.0003
     94  CE2      181.9580  117.0740  109.6180 C.ar  100  PHE100     -0.0003
     95  CZ       181.8080  116.8620  110.9740 C.ar  100  PHE100     -0.0000
     96  N        188.1260  110.8200  107.6150 N.3   103  GLY103     -0.1210
     97  CA       189.1040  110.4320  108.6100 C.3   103  GLY103      0.1956
     98  C        188.4700  110.2470  109.9690 C.2   103  GLY103      0.2611
     99  O        188.9110  109.4120  110.7600 O.2   103  GLY103     -0.2717
    100  N        187.4210  111.0270  110.2460 N.am  104  LEU104     -0.1979
    101  CA       186.7290  110.9060  111.5250 C.3   104  LEU104      0.1596
    102  C        185.9480  109.6010  111.6710 C.2   104  LEU104      0.2287
    103  O        186.1040  108.9450  112.7120 O.2   104  LEU104     -0.2864
    104  CB       185.8590  112.1470  111.7700 C.3   104  LEU104      0.0297
    105  CG       185.0510  112.2960  113.0590 C.3   104  LEU104      0.0022
    106  CD1      185.0120  113.7470  113.3860 C.3   104  LEU104      0.0001
    107  CD2      183.6120  111.7930  112.9240 C.3   104  LEU104      0.0001
    108  N        188.3720  107.0730  111.9950 N.3   107  LEU107     -0.1245
    109  CA       188.8380  107.0130  113.3710 C.3   107  LEU107      0.1561
    110  C        187.8230  106.3260  114.2780 C.2   107  LEU107      0.2260
    111  O        188.2020  105.7610  115.3090 O.2   107  LEU107     -0.2867
    112  CB       189.1380  108.4220  113.8600 C.3   107  LEU107      0.0270
    113  CG       189.8900  108.6000  115.1610 C.3   107  LEU107      0.0019
    114  CD1      191.2360  107.9380  115.0030 C.3   107  LEU107      0.0001
    115  CD2      190.0370  110.0800  115.3910 C.3   107  LEU107      0.0001
@<TRIPOS>BOND
     1    55    56    1
     2    63    64    1
     3    69    67    1
     4    64    67    1
     5    64    65    1
     6    56    57    1
     7    56    59    1
     8    57    58    2
     9    67    68    1
    10    59    60    1
    11    65    70   am
    12    65    66    2
    13    70    71    1
    14    51    50    2
    15    72    71    1
    16    72    73    2
    17    49    50    1
    18    49    48    1
    19    49    52    1
    20    71    74    1
    21    60    62    1
    22    60    61    1
    23    74    75    1
    24    76    77    1
    25    54    52    1
    26    52    53    1
    27    96    97    1
    28    77    78    1
    29    77    80    1
    30    87    88    2
    31    87    86    1
    32    85    78   am
    33    85    86    1
    34    97    98    1
    35    78    79    2
    36    80    81    1
    37    83    82   ar
    38    32    31    2
    39    92    94   ar
    40    92    90   ar
    41    86    89    1
    42    89    90    1
    43    41    40    2
    44    94    95   ar
    45    90    91   ar
    46    34    35    1
    47    34    33    1
    48    82    81    1
    49    82    84   ar
    50    30    31    1
    51    30    29    1
    52    30    33    1
    53    31    38   am
    54    36    37    1
    55    36    35    1
    56    98   100   am
    57    98    99    2
    58    40    39    1
    59   100   101    1
    60    23    21   ar
    61    95    93   ar
    62    38    39    1
    63    39    42    1
    64    91    93   ar
    65   101   102    1
    66   101   104    1
    67   102   103    2
    68    22    21   ar
    69   104   105    1
    70    21    20    1
    71   108   109    1
    72    42    43    1
    73    18    17    2
    74   107   105    1
    75   105   106    1
    76    20    19    1
    77   109   112    1
    78   109   110    1
    79    43    45   ar
    80    43    44   ar
    81    27    26    2
    82    17    16    1
    83    17    24   am
    84    16    19    1
    85    16    15    1
    86   112   113    1
    87    45    47   ar
    88    44    46   ar
    89   110   111    2
    90    26    25    1
    91    47    46   ar
    92    24    25    1
    93   114   113    1
    94    25    28    1
    95   113   115    1
    96     4     3    2
    97    13    14   ar
    98    13    11   ar
    99    14    12   ar
   100     3     2    1
   101    11     8   ar
   102     2     1    1
   103     2     5    1
   104    12    10   ar
   105     8    10   ar
   106     8     6   ar
   107    10     9   ar
   108     6     5    1
   109     6     7   ar
   110     9     7   ar
