@<TRIPOS>MOLECULE
tmp/5zgbL05.pdb
 159 155 0 0 0
SMALL
GASTEIGER

@<TRIPOS>ATOM
      1  N        103.0620  138.4220  115.1900 N.3     8  ILE8       -0.1231
      2  CA       103.9560  139.5390  115.4590 C.3     8  ILE8        0.1692
      3  C        103.3340  140.8620  115.0340 C.2     8  ILE8        0.2592
      4  O        103.4620  141.8710  115.7370 O.2     8  ILE8       -0.2718
      5  CB       105.3180  139.3270  114.7530 C.3     8  ILE8        0.0266
      6  CG1      105.9670  138.0260  115.2200 C.3     8  ILE8        0.0019
      7  CG2      106.2760  140.4800  115.0030 C.3     8  ILE8        0.0020
      8  CD1      107.1600  137.6160  114.3950 C.3     8  ILE8        0.0001
      9  N        102.6040  140.8550  113.9110 N.am    9  PHE9       -0.1976
     10  CA       102.1380  142.0640  113.2340 C.3     9  PHE9        0.1639
     11  C        101.1530  142.8740  114.0670 C.2     9  PHE9        0.2290
     12  O        101.0220  144.0830  113.8440 O.2     9  PHE9       -0.2864
     13  CB       101.4730  141.6980  111.9010 C.3     9  PHE9        0.0560
     14  CG       102.4180  141.1480  110.8580 C.ar    9  PHE9       -0.0200
     15  CD1      103.7940  141.2970  110.9740 C.ar    9  PHE9       -0.0042
     16  CD2      101.9170  140.4830  109.7480 C.ar    9  PHE9       -0.0042
     17  CE1      104.6490  140.7890  110.0120 C.ar    9  PHE9       -0.0003
     18  CE2      102.7670  139.9740  108.7800 C.ar    9  PHE9       -0.0003
     19  CZ       104.1350  140.1290  108.9140 C.ar    9  PHE9       -0.0000
     20  N        102.6240  145.8400  115.5560 N.3    12  LEU12      -0.1245
     21  CA       102.9830  146.9240  114.6440 C.3    12  LEU12       0.1561
     22  C        101.9000  147.9920  114.6010 C.2    12  LEU12       0.2260
     23  O        102.1690  149.1740  114.8540 O.2    12  LEU12      -0.2867
     24  CB       103.2280  146.3560  113.2500 C.3    12  LEU12       0.0270
     25  CG       104.3930  145.3760  113.1870 C.3    12  LEU12       0.0019
     26  CD1      104.4800  144.7360  111.8220 C.3    12  LEU12       0.0001
     27  CD2      105.6680  146.1040  113.5180 C.3    12  LEU12       0.0001
     28  N        108.8790  159.5060  110.7450 N.3    37  PHE37      -0.1227
     29  CA       109.8500  158.4810  110.3940 C.3    37  PHE37       0.1736
     30  C        109.5540  157.8370  109.0510 C.2    37  PHE37       0.2595
     31  O        110.4350  157.7830  108.1860 O.2    37  PHE37      -0.2718
     32  CB       109.8910  157.4120  111.4890 C.3    37  PHE37       0.0547
     33  CG       110.8460  156.2940  111.2100 C.ar   37  PHE37      -0.0202
     34  CD1      112.2110  156.5190  111.2090 C.ar   37  PHE37      -0.0042
     35  CD2      110.3820  155.0090  110.9970 C.ar   37  PHE37      -0.0042
     36  CE1      113.0940  155.4900  110.9770 C.ar   37  PHE37      -0.0003
     37  CE2      111.2600  153.9730  110.7630 C.ar   37  PHE37      -0.0003
     38  CZ       112.6190  154.2150  110.7540 C.ar   37  PHE37      -0.0000
     39  N        108.3160  157.3670  108.8570 N.am   38  LEU38      -0.1980
     40  CA       107.9160  156.7770  107.5830 C.3    38  LEU38       0.1596
     41  C        107.9460  157.7990  106.4560 C.2    38  LEU38       0.2287
     42  O        108.1780  157.4380  105.2970 O.2    38  LEU38      -0.2864
     43  CB       106.5240  156.1520  107.6920 C.3    38  LEU38       0.0297
     44  CG       106.3810  154.7300  108.2480 C.3    38  LEU38       0.0022
     45  CD1      106.5660  154.6560  109.7560 C.3    38  LEU38       0.0001
     46  CD2      105.0370  154.1410  107.8500 C.3    38  LEU38       0.0001
     47  N        111.9470  157.9740  105.6810 N.3    41  ILE41      -0.1245
     48  CA       112.7200  156.8180  105.2460 C.3    41  ILE41       0.1561
     49  C        112.6400  156.6790  103.7350 C.2    41  ILE41       0.2260
     50  O        113.5230  156.0820  103.1130 O.2    41  ILE41      -0.2867
     51  CB       112.2560  155.5250  105.9380 C.3    41  ILE41       0.0252
     52  CG1      110.7550  155.3170  105.7310 C.3    41  ILE41       0.0019
     53  CG2      112.6550  155.5400  107.3900 C.3    41  ILE41       0.0019
     54  CD1      110.2470  153.9660  106.1560 C.3    41  ILE41       0.0001
     55  N        115.4180  158.3590  101.8300 N.3    44  LEU44      -0.1231
     56  CA       116.7220  157.7410  101.9900 C.3    44  LEU44       0.1693
     57  C        116.7510  156.2910  101.5230 C.2    44  LEU44       0.2591
     58  O        117.8370  155.7110  101.4220 O.2    44  LEU44      -0.2718
     59  CB       117.1470  157.8530  103.4680 C.3    44  LEU44       0.0284
     60  CG       118.5490  157.5790  104.0190 C.3    44  LEU44       0.0019
     61  CD1      118.8370  158.5460  105.1470 C.3    44  LEU44       0.0001
     62  CD2      118.6620  156.1610  104.5450 C.3    44  LEU44       0.0001
     63  N        115.6010  155.7170  101.1640 N.am   45  LEU45      -0.1980
     64  CA       115.5090  154.2740  100.9680 C.3    45  LEU45       0.1596
     65  C        116.1160  153.8250   99.6420 C.2    45  LEU45       0.2287
     66  O        116.7300  152.7540   99.5750 O.2    45  LEU45      -0.2864
     67  CB       114.0490  153.8250  101.0700 C.3    45  LEU45       0.0297
     68  CG       113.7730  152.3210  100.9830 C.3    45  LEU45       0.0022
     69  CD1      114.4610  151.5930  102.1140 C.3    45  LEU45       0.0001
     70  CD2      112.2810  152.0240  100.9900 C.3    45  LEU45       0.0001
     71  N        118.6880  153.6690   97.8300 N.3    47  GLN47      -0.1231
     72  CA       120.1490  153.5700   97.7560 C.3    47  GLN47       0.1698
     73  C        120.8070  154.9500   97.8740 C.2    47  GLN47       0.2592
     74  O        121.3540  155.5200   96.9280 O.2    47  GLN47      -0.2718
     75  CB       120.5920  152.8180   96.4950 C.3    47  GLN47       0.0381
     76  CG       122.0580  152.4230   96.5300 C.3    47  GLN47       0.0905
     77  CD       122.4090  151.6620   97.7960 C.2    47  GLN47       0.2608
     78  OE1      123.0520  152.2000   98.7010 O.2    47  GLN47      -0.2717
     79  NE2      121.9750  150.4110   97.8720 N.am   47  GLN47      -0.0878
     80  N        120.6730  155.5000   99.0740 N.am   48  TYR48      -0.1976
     81  CA       121.2840  156.7710   99.4110 C.3    48  TYR48       0.1639
     82  C        122.3410  156.5570  100.4800 C.2    48  TYR48       0.2290
     83  O        122.0150  156.0880  101.5810 O.2    48  TYR48      -0.2864
     84  CB       120.2280  157.7600   99.8910 C.3    48  TYR48       0.0560
     85  CG       119.2900  158.1980   98.7970 C.ar   48  TYR48      -0.0198
     86  CD1      119.6340  159.2340   97.9400 C.ar   48  TYR48      -0.0009
     87  CD2      118.0720  157.5590   98.6030 C.ar   48  TYR48      -0.0009
     88  CE1      118.7790  159.6360   96.9310 C.ar   48  TYR48       0.0417
     89  CE2      117.2110  157.9510   97.5990 C.ar   48  TYR48       0.0417
     90  CZ       117.5710  158.9890   96.7660 C.ar   48  TYR48       0.1957
     91  OH       116.7190  159.3830   95.7630 O.3    48  TYR48      -0.2866
     92  N        115.6210  160.6290  111.0170 N.3    58  PHE58      -0.1241
     93  CA       115.8570  159.2240  110.7260 C.3    58  PHE58       0.1605
     94  C        116.4730  158.5090  111.9200 C.2    58  PHE58       0.2264
     95  O        115.9210  157.5170  112.4060 O.2    58  PHE58      -0.2867
     96  CB       116.7600  159.0580  109.5050 C.3    58  PHE58       0.0534
     97  CG       117.0280  157.6300  109.1680 C.ar   58  PHE58      -0.0203
     98  CD1      116.0420  156.8580  108.5800 C.ar   58  PHE58      -0.0042
     99  CD2      118.2490  157.0490  109.4600 C.ar   58  PHE58      -0.0042
    100  CE1      116.2720  155.5360  108.2770 C.ar   58  PHE58      -0.0003
    101  CE2      118.4840  155.7280  109.1620 C.ar   58  PHE58      -0.0003
    102  CZ       117.4960  154.9710  108.5660 C.ar   58  PHE58      -0.0000
    103  N        114.8090  156.0910  114.6640 N.3    62  LEU62      -0.1245
    104  CA       115.1990  154.6880  114.6670 C.3    62  LEU62       0.1561
    105  C        115.0880  154.1350  116.0790 C.2    62  LEU62       0.2260
    106  O        114.3790  153.1520  116.3270 O.2    62  LEU62      -0.2867
    107  CB       116.6350  154.5450  114.1580 C.3    62  LEU62       0.0270
    108  CG       117.3030  153.2280  113.7450 C.3    62  LEU62       0.0019
    109  CD1      118.4750  153.5650  112.8320 C.3    62  LEU62       0.0001
    110  CD2      117.7650  152.3240  114.8750 C.3    62  LEU62       0.0001
    111  N        111.6520  154.6760  118.0110 N.3    65  TYR65      -0.1227
    112  CA       110.6180  153.7980  117.4850 C.3    65  TYR65       0.1736
    113  C        110.8770  152.3470  117.8690 C.2    65  TYR65       0.2595
    114  O        109.9670  151.6510  118.3350 O.2    65  TYR65      -0.2718
    115  CB       110.5420  153.9300  115.9660 C.3    65  TYR65       0.0548
    116  CG       109.4760  153.0920  115.3110 C.ar   65  TYR65      -0.0200
    117  CD1      108.1520  153.4960  115.3150 C.ar   65  TYR65      -0.0009
    118  CD2      109.7960  151.8980  114.6810 C.ar   65  TYR65      -0.0009
    119  CE1      107.1740  152.7360  114.7090 C.ar   65  TYR65       0.0417
    120  CE2      108.8240  151.1300  114.0770 C.ar   65  TYR65       0.0417
    121  CZ       107.5160  151.5520  114.0960 C.ar   65  TYR65       0.1957
    122  OH       106.5460  150.7880  113.4940 O.3    65  TYR65      -0.2866
    123  N        112.1130  151.8780  117.6770 N.am   66  HIS66      -0.1975
    124  CA       112.4140  150.4780  117.9450 C.3    66  HIS66       0.1656
    125  C        112.4730  150.1600  119.4290 C.2    66  HIS66       0.2291
    126  O        112.3090  148.9970  119.7990 O.2    66  HIS66      -0.2864
    127  CB       113.7290  150.0700  117.2860 C.3    66  HIS66       0.0771
    128  CG       113.6500  149.9820  115.7980 C.ar   66  HIS66       0.0820
    129  ND1      113.8900  151.0600  114.9760 N.ar   66  HIS66      -0.2267
    130  CD2      113.3510  148.9450  114.9810 C.ar   66  HIS66       0.1154
    131  CE1      113.7440  150.6920  113.7160 C.ar   66  HIS66       0.1986
    132  NE2      113.4150  149.4140  113.6920 N.ar   66  HIS66      -0.2212
    133  N        108.9270  149.4880  120.0420 N.3    69  LEU69      -0.1231
    134  CA       108.4860  148.3560  119.2360 C.3    69  LEU69       0.1693
    135  C        109.0060  147.0390  119.7930 C.2    69  LEU69       0.2592
    136  O        108.2600  146.0530  119.8600 O.2    69  LEU69      -0.2718
    137  CB       108.9370  148.5480  117.7940 C.3    69  LEU69       0.0284
    138  CG       108.5190  147.4490  116.8320 C.3    69  LEU69       0.0019
    139  CD1      107.0130  147.3190  116.8140 C.3    69  LEU69       0.0001
    140  CD2      109.0340  147.8010  115.4630 C.3    69  LEU69       0.0001
    141  N        110.2820  147.0110  120.1950 N.am   70  PHE70      -0.1976
    142  CA       110.8540  145.8500  120.8720 C.3    70  PHE70       0.1639
    143  C        110.1060  145.5410  122.1600 C.2    70  PHE70       0.2290
    144  O        109.7730  144.3820  122.4380 O.2    70  PHE70      -0.2864
    145  CB       112.3300  146.0950  121.1900 C.3    70  PHE70       0.0560
    146  CG       113.2410  146.0630  119.9980 C.ar   70  PHE70      -0.0200
    147  CD1      112.8490  145.4920  118.8020 C.ar   70  PHE70      -0.0042
    148  CD2      114.5100  146.6120  120.0900 C.ar   70  PHE70      -0.0042
    149  CE1      113.7110  145.4730  117.7240 C.ar   70  PHE70      -0.0003
    150  CE2      115.3700  146.5950  119.0150 C.ar   70  PHE70      -0.0003
    151  CZ       114.9700  146.0250  117.8310 C.ar   70  PHE70      -0.0000
    152  N        106.5740  144.1490  121.3690 N.3    73  LEU73      -0.1245
    153  CA       106.5370  142.7630  120.9090 C.3    73  LEU73       0.1561
    154  C        106.9570  141.7950  122.0090 C.2    73  LEU73       0.2260
    155  O        106.4550  140.6640  122.0520 O.2    73  LEU73      -0.2867
    156  CB       107.4000  142.5730  119.6530 C.3    73  LEU73       0.0270
    157  CG       108.9110  142.8120  119.5580 C.3    73  LEU73       0.0019
    158  CD1      109.7470  141.6000  119.9500 C.3    73  LEU73       0.0001
    159  CD2      109.2480  143.2350  118.1410 C.3    73  LEU73       0.0001
@<TRIPOS>BOND
     1    91    90    1
     2    75    76    1
     3    75    72    1
     4    76    77    1
     5    90    88   ar
     6    90    89   ar
     7    74    73    2
     8    88    86   ar
     9    89    87   ar
    10    72    71    1
    11    72    73    1
    12    77    79   am
    13    77    78    2
    14    73    80   am
    15    86    85   ar
    16    87    85   ar
    17    85    84    1
    18    80    81    1
    19    81    84    1
    20    81    82    1
    21    66    65    2
    22    65    64    1
    23    82    83    2
    24    64    67    1
    25    64    63    1
    26    68    70    1
    27    68    67    1
    28    68    69    1
    29    63    57   am
    30    58    57    2
    31    57    56    1
    32    55    56    1
    33    56    59    1
    34    50    49    2
    35    59    60    1
    36    49    48    1
    37    60    62    1
    38    60    61    1
    39    48    47    1
    40    48    51    1
    41    42    41    2
    42    52    51    1
    43    52    54    1
    44    51    53    1
    45    41    40    1
    46    40    43    1
    47    40    39    1
    48    43    44    1
    49    46    44    1
    50    31    30    2
    51    44    45    1
    52   100   102   ar
    53   100    98   ar
    54   102   101   ar
    55    98    97   ar
    56    18    19   ar
    57    18    16   ar
    58    39    30   am
    59    19    17   ar
    60    30    29    1
    61   101    99   ar
    62    97    99   ar
    63    97    96    1
    64    96    93    1
    65    16    14   ar
    66    17    15   ar
    67    29    28    1
    68    29    32    1
    69    93    92    1
    70    93    94    1
    71    38    37   ar
    72    38    36   ar
    73    37    35   ar
    74    14    15   ar
    75    14    13    1
    76    36    34   ar
    77    35    33   ar
    78    34    33   ar
    79    33    32    1
    80    26    25    1
    81    13    10    1
    82    94    95    2
    83   109   108    1
    84    25    24    1
    85    25    27    1
    86    10     9    1
    87    10    11    1
    88    24    21    1
    89   122   121    1
    90   132   131   ar
    91   132   130   ar
    92   131   129   ar
    93   108   107    1
    94   108   110    1
    95    12    11    2
    96     9     3   am
    97   120   121   ar
    98   120   118   ar
    99   121   119   ar
   100   107   104    1
   101     8     6    1
   102    22    21    1
   103    22    23    2
   104    21    20    1
   105   103   104    1
   106   104   105    1
   107   118   116   ar
   108   119   117   ar
   109     5     7    1
   110     5     6    1
   111     5     2    1
   112   129   128   ar
   113   130   128   ar
   114     3     2    1
   115     3     4    2
   116     1     2    1
   117   116   117   ar
   118   116   115    1
   119   140   138    1
   120   128   127    1
   121   115   112    1
   122   105   106    2
   123   139   138    1
   124   138   137    1
   125   127   124    1
   126   112   113    1
   127   112   111    1
   128   123   113   am
   129   123   124    1
   130   149   151   ar
   131   149   147   ar
   132   137   134    1
   133   151   150   ar
   134   113   114    2
   135   124   125    1
   136   159   157    1
   137   147   146   ar
   138   150   148   ar
   139   134   135    1
   140   134   133    1
   141   125   126    2
   142   157   156    1
   143   157   158    1
   144   156   153    1
   145   135   136    2
   146   135   141   am
   147   146   148   ar
   148   146   145    1
   149   141   142    1
   150   142   145    1
   151   142   143    1
   152   153   152    1
   153   153   154    1
   154   154   155    2
   155   143   144    2
