@<TRIPOS>MOLECULE
tmp/5zgbJ00.pdb
 99 95 0 0 0
SMALL
GASTEIGER

@<TRIPOS>ATOM
      1  N        131.0250  119.5740  108.2210 N.3    17  ILE17      -0.1245
      2  CA       131.6050  118.4250  108.9030 C.3    17  ILE17       0.1561
      3  C        130.5310  117.4520  109.3700 C.2    17  ILE17       0.2260
      4  O        130.5800  116.2570  109.0590 O.2    17  ILE17      -0.2867
      5  CB       132.5010  118.8580  110.0790 C.3    17  ILE17       0.0252
      6  CG1      133.7910  119.4690  109.5480 C.3    17  ILE17       0.0019
      7  CG2      132.7990  117.6890  110.9840 C.3    17  ILE17       0.0019
      8  CD1      134.6680  120.0100  110.6130 C.3    17  ILE17       0.0001
      9  N        135.2330  123.7390  103.3710 N.3    31  ILE31      -0.1245
     10  CA       135.7950  124.5260  104.4690 C.3    31  ILE31       0.1561
     11  C        136.7000  125.6230  103.9320 C.2    31  ILE31       0.2260
     12  O        136.5440  126.8050  104.2640 O.2    31  ILE31      -0.2867
     13  CB       136.5640  123.6120  105.4360 C.3    31  ILE31       0.0252
     14  CG1      135.6320  122.5950  106.0720 C.3    31  ILE31       0.0019
     15  CG2      137.2350  124.4290  106.5040 C.3    31  ILE31       0.0019
     16  CD1      134.6090  123.2130  106.9470 C.3    31  ILE31       0.0001
     17  N        136.5900  129.7120  104.0360 N.3    35  HIS35      -0.1241
     18  CA       137.6190  130.4630  104.7490 C.3    35  HIS35       0.1621
     19  C        138.5460  131.2120  103.8040 C.2    35  HIS35       0.2264
     20  O        138.9340  132.3500  104.0830 O.2    35  HIS35      -0.2867
     21  CB       138.4210  129.5080  105.6170 C.3    35  HIS35       0.0745
     22  CG       137.6360  128.9230  106.7410 C.ar   35  HIS35       0.0817
     23  ND1      136.7510  127.8840  106.5660 N.ar   35  HIS35      -0.2268
     24  CD2      137.6350  129.2010  108.0630 C.ar   35  HIS35       0.1154
     25  CE1      136.2140  127.5680  107.7290 C.ar   35  HIS35       0.1986
     26  NE2      136.7480  128.3400  108.6550 N.ar   35  HIS35      -0.2212
     27  N        147.9100  127.4090  108.2280 N.3    70  LEU70      -0.1245
     28  CA       146.7460  126.7500  108.8060 C.3    70  LEU70       0.1561
     29  C        146.6590  125.2900  108.3860 C.2    70  LEU70       0.2260
     30  O        146.2730  124.4350  109.1880 O.2    70  LEU70      -0.2867
     31  CB       145.4870  127.5070  108.4170 C.3    70  LEU70       0.0270
     32  CG       145.3750  128.8370  109.1430 C.3    70  LEU70       0.0019
     33  CD1      144.2160  129.6240  108.5970 C.3    70  LEU70       0.0001
     34  CD2      145.2200  128.5970  110.6260 C.3    70  LEU70       0.0001
     35  N        149.0440  123.5370  110.5080 N.3    73  GLY73      -0.1210
     36  CA       148.4280  123.1790  111.7750 C.3    73  GLY73       0.1956
     37  C        147.4790  122.0020  111.6530 C.2    73  GLY73       0.2611
     38  O        147.3760  121.1800  112.5700 O.2    73  GLY73      -0.2717
     39  N        146.7730  121.9120  110.5220 N.am   74  MET74      -0.1979
     40  CA       145.9370  120.7530  110.2270 C.3    74  MET74       0.1605
     41  C        146.7600  119.4760  110.2050 C.2    74  MET74       0.2287
     42  O        146.3950  118.4730  110.8290 O.2    74  MET74      -0.2864
     43  CB       145.2470  120.9530  108.8820 C.3    74  MET74       0.0413
     44  CG       144.1430  121.9790  108.8620 C.3    74  MET74       0.0598
     45  SD       142.6440  121.4090  109.6600 S.3    74  MET74      -0.1393
     46  CE       142.0700  120.2610  108.4180 C.3    74  MET74       0.0692
     47  N        149.7050  119.0100  111.5450 N.3    76  LEU76      -0.1231
     48  CA       150.2200  118.7200  112.8780 C.3    76  LEU76       0.1693
     49  C        149.1740  118.0300  113.7340 C.2    76  LEU76       0.2592
     50  O        149.4850  117.0690  114.4460 O.2    76  LEU76      -0.2718
     51  CB       150.6880  119.9880  113.5800 C.3    76  LEU76       0.0284
     52  CG       151.9770  120.6170  113.0880 C.3    76  LEU76       0.0019
     53  CD1      152.2940  121.8410  113.9130 C.3    76  LEU76       0.0001
     54  CD2      153.0700  119.6120  113.1830 C.3    76  LEU76       0.0001
     55  N        147.9330  118.5090  113.6810 N.am   77  TYR77      -0.1976
     56  CA       146.9160  117.9470  114.5540 C.3    77  TYR77       0.1639
     57  C        146.5000  116.5570  114.1090 C.2    77  TYR77       0.2290
     58  O        146.2210  115.6990  114.9510 O.2    77  TYR77      -0.2864
     59  CB       145.7140  118.8720  114.6230 C.3    77  TYR77       0.0560
     60  CG       144.6390  118.3490  115.5220 C.ar   77  TYR77      -0.0198
     61  CD1      144.8430  118.2600  116.8850 C.ar   77  TYR77      -0.0009
     62  CD2      143.4110  117.9660  115.0150 C.ar   77  TYR77      -0.0009
     63  CE1      143.8670  117.7840  117.7160 C.ar   77  TYR77       0.0417
     64  CE2      142.4210  117.4920  115.8420 C.ar   77  TYR77       0.0417
     65  CZ       142.6550  117.4050  117.1920 C.ar   77  TYR77       0.1957
     66  OH       141.6710  116.9350  118.0280 O.3    77  TYR77      -0.2866
     67  N        142.0510  112.8510  107.5580 N.3    95  TRP95      -0.1241
     68  CA       142.4030  114.1800  108.0280 C.3    95  TRP95       0.1605
     69  C        143.3300  114.8800  107.0510 C.2    95  TRP95       0.2264
     70  O        143.2210  116.0920  106.8600 O.2    95  TRP95      -0.2867
     71  CB       143.0580  114.1250  109.3970 C.3    95  TRP95       0.0550
     72  CG       143.2490  115.4820  109.9390 C.ar   95  TRP95       0.0003
     73  CD1      144.3660  116.2470  109.8480 C.ar   95  TRP95       0.0946
     74  CD2      142.2910  116.2530  110.6600 C.ar   95  TRP95       0.0152
     75  NE1      144.1670  117.4500  110.4700 N.ar   95  TRP95      -0.2442
     76  CE2      142.8980  117.4780  110.9790 C.ar   95  TRP95       0.0810
     77  CE3      140.9780  116.0260  111.0690 C.ar   95  TRP95       0.0012
     78  CZ2      142.2380  118.4730  111.6860 C.ar   95  TRP95       0.0191
     79  CZ3      140.3240  117.0130  111.7710 C.ar   95  TRP95       0.0001
     80  CH2      140.9540  118.2210  112.0770 C.ar   95  TRP95       0.0015
     81  N        141.3170  116.1000  104.4730 N.3    98  LEU98      -0.1245
     82  CA       140.6270  117.3010  104.9330 C.3    98  LEU98       0.1561
     83  C        141.5430  118.5130  104.8590 C.2    98  LEU98       0.2260
     84  O        141.0980  119.6230  104.5470 O.2    98  LEU98      -0.2867
     85  CB       140.1310  117.0990  106.3610 C.3    98  LEU98       0.0270
     86  CG       139.2480  118.1830  106.9710 C.3    98  LEU98       0.0019
     87  CD1      137.9060  118.1790  106.3060 C.3    98  LEU98       0.0001
     88  CD2      139.0940  117.9760  108.4620 C.3    98  LEU98       0.0001
     89  N        141.3430  121.6700  102.4730 N.3   102  PHE102     -0.1241
     90  CA       141.3890  123.0370  102.9710 C.3   102  PHE102      0.1605
     91  C        142.4290  123.8680  102.2340 C.2   102  PHE102      0.2264
     92  O        142.2490  125.0780  102.0760 O.2   102  PHE102     -0.2867
     93  CB       141.6650  123.0610  104.4710 C.3   102  PHE102      0.0534
     94  CG       141.6770  124.4410  105.0480 C.ar  102  PHE102     -0.0203
     95  CD1      140.5000  125.1320  105.2290 C.ar  102  PHE102     -0.0042
     96  CD2      142.8640  125.0580  105.3850 C.ar  102  PHE102     -0.0042
     97  CE1      140.5060  126.4090  105.7430 C.ar  102  PHE102     -0.0003
     98  CE2      142.8800  126.3330  105.8950 C.ar  102  PHE102     -0.0003
     99  CZ       141.7010  127.0110  106.0710 C.ar  102  PHE102     -0.0000
@<TRIPOS>BOND
     1    92    91    2
     2    91    90    1
     3    89    90    1
     4    90    93    1
     5     9    10    1
     6    19    20    2
     7    19    18    1
     8    11    12    2
     9    11    10    1
    10    17    18    1
    11    10    13    1
    12    93    94    1
    13    81    82    1
    14    84    83    2
    15    18    21    1
    16    83    82    1
    17    82    85    1
    18    94    95   ar
    19    94    96   ar
    20    95    97   ar
    21    96    98   ar
    22    13    14    1
    23    13    15    1
    24    21    22    1
    25    97    99   ar
    26    98    99   ar
    27    14    16    1
    28    87    86    1
    29    85    86    1
    30    23    22   ar
    31    23    25   ar
    32    22    24   ar
    33    70    69    2
    34    86    88    1
    35    69    68    1
    36    67    68    1
    37    25    26   ar
    38    68    71    1
    39    24    26   ar
    40     1     2    1
    41    27    28    1
    42    29    28    1
    43    29    30    2
    44    31    28    1
    45    31    32    1
    46    46    45    1
    47    33    32    1
    48    44    43    1
    49    44    45    1
    50    43    40    1
    51     2     3    1
    52     2     5    1
    53     4     3    2
    54    32    34    1
    55    71    72    1
    56     6     5    1
    57     6     8    1
    58    73    72   ar
    59    73    75   ar
    60    72    74   ar
    61     5     7    1
    62    41    40    1
    63    41    42    2
    64    40    39    1
    65    75    76   ar
    66    35    36    1
    67    39    37   am
    68    74    76   ar
    69    74    77   ar
    70    76    78   ar
    71    77    79   ar
    72    47    48    1
    73    37    36    1
    74    37    38    2
    75    78    80   ar
    76    79    80   ar
    77    48    51    1
    78    48    49    1
    79    52    54    1
    80    52    51    1
    81    52    53    1
    82    55    49   am
    83    55    56    1
    84    49    50    2
    85    57    56    1
    86    57    58    2
    87    56    59    1
    88    59    60    1
    89    62    60   ar
    90    62    64   ar
    91    60    61   ar
    92    64    65   ar
    93    61    63   ar
    94    65    63   ar
    95    65    66    1
