@<TRIPOS>MOLECULE
tmp/5zgbP07.pdb
 186 182 0 0 0
SMALL
GASTEIGER

@<TRIPOS>ATOM
      1  N        170.5710  103.5550  102.4510 N.3    12  LEU12      -0.1231
      2  CA       170.3310  103.5470  101.0160 C.3    12  LEU12       0.1693
      3  C        170.2310  102.1200  100.4690 C.2    12  LEU12       0.2592
      4  O        170.4150  101.1260  101.1770 O.2    12  LEU12      -0.2718
      5  CB       171.4290  104.3440  100.3120 C.3    12  LEU12       0.0284
      6  CG       172.9000  104.0510  100.6520 C.3    12  LEU12       0.0019
      7  CD1      173.5190  102.9120   99.8560 C.3    12  LEU12       0.0001
      8  CD2      173.7360  105.3090  100.4880 C.3    12  LEU12       0.0001
      9  N        169.9560  102.0290   99.1680 N.am   13  SER13      -0.1952
     10  CA       169.7950  100.7660   98.4690 C.3    13  SER13       0.1924
     11  C        170.5730  100.8040   97.1580 C.2    13  SER13       0.2314
     12  O        170.6300  101.8530   96.5030 O.2    13  SER13      -0.2863
     13  CB       168.3130  100.4770   98.1940 C.3    13  SER13       0.2116
     14  OG       167.7640  101.4370   97.3100 O.3    13  SER13      -0.2180
     15  N        168.7040  101.5070   93.6060 N.3    16  MET16      -0.1231
     16  CA       168.1410  102.8280   93.3880 C.3    16  MET16       0.1687
     17  C        168.8560  103.4940   92.2110 C.2    16  MET16       0.2434
     18  O        170.0500  103.2690   92.0110 O.2    16  MET16      -0.2733
     19  CB       168.2930  103.6500   94.6720 C.3    16  MET16       0.0400
     20  CG       167.5710  104.9780   94.7250 C.3    16  MET16       0.0596
     21  SD       167.6960  105.7370   96.3510 S.3    16  MET16      -0.1393
     22  CE       166.6160  104.6480   97.2760 C.3    16  MET16       0.0692
     23  N        168.1470  104.2550   91.3790 N.am   17  PRO17      -0.2718
     24  CA       168.8110  104.9080   90.2440 C.3    17  PRO17       0.1535
     25  C        169.7590  106.0150   90.6720 C.2    17  PRO17       0.2599
     26  O        169.5500  106.7000   91.6750 O.2    17  PRO17      -0.2715
     27  CB       167.6450  105.4610   89.4190 C.3    17  PRO17       0.0310
     28  CG       166.4960  105.5290   90.3660 C.3    17  PRO17       0.0237
     29  CD       166.6820  104.3680   91.2860 C.3    17  PRO17       0.0939
     30  N        170.8210  106.1780   89.8860 N.am   18  GLY18      -0.1941
     31  CA       171.8880  107.0980   90.2150 C.3    18  GLY18       0.2014
     32  C        172.8960  106.5700   91.2050 C.2    18  GLY18       0.2639
     33  O        173.7470  107.3360   91.6680 O.2    18  GLY18      -0.2714
     34  N        172.8360  105.2860   91.5380 N.am   19  TYR19      -0.1959
     35  CA       173.6680  104.7250   92.5910 C.3    19  TYR19       0.1771
     36  C        175.0940  104.5150   92.1120 C.2    19  TYR19       0.2619
     37  O        175.3280  103.8430   91.1040 O.2    19  TYR19      -0.2715
     38  CB       173.0900  103.3940   93.0600 C.3    19  TYR19       0.0574
     39  CG       173.8780  102.7070   94.1440 C.ar   19  TYR19      -0.0198
     40  CD1      173.8000  103.1390   95.4570 C.ar   19  TYR19      -0.0009
     41  CD2      174.6870  101.6170   93.8560 C.ar   19  TYR19      -0.0009
     42  CE1      174.5060  102.5100   96.4520 C.ar   19  TYR19       0.0417
     43  CE2      175.4030  100.9830   94.8460 C.ar   19  TYR19       0.0417
     44  CZ       175.3090  101.4310   96.1420 C.ar   19  TYR19       0.1957
     45  OH       176.0170  100.8070   97.1380 O.3    19  TYR19      -0.2866
     46  N        176.0500  105.0850   92.8470 N.am   20  ARG20      -0.1963
     47  CA       177.4460  104.6840   92.7350 C.3    20  ARG20       0.1729
     48  C        178.0860  104.5070   94.1050 C.2    20  ARG20       0.2617
     49  O        179.3050  104.6240   94.2230 O.2    20  ARG20      -0.2715
     50  CB       178.2650  105.6760   91.9070 C.3    20  ARG20       0.0348
     51  CG       177.9700  105.6590   90.4210 C.3    20  ARG20       0.0492
     52  CD       178.9020  106.5770   89.6580 C.3    20  ARG20       0.2205
     53  NE       178.5370  106.6440   88.2490 N.pl3  20  ARG20      -0.0865
     54  CZ       179.1610  107.3950   87.3500 C.cat  20  ARG20       0.5346
     55  NH1      180.1950  108.1400   87.7030 N.pl3  20  ARG20       0.1354
     56  NH2      178.7490  107.3980   86.0940 N.pl3  20  ARG20       0.1354
     57  N        177.2810  104.2640   95.1410 N.am   21  GLY21      -0.1940
     58  CA       177.7720  103.9440   96.4690 C.3    21  GLY21       0.2014
     59  C        178.5500  105.0420   97.1600 C.2    21  GLY21       0.2639
     60  O        179.7490  104.8880   97.4040 O.2    21  GLY21      -0.2714
     61  N        177.8940  106.1530   97.4880 N.am   22  PHE22      -0.1959
     62  CA       178.6370  107.2960   98.0150 C.3    22  PHE22       0.1771
     63  C        177.7410  108.0660   98.9830 C.2    22  PHE22       0.2620
     64  O        176.9730  108.9380   98.5770 O.2    22  PHE22      -0.2715
     65  CB       179.1160  108.1880   96.8860 C.3    22  PHE22       0.0574
     66  CG       180.0550  109.2620   97.3180 C.ar   22  PHE22      -0.0200
     67  CD1      181.3720  108.9600   97.5990 C.ar   22  PHE22      -0.0042
     68  CD2      179.6320  110.5710   97.4300 C.ar   22  PHE22      -0.0042
     69  CE1      182.2520  109.9410   97.9910 C.ar   22  PHE22      -0.0003
     70  CE2      180.5100  111.5580   97.8230 C.ar   22  PHE22      -0.0003
     71  CZ       181.8180  111.2410   98.0980 C.ar   22  PHE22      -0.0000
     72  N        177.8610  107.7380  100.2650 N.am   23  ASP23      -0.1958
     73  CA       177.3740  108.6030  101.3360 C.3    23  ASP23       0.1825
     74  C        178.3960  108.5120  102.4520 C.2    23  ASP23       0.2464
     75  O        178.2970  107.6570  103.3410 O.2    23  ASP23      -0.2730
     76  CB       175.9820  108.2040  101.8190 C.3    23  ASP23       0.1450
     77  CG       175.3600  109.2450  102.7410 C.2    23  ASP23       0.3671
     78  OD1      176.0050  110.2710  103.0430 O.co2  23  ASP23      -0.2456
     79  OD2      174.2120  109.0410  103.1740 O.co2  23  ASP23      -0.2456
     80  N        179.4130  109.3710  102.4260 N.am   24  PRO24      -0.2727
     81  CA       180.4070  109.3320  103.5010 C.3    24  PRO24       0.1402
     82  C        179.8850  109.8930  104.8030 C.2    24  PRO24       0.2269
     83  O        180.1600  109.3340  105.8710 O.2    24  PRO24      -0.2865
     84  CB       181.5490  110.1810  102.9400 C.3    24  PRO24       0.0296
     85  CG       181.3280  110.2210  101.4890 C.3    24  PRO24       0.0237
     86  CD       179.8540  110.2250  101.3170 C.3    24  PRO24       0.0939
     87  N        174.2920  110.8100  105.3260 N.3    27  PHE27      -0.1227
     88  CA       173.0310  111.5320  105.1980 C.3    27  PHE27       0.1736
     89  C        171.8620  110.6190  104.8610 C.2    27  PHE27       0.2596
     90  O        170.7170  111.0480  104.9990 O.2    27  PHE27      -0.2718
     91  CB       173.0890  112.6000  104.1130 C.3    27  PHE27       0.0547
     92  CG       173.9310  113.7850  104.4410 C.ar   27  PHE27      -0.0202
     93  CD1      173.4660  114.7650  105.2990 C.ar   27  PHE27      -0.0042
     94  CD2      175.1570  113.9600  103.8290 C.ar   27  PHE27      -0.0042
     95  CE1      174.2300  115.8760  105.5780 C.ar   27  PHE27      -0.0003
     96  CE2      175.9250  115.0690  104.0990 C.ar   27  PHE27      -0.0003
     97  CZ       175.4630  116.0270  104.9780 C.ar   27  PHE27      -0.0000
     98  N        172.1120  109.3960  104.3830 N.am   28  SER28      -0.1952
     99  CA       171.0130  108.4670  104.1460 C.3    28  SER28       0.1924
    100  C        170.3570  108.0450  105.4500 C.2    28  SER28       0.2314
    101  O        169.1550  107.7650  105.4740 O.2    28  SER28      -0.2863
    102  CB       171.5020  107.2410  103.3800 C.3    28  SER28       0.2116
    103  OG       171.9620  107.6110  102.0930 O.3    28  SER28      -0.2180
    104  N        167.3110  110.8820  107.0220 N.3    31  PHE31      -0.1241
    105  CA       166.8220  111.8930  106.0900 C.3    31  PHE31       0.1605
    106  C        165.9380  111.3420  104.9800 C.2    31  PHE31       0.2264
    107  O        165.7260  112.0510  103.9910 O.2    31  PHE31      -0.2867
    108  CB       167.9910  112.6680  105.4850 C.3    31  PHE31       0.0534
    109  CG       168.6120  113.6560  106.4230 C.ar   31  PHE31      -0.0203
    110  CD1      167.8680  114.2180  107.4430 C.ar   31  PHE31      -0.0042
    111  CD2      169.9500  113.9960  106.3110 C.ar   31  PHE31      -0.0042
    112  CE1      168.4300  115.1150  108.3190 C.ar   31  PHE31      -0.0003
    113  CE2      170.5230  114.8990  107.1920 C.ar   31  PHE31      -0.0003
    114  CZ       169.7600  115.4580  108.1970 C.ar   31  PHE31      -0.0000
    115  N        165.7710  108.4440  102.5860 N.3    33  VAL33      -0.1245
    116  CA       166.5170  108.1420  101.3600 C.3    33  VAL33       0.1561
    117  C        165.7050  108.3080  100.0740 C.2    33  VAL33       0.2260
    118  O        166.2220  108.7920   99.0610 O.2    33  VAL33      -0.2867
    119  CB       167.0680  106.7060  101.4560 C.3    33  VAL33       0.0252
    120  CG1      167.9740  106.3740  100.2850 C.3    33  VAL33       0.0019
    121  CG2      167.7820  106.5000  102.7710 C.3    33  VAL33       0.0019
    122  N        165.3600  112.1290   99.7760 N.3    36  LEU36      -0.1231
    123  CA       166.6450  112.6300   99.3000 C.3    36  LEU36       0.1693
    124  C        166.8440  112.2970   97.8340 C.2    36  LEU36       0.2591
    125  O        167.4650  113.0710   97.0950 O.2    36  LEU36      -0.2718
    126  CB       167.7950  112.0340  100.1060 C.3    36  LEU36       0.0284
    127  CG       167.9710  112.2990  101.5960 C.3    36  LEU36       0.0019
    128  CD1      169.1350  111.4840  102.1180 C.3    36  LEU36       0.0001
    129  CD2      168.1900  113.7580  101.8710 C.3    36  LEU36       0.0001
    130  N        166.3340  111.1430   97.4060 N.am   37  GLN37      -0.1979
    131  CA       166.4000  110.7660   96.0050 C.3    37  GLN37       0.1601
    132  C        165.5570  111.6980   95.1550 C.2    37  GLN37       0.2287
    133  O        166.0160  112.1860   94.1210 O.2    37  GLN37      -0.2864
    134  CB       165.9620  109.3140   95.8400 C.3    37  GLN37       0.0394
    135  CG       166.0290  108.8270   94.4180 C.3    37  GLN37       0.0908
    136  CD       167.4070  109.0000   93.8190 C.2    37  GLN37       0.2608
    137  OE1      167.6210  109.8600   92.9660 O.2    37  GLN37      -0.2717
    138  NE2      168.3550  108.2000   94.2750 N.am   37  GLN37      -0.0878
    139  N        164.6230  114.7330   95.8950 N.3    39  GLY39      -0.1210
    140  CA       165.2750  116.0280   95.8860 C.3    39  GLY39       0.1956
    141  C        166.4940  116.0660   94.9890 C.2    39  GLY39       0.2611
    142  O        166.7990  117.1060   94.3990 O.2    39  GLY39      -0.2717
    143  N        167.2040  114.9410   94.8710 N.am   40  GLU40      -0.1979
    144  CA       168.3280  114.8800   93.9440 C.3    40  GLU40       0.1602
    145  C        167.8530  114.9260   92.5020 C.2    40  GLU40       0.2287
    146  O        168.4570  115.6100   91.6660 O.2    40  GLU40      -0.2864
    147  CB       169.1440  113.6130   94.1710 C.3    40  GLU40       0.0415
    148  CG       170.3780  113.5420   93.2940 C.3    40  GLU40       0.1163
    149  CD       171.1670  112.2760   93.4900 C.2    40  GLU40       0.3649
    150  OE1      170.7300  111.4190   94.2810 O.co2  40  GLU40      -0.2457
    151  OE2      172.2250  112.1350   92.8480 O.co2  40  GLU40      -0.2457
    152  N        166.3380  118.5840   91.9320 N.3    43  ASN43      -0.1240
    153  CA       167.4500  119.5250   91.8240 C.3    43  ASN43       0.1653
    154  C        168.2480  119.3150   90.5440 C.2    43  ASN43       0.2266
    155  O        168.7330  120.2850   89.9500 O.2    43  ASN43      -0.2867
    156  CB       168.3730  119.4000   93.0360 C.3    43  ASN43       0.1155
    157  CG       167.8250  120.0850   94.2640 C.2    43  ASN43       0.2627
    158  OD1      167.3440  121.2080   94.1940 O.2    43  ASN43      -0.2716
    159  ND2      167.8970  119.4130   95.4010 N.am   43  ASN43      -0.0877
    160  N        173.5800  115.5570   87.6340 N.3   141  ARG141     -0.1245
    161  CA       174.6360  115.8620   88.5970 C.3   141  ARG141      0.1563
    162  C        175.7070  116.7430   87.9780 C.2   141  ARG141      0.2260
    163  O        176.0880  117.7700   88.5530 O.2   141  ARG141     -0.2867
    164  CB       175.2510  114.5690   89.1210 C.3   141  ARG141      0.0307
    165  CG       174.3880  113.8080   90.0950 C.3   141  ARG141      0.0489
    166  CD       174.9850  112.4480   90.3380 C.3   141  ARG141      0.2205
    167  NE       174.1940  111.6650   91.2720 N.pl3 141  ARG141     -0.0865
    168  CZ       174.4490  110.3990   91.5710 C.cat 141  ARG141      0.5346
    169  NH1      175.4780  109.7800   91.0130 N.pl3 141  ARG141      0.1354
    170  NH2      173.6810  109.7550   92.4360 N.pl3 141  ARG141      0.1354
    171  N        174.3360  119.9450   87.6240 N.3   144  MET144     -0.1230
    172  CA       174.3570  120.7790   88.8150 C.3   144  MET144      0.1702
    173  C        175.6570  121.5690   88.8870 C.2   144  MET144      0.2592
    174  O        175.6460  122.8050   88.8240 O.2   144  MET144     -0.2718
    175  CB       174.1840  119.9260   90.0720 C.3   144  MET144      0.0401
    176  CG       172.8300  119.2570   90.2400 C.3   144  MET144      0.0596
    177  SD       172.8090  118.3660   91.8060 S.3   144  MET144     -0.1393
    178  CE       171.2830  117.4570   91.7500 C.3   144  MET144      0.0692
    179  N        176.7850  120.8490   88.9470 N.am  145  LEU145     -0.1980
    180  CA       178.0620  121.4110   89.3890 C.3   145  LEU145      0.1596
    181  C        178.5650  122.4910   88.4450 C.2   145  LEU145      0.2287
    182  O        178.8790  123.6090   88.8760 O.2   145  LEU145     -0.2864
    183  CB       179.1020  120.3000   89.5050 C.3   145  LEU145      0.0297
    184  CG       178.8540  119.2170   90.5470 C.3   145  LEU145      0.0022
    185  CD1      179.9030  118.1350   90.4150 C.3   145  LEU145      0.0001
    186  CD2      178.8710  119.8100   91.9350 C.3   145  LEU145      0.0001
@<TRIPOS>BOND
     1    56    54    1
     2    54    55    1
     3    54    53    2
     4   171   172    1
     5   160   161    1
     6   162   163    2
     7   162   161    1
     8    53    52    1
     9   181   182    2
    10   181   180    1
    11   161   164    1
    12   172   173    1
    13   172   175    1
    14   174   173    2
    15   173   179   am
    16   179   180    1
    17   164   165    1
    18   180   183    1
    19    27    24    1
    20    27    28    1
    21   183   184    1
    22    52    51    1
    23    30    31    1
    24    30    25   am
    25   155   154    2
    26   175   176    1
    27   165   166    1
    28    31    32    1
    29   176   177    1
    30    24    25    1
    31    24    23    1
    32   166   167    1
    33    28    29    1
    34   185   184    1
    35    51    50    1
    36   154   153    1
    37   184   186    1
    38    25    26    2
    39   169   168    1
    40    37    36    2
    41    32    34   am
    42    32    33    2
    43   167   168    2
    44    29    23    1
    45    23    17   am
    46    34    35    1
    47   168   170    1
    48   146   145    2
    49   178   177    1
    50   153   152    1
    51   153   156    1
    52    50    47    1
    53    18    17    2
    54    36    35    1
    55    36    46   am
    56    17    16    1
    57   145   144    1
    58    35    38    1
    59    47    46    1
    60    47    48    1
    61   151   149   ar
    62   137   136    2
    63   156   157    1
    64    38    39    1
    65   148   149    1
    66   148   147    1
    67    16    15    1
    68    16    19    1
    69   149   150   ar
    70   136   138   am
    71   136   135    1
    72    41    39   ar
    73    41    43   ar
    74   144   147    1
    75   144   143    1
    76    48    49    2
    77    48    57   am
    78   133   132    2
    79    39    40   ar
    80   158   157    2
    81   157   159   am
    82   142   141    2
    83   135   134    1
    84    19    20    1
    85    20    21    1
    86    43    44   ar
    87   143   141   am
    88   141   140    1
    89    57    58    1
    90   132   131    1
    91    40    42   ar
    92   134   131    1
    93   140   139    1
    94   131   130    1
    95    44    42   ar
    96    44    45    1
    97    21    22    1
    98    58    59    1
    99    12    11    2
   100    65    66    1
   101    65    62    1
   102   125   124    2
   103    11    10    1
   104    59    60    2
   105    59    61   am
   106    14    13    1
   107    66    68   ar
   108    66    67   ar
   109   130   124   am
   110    68    70   ar
   111    61    62    1
   112    67    69   ar
   113    70    71   ar
   114   124   123    1
   115    69    71   ar
   116    62    63    1
   117    13    10    1
   118    10     9    1
   119    64    63    2
   120    63    72   am
   121   118   117    2
   122     9     3   am
   123   123   122    1
   124   123   126    1
   125     7     6    1
   126   117   116    1
   127   126   127    1
   128    72    73    1
   129   120   119    1
   130     5     6    1
   131     5     2    1
   132     3     2    1
   133     3     4    2
   134     8     6    1
   135     2     1    1
   136    86    85    1
   137    86    80    1
   138    73    76    1
   139    73    74    1
   140   116   119    1
   141   116   115    1
   142   119   121    1
   143    85    84    1
   144   127   129    1
   145   127   128    1
   146    76    77    1
   147   103   102    1
   148    80    74   am
   149    80    81    1
   150    74    75    2
   151    77    78   ar
   152    77    79   ar
   153    84    81    1
   154   102    99    1
   155    81    82    1
   156    94    96   ar
   157    94    92   ar
   158   107   106    2
   159    96    97   ar
   160    91    92    1
   161    91    88    1
   162    99    98    1
   163    99   100    1
   164    98    89   am
   165    92    93   ar
   166    82    83    2
   167    89    90    2
   168    89    88    1
   169    97    95   ar
   170   106   105    1
   171    88    87    1
   172    93    95   ar
   173   100   101    2
   174   108   105    1
   175   108   109    1
   176   105   104    1
   177   111   109   ar
   178   111   113   ar
   179   109   110   ar
   180   113   114   ar
   181   110   112   ar
   182   114   112   ar
