@<TRIPOS>MOLECULE
tmp/5zgbL06.pdb
 85 83 0 0 0
SMALL
GASTEIGER

@<TRIPOS>ATOM
      1  N        100.4770  142.2360  115.0290 N.3    10  ILE10      -0.1231
      2  CA        99.5340  142.9170  115.9110 C.3    10  ILE10       0.1692
      3  C        100.2350  143.9580  116.7800 C.2    10  ILE10       0.2591
      4  O         99.6160  144.9490  117.1850 O.2    10  ILE10      -0.2718
      5  CB        98.7670  141.8590  116.7490 C.3    10  ILE10       0.0266
      6  CG1       97.5810  142.4710  117.5000 C.3    10  ILE10       0.0019
      7  CG2       99.6870  141.1180  117.7100 C.3    10  ILE10       0.0020
      8  CD1       96.6410  141.4390  118.0830 C.3    10  ILE10       0.0001
      9  N        101.5350  143.7840  117.0360 N.am   11  ALA11      -0.1980
     10  CA       102.2940  144.8030  117.7430 C.3    11  ALA11       0.1597
     11  C        102.5170  146.0320  116.8760 C.2    11  ALA11       0.2287
     12  O        102.5550  147.1520  117.3990 O.2    11  ALA11      -0.2864
     13  CB       103.6330  144.2310  118.2110 C.3    11  ALA11       0.0319
     14  N         99.7700  147.9490  116.8720 N.3    14  GLY14      -0.1225
     15  CA        99.8300  148.2720  118.2820 C.3    14  GLY14       0.1811
     16  C        100.8810  149.2950  118.6570 C.2    14  GLY14       0.2280
     17  O        100.8480  149.7930  119.7870 O.2    14  GLY14      -0.2866
     18  N        107.0640  146.3420  122.9540 N.3    72  LEU72      -0.1245
     19  CA       105.6780  145.9730  122.7580 C.3    72  LEU72       0.1561
     20  C        105.5400  144.6190  122.0770 C.2    72  LEU72       0.2260
     21  O        104.4980  143.9720  122.2270 O.2    72  LEU72      -0.2867
     22  CB       104.9610  147.0820  121.9780 C.3    72  LEU72       0.0270
     23  CG       103.4420  147.2120  122.1200 C.3    72  LEU72       0.0019
     24  CD1      103.0540  148.6780  122.0720 C.3    72  LEU72       0.0001
     25  CD2      102.6990  146.4590  121.0430 C.3    72  LEU72       0.0001
     26  N        106.2730  142.4010  125.1820 N.3    75  PHE75      -0.1227
     27  CA       104.9850  142.3450  125.8600 C.3    75  PHE75       0.1736
     28  C        103.9160  141.6640  125.0160 C.2    75  PHE75       0.2596
     29  O        102.8600  141.3120  125.5500 O.2    75  PHE75      -0.2718
     30  CB       104.5280  143.7520  126.2450 C.3    75  PHE75       0.0547
     31  CG       105.3460  144.3850  127.3390 C.ar   75  PHE75      -0.0202
     32  CD1      106.1390  143.6180  128.1700 C.ar   75  PHE75      -0.0042
     33  CD2      105.3310  145.7560  127.5240 C.ar   75  PHE75      -0.0042
     34  CE1      106.8890  144.2040  129.1630 C.ar   75  PHE75      -0.0003
     35  CE2      106.0790  146.3440  128.5220 C.ar   75  PHE75      -0.0003
     36  CZ       106.8590  145.5660  129.3400 C.ar   75  PHE75      -0.0000
     37  N        104.1560  141.4910  123.7140 N.am   76  GLY76      -0.1957
     38  CA       103.3270  140.6000  122.9280 C.3    76  GLY76       0.1869
     39  C        103.5780  139.1400  123.2390 C.2    76  GLY76       0.2309
     40  O        102.6610  138.3200  123.1610 O.2    76  GLY76      -0.2863
     41  N        104.5130  138.3830  126.2780 N.3    78  ILE78      -0.1231
     42  CA       103.7960  138.3900  127.5510 C.3    78  ILE78       0.1692
     43  C        102.2950  138.3100  127.3020 C.2    78  ILE78       0.2593
     44  O        101.5360  137.8420  128.1580 O.2    78  ILE78      -0.2718
     45  CB       104.1890  139.6390  128.3660 C.3    78  ILE78       0.0266
     46  CG1      105.7060  139.7310  128.4790 C.3    78  ILE78       0.0019
     47  CG2      103.6210  139.6120  129.7850 C.3    78  ILE78       0.0020
     48  CD1      106.3140  138.5570  129.1330 C.3    78  ILE78       0.0001
     49  N        101.8530  138.6700  126.0990 N.am   79  GLY79      -0.1942
     50  CA       100.5040  138.3980  125.6540 C.3    79  GLY79       0.2014
     51  C        100.2380  136.9560  125.2630 C.2    79  GLY79       0.2639
     52  O         99.2350  136.6550  124.6100 O.2    79  GLY79      -0.2714
     53  N        101.1540  136.0610  125.6200 N.am   80  TYR80      -0.1959
     54  CA       100.9200  134.6280  125.6160 C.3    80  TYR80       0.1771
     55  C        101.4120  134.0140  126.9190 C.2    80  TYR80       0.2619
     56  O        101.8150  132.8500  126.9600 O.2    80  TYR80      -0.2715
     57  CB       101.5590  133.9830  124.3920 C.3    80  TYR80       0.0574
     58  CG       100.8660  134.4260  123.1270 C.ar   80  TYR80      -0.0198
     59  CD1       99.6780  133.8330  122.7220 C.ar   80  TYR80      -0.0009
     60  CD2      101.3700  135.4700  122.3650 C.ar   80  TYR80      -0.0009
     61  CE1       99.0290  134.2450  121.5790 C.ar   80  TYR80       0.0417
     62  CE2      100.7270  135.8910  121.2210 C.ar   80  TYR80       0.0417
     63  CZ        99.5590  135.2740  120.8340 C.ar   80  TYR80       0.1957
     64  OH        98.9150  135.6880  119.6960 O.3    80  TYR80      -0.2866
     65  N        101.3890  134.8080  127.9900 N.am   81  ALA81      -0.1963
     66  CA       101.5630  134.3060  129.3450 C.3    81  ALA81       0.1728
     67  C        100.2520  133.8570  129.9580 C.2    81  ALA81       0.2617
     68  O        100.2460  132.9490  130.7970 O.2    81  ALA81      -0.2715
     69  CB       102.1880  135.3770  130.2410 C.3    81  ALA81       0.0334
     70  N         99.1430  134.4630  129.5450 N.am   82  GLY82      -0.1940
     71  CA        97.8280  134.0320  129.9720 C.3    82  GLY82       0.2014
     72  C         97.2650  132.9380  129.0880 C.2    82  GLY82       0.2638
     73  O         96.0800  132.9540  128.7440 O.2    82  GLY82      -0.2714
     74  N         98.1160  131.9900  128.7010 N.am   83  TYR83      -0.1973
     75  CA        97.7280  130.8560  127.8770 C.3    83  TYR83       0.1639
     76  C         98.5210  129.6220  128.2890 C.2    83  TYR83       0.2290
     77  O         99.7410  129.6820  128.4460 O.2    83  TYR83      -0.2864
     78  CB        97.9540  131.1570  126.3970 C.3    83  TYR83       0.0560
     79  CG        97.0560  132.2370  125.8570 C.ar   83  TYR83      -0.0198
     80  CD1       95.7470  131.9620  125.5000 C.ar   83  TYR83      -0.0009
     81  CD2       97.5140  133.5360  125.7210 C.ar   83  TYR83      -0.0009
     82  CE1       94.9210  132.9560  125.0100 C.ar   83  TYR83       0.0417
     83  CE2       96.7030  134.5290  125.2320 C.ar   83  TYR83       0.0417
     84  CZ        95.4070  134.2390  124.8790 C.ar   83  TYR83       0.1957
     85  OH        94.5950  135.2350  124.3900 O.3    83  TYR83      -0.2866
@<TRIPOS>BOND
     1     1     2    1
     2     2     5    1
     3     2     3    1
     4     5     6    1
     5     5     7    1
     6     3     9   am
     7     3     4    2
     8    14    15    1
     9    11    12    2
    10    11    10    1
    11     9    10    1
    12     6     8    1
    13    10    13    1
    14    15    16    1
    15    16    17    2
    16    64    63    1
    17    63    62   ar
    18    63    61   ar
    19    25    23    1
    20    62    60   ar
    21    61    59   ar
    22    22    23    1
    23    22    19    1
    24    24    23    1
    25    20    21    2
    26    20    19    1
    27    60    58   ar
    28    59    58   ar
    29    19    18    1
    30    38    39    1
    31    38    37    1
    32    58    57    1
    33    40    39    2
    34    37    28   am
    35    85    84    1
    36    57    54    1
    37    52    51    2
    38    84    82   ar
    39    84    83   ar
    40    82    80   ar
    41    28    29    2
    42    28    27    1
    43    26    27    1
    44    83    81   ar
    45    51    53   am
    46    51    50    1
    47    80    79   ar
    48    54    53    1
    49    54    55    1
    50    50    49    1
    51    81    79   ar
    52    79    78    1
    53    27    30    1
    54    49    43   am
    55    30    31    1
    56    41    42    1
    57    78    75    1
    58    55    56    2
    59    55    65   am
    60    43    42    1
    61    43    44    2
    62    31    33   ar
    63    31    32   ar
    64    33    35   ar
    65    42    45    1
    66    75    76    1
    67    75    74    1
    68    65    66    1
    69    32    34   ar
    70    76    77    2
    71    45    46    1
    72    45    47    1
    73    46    48    1
    74    35    36   ar
    75    74    72   am
    76    73    72    2
    77    72    71    1
    78    34    36   ar
    79    66    67    1
    80    66    69    1
    81    70    67   am
    82    70    71    1
    83    67    68    2
