@<TRIPOS>MOLECULE
tmp/5zgbQ13.pdb
 132 124 0 0 0
SMALL
GASTEIGER

@<TRIPOS>ATOM
      1  N        201.8550  112.0950  106.5270 N.3    47  VAL47      -0.1245
      2  CA       201.9520  113.5370  106.3400 C.3    47  VAL47       0.1561
      3  C        203.4000  114.0060  106.4300 C.2    47  VAL47       0.2260
      4  O        203.7650  115.0070  105.8010 O.2    47  VAL47      -0.2867
      5  CB       201.0270  114.2770  107.3340 C.3    47  VAL47       0.0252
      6  CG1      201.5460  114.2260  108.7640 C.3    47  VAL47       0.0019
      7  CG2      200.7760  115.7110  106.8860 C.3    47  VAL47       0.0019
      8  N        204.9220  113.3100  102.9590 N.3    50  LEU50      -0.1231
      9  CA       204.5010  114.4470  102.1460 C.3    50  LEU50       0.1693
     10  C        205.2820  115.7120  102.4720 C.2    50  LEU50       0.2591
     11  O        205.5720  116.5090  101.5730 O.2    50  LEU50      -0.2718
     12  CB       203.0170  114.7050  102.3470 C.3    50  LEU50       0.0284
     13  CG       202.0670  113.7210  101.6930 C.3    50  LEU50       0.0019
     14  CD1      200.6910  114.0140  102.2050 C.3    50  LEU50       0.0001
     15  CD2      202.1230  113.9150  100.1940 C.3    50  LEU50       0.0001
     16  N        205.6450  115.9000  103.7410 N.am   51  ALA51      -0.1980
     17  CA       206.3960  117.0860  104.1350 C.3    51  ALA51       0.1597
     18  C        207.8090  117.0690  103.5640 C.2    51  ALA51       0.2287
     19  O        208.2730  118.0710  103.0060 O.2    51  ALA51      -0.2864
     20  CB       206.4380  117.1900  105.6560 C.3    51  ALA51       0.0319
     21  N        209.0710  115.2430  101.0430 N.3    53  LEU53      -0.1231
     22  CA       209.0870  115.3420   99.5880 C.3    53  LEU53       0.1693
     23  C        208.6480  116.7280   99.1370 C.2    53  LEU53       0.2592
     24  O        209.0600  117.1970   98.0680 O.2    53  LEU53      -0.2718
     25  CB       208.2020  114.2630   98.9710 C.3    53  LEU53       0.0284
     26  CG       208.2860  114.1200   97.4510 C.3    53  LEU53       0.0019
     27  CD1      209.6770  113.6610   97.0490 C.3    53  LEU53       0.0001
     28  CD2      207.2180  113.1990   96.8970 C.3    53  LEU53       0.0001
     29  N        207.8420  117.4040   99.9600 N.am   54  GLY54      -0.1957
     30  CA       207.5480  118.8030   99.7080 C.3    54  GLY54       0.1869
     31  C        208.7850  119.6770   99.7740 C.2    54  GLY54       0.2309
     32  O        209.0440  120.4650   98.8660 O.2    54  GLY54      -0.2863
     33  N        211.3550  118.5450   96.8650 N.3    57  ALA57      -0.1231
     34  CA       210.8300  118.8480   95.5370 C.3    57  ALA57       0.1694
     35  C        210.6730  120.3460   95.3130 C.2    57  ALA57       0.2591
     36  O        210.7940  120.8170   94.1780 O.2    57  ALA57      -0.2718
     37  CB       209.4930  118.1410   95.3330 C.3    57  ALA57       0.0304
     38  N        210.4180  121.1050   96.3780 N.am   58  GLN58      -0.1979
     39  CA       210.4410  122.5580   96.2690 C.3    58  GLN58       0.1601
     40  C        211.8630  123.0850   96.1910 C.2    58  GLN58       0.2287
     41  O        212.1180  124.0970   95.5300 O.2    58  GLN58      -0.2864
     42  CB       209.7000  123.1640   97.4470 C.3    58  GLN58       0.0394
     43  CG       208.2120  123.0980   97.3000 C.3    58  GLN58       0.0908
     44  CD       207.5280  123.2100   98.6300 C.2    58  GLN58       0.2608
     45  OE1      208.1610  123.1120   99.6770 O.2    58  GLN58      -0.2717
     46  NE2      206.2330  123.4080   98.6030 N.am   58  GLN58      -0.0878
     47  N        210.9520  125.1810   91.7710 N.3    62  THR62      -0.1203
     48  CA       209.7960  125.2520   90.8880 C.3    62  THR62       0.1994
     49  C        208.7480  126.1970   91.4560 C.2    62  THR62       0.2618
     50  O        208.3740  126.0820   92.6260 O.2    62  THR62      -0.2717
     51  CB       209.1830  123.8670   90.6750 C.3    62  THR62       0.1784
     52  OG1      210.1780  122.9800   90.1490 O.3    62  THR62      -0.2211
     53  CG2      208.0460  123.9630   89.6900 C.3    62  THR62       0.0376
     54  N        208.2890  127.1330   90.6240 N.am   63  PHE63      -0.1961
     55  CA       207.1890  128.0270   90.9530 C.3    63  PHE63       0.1771
     56  C        206.3950  128.2850   89.6830 C.2    63  PHE63       0.2619
     57  O        206.9690  128.3190   88.5910 O.2    63  PHE63      -0.2715
     58  CB       207.6900  129.3610   91.5190 C.3    63  PHE63       0.0574
     59  CG       208.3990  129.2400   92.8330 C.ar   63  PHE63      -0.0200
     60  CD1      207.6850  129.1820   94.0150 C.ar   63  PHE63      -0.0042
     61  CD2      209.7840  129.1810   92.8850 C.ar   63  PHE63      -0.0042
     62  CE1      208.3360  129.0730   95.2260 C.ar   63  PHE63      -0.0003
     63  CE2      210.4410  129.0680   94.0940 C.ar   63  PHE63      -0.0003
     64  CZ       209.7130  129.0130   95.2630 C.ar   63  PHE63      -0.0000
     65  N        205.0770  128.4400   89.8240 N.am   64  ASP64      -0.1971
     66  CA       204.2830  128.9820   88.7260 C.3    64  ASP64       0.1709
     67  C        204.7070  130.4190   88.4660 C.2    64  ASP64       0.2293
     68  O        205.2960  130.7200   87.4230 O.2    64  ASP64      -0.2864
     69  CB       202.7880  128.9150   89.0380 C.3    64  ASP64       0.1436
     70  CG       202.2480  127.5040   88.9900 C.2    64  ASP64       0.3671
     71  OD1      202.8040  126.6770   88.2350 O.co2  64  ASP64      -0.2456
     72  OD2      201.2640  127.2190   89.7000 O.co2  64  ASP64      -0.2456
     73  N        206.1340  133.1340   91.5840 N.3    66  TYR66      -0.1241
     74  CA       206.2470  133.5940   92.9620 C.3    66  TYR66       0.1605
     75  C        207.6250  134.2290   93.1190 C.2    66  TYR66       0.2264
     76  O        208.2840  134.5630   92.1300 O.2    66  TYR66      -0.2867
     77  CB       206.0230  132.4460   93.9660 C.3    66  TYR66       0.0534
     78  CG       204.6190  131.8820   94.0050 C.ar   66  TYR66      -0.0201
     79  CD1      203.5910  132.5660   94.6410 C.ar   66  TYR66      -0.0009
     80  CD2      204.3240  130.6640   93.4030 C.ar   66  TYR66      -0.0009
     81  CE1      202.3090  132.0520   94.6770 C.ar   66  TYR66       0.0417
     82  CE2      203.0460  130.1410   93.4360 C.ar   66  TYR66       0.0417
     83  CZ       202.0450  130.8390   94.0740 C.ar   66  TYR66       0.1957
     84  OH       200.7740  130.3190   94.1080 O.3    66  TYR66      -0.2866
     85  N        212.3530  127.0650  102.7440 N.3    72  LEU72      -0.1245
     86  CA       210.9850  126.5710  102.6650 C.3    72  LEU72       0.1561
     87  C        210.3170  126.6520  104.0280 C.2    72  LEU72       0.2260
     88  O        209.3930  125.8980  104.3320 O.2    72  LEU72      -0.2867
     89  CB       210.9180  125.1510  102.1080 C.3    72  LEU72       0.0270
     90  CG       210.8260  125.0570  100.5770 C.3    72  LEU72       0.0019
     91  CD1      209.7090  125.9540  100.0500 C.3    72  LEU72       0.0001
     92  CD2      212.1210  125.3400   99.8600 C.3    72  LEU72       0.0001
     93  N        207.5200  132.9570  101.9860 N.3    78  LEU78      -0.1245
     94  CA       206.9790  131.7220  101.4390 C.3    78  LEU78       0.1561
     95  C        205.5020  131.6060  101.7990 C.2    78  LEU78       0.2260
     96  O        204.6090  131.7370  100.9410 O.2    78  LEU78      -0.2867
     97  CB       207.7890  130.5430  101.9980 C.3    78  LEU78       0.0270
     98  CG       207.7620  129.1210  101.4350 C.3    78  LEU78       0.0019
     99  CD1      206.5550  128.3070  101.8860 C.3    78  LEU78       0.0001
    100  CD2      207.8480  129.1850   99.9220 C.3    78  LEU78       0.0001
    101  N        201.9680  132.9800  100.0420 N.3    82  PHE82      -0.1241
    102  CA       200.9200  132.0710   99.5960 C.3    82  PHE82       0.1605
    103  C        199.5590  132.4270  100.1860 C.2    82  PHE82       0.2264
    104  O        198.5390  132.3320   99.4950 O.2    82  PHE82      -0.2867
    105  CB       201.3120  130.6450   99.9560 C.3    82  PHE82       0.0534
    106  CG       202.4900  130.1360   99.1900 C.ar   82  PHE82      -0.0203
    107  CD1      202.8330  130.6880   97.9630 C.ar   82  PHE82      -0.0042
    108  CD2      203.2790  129.1330   99.7120 C.ar   82  PHE82      -0.0042
    109  CE1      203.9230  130.2260   97.2650 C.ar   82  PHE82      -0.0003
    110  CE2      204.3760  128.6710   99.0170 C.ar   82  PHE82      -0.0003
    111  CZ       204.6960  129.2210   97.7950 C.ar   82  PHE82      -0.0000
    112  N        195.3780  131.4900   98.7920 N.3    87  ALA87      -0.1231
    113  CA       195.6720  130.2460   98.1040 C.3    87  ALA87       0.1694
    114  C        195.8120  129.0480   99.0270 C.2    87  ALA87       0.2591
    115  O        195.2810  127.9860   98.7180 O.2    87  ALA87      -0.2718
    116  CB       196.9450  130.4250   97.2740 C.3    87  ALA87       0.0304
    117  N        196.4940  129.1790  100.1670 N.am   88  LEU88      -0.1980
    118  CA       196.5890  128.0360  101.0690 C.3    88  LEU88       0.1596
    119  C        195.2850  127.7620  101.8070 C.2    88  LEU88       0.2287
    120  O        195.1460  126.6780  102.3840 O.2    88  LEU88      -0.2864
    121  CB       197.7020  128.2230  102.0980 C.3    88  LEU88       0.0297
    122  CG       199.1760  128.2890  101.7230 C.3    88  LEU88       0.0022
    123  CD1      200.0040  128.5760  102.9600 C.3    88  LEU88       0.0001
    124  CD2      199.6470  127.0230  101.0690 C.3    88  LEU88       0.0001
    125  N        193.7770  124.8470  100.3220 N.3    91  ILE91      -0.1245
    126  CA       194.5560  123.6160  100.4580 C.3    91  ILE91       0.1561
    127  C        194.5750  123.1500  101.9110 C.2    91  ILE91       0.2260
    128  O        194.9030  121.9900  102.1890 O.2    91  ILE91      -0.2867
    129  CB       195.9740  123.7860   99.8860 C.3    91  ILE91       0.0252
    130  CG1      196.5670  122.4380   99.4840 C.3    91  ILE91       0.0019
    131  CG2      196.9020  124.3650  100.8980 C.3    91  ILE91       0.0019
    132  CD1      197.8400  122.5560   98.6910 C.3    91  ILE91       0.0001
@<TRIPOS>BOND
     1    68    67    2
     2    71    70   ar
     3    67    66    1
     4    57    56    2
     5    66    69    1
     6    66    65    1
     7    70    69    1
     8    70    72   ar
     9    56    65   am
    10    56    55    1
    11    53    51    1
    12    52    51    1
    13    54    55    1
    14    54    49   am
    15    51    48    1
    16    48    49    1
    17    48    47    1
    18    55    58    1
    19    49    50    2
    20    58    59    1
    21    73    74    1
    22    76    75    2
    23    59    61   ar
    24    59    60   ar
    25    61    63   ar
    26    74    75    1
    27    74    77    1
    28    80    82   ar
    29    80    78   ar
    30    82    83   ar
    31    77    78    1
    32    78    79   ar
    33    60    62   ar
    34    83    84    1
    35    83    81   ar
    36    63    64   ar
    37    36    35    2
    38    79    81   ar
    39    62    64   ar
    40    35    34    1
    41    35    38   am
    42    37    34    1
    43    41    40    2
    44    34    33    1
    45    40    39    1
    46    39    38    1
    47    39    42    1
    48    28    26    1
    49    27    26    1
    50   109   111   ar
    51   109   107   ar
    52   116   113    1
    53    43    42    1
    54    43    44    1
    55    26    25    1
    56   111   110   ar
    57   107   106   ar
    58    24    23    2
    59   113   112    1
    60   113   114    1
    61    46    44   am
    62    44    45    2
    63   132   130    1
    64   115   114    2
    65    32    31    2
    66    25    22    1
    67   110   108   ar
    68   114   117   am
    69    23    22    1
    70    23    29   am
    71   106   108   ar
    72   106   105    1
    73   130   129    1
    74   104   103    2
    75    22    21    1
    76   102   105    1
    77   102   101    1
    78   102   103    1
    79    30    31    1
    80    30    29    1
    81    92    90    1
    82   129   126    1
    83   129   131    1
    84   100    98    1
    85    91    90    1
    86   117   118    1
    87    15    13    1
    88   125   126    1
    89   126   127    1
    90    90    89    1
    91    96    95    2
    92   118   119    1
    93   118   121    1
    94   124   122    1
    95    98    99    1
    96    98    97    1
    97    94    95    1
    98    94    93    1
    99    94    97    1
   100    11    10    2
   101    13    14    1
   102    13    12    1
   103   122   121    1
   104   122   123    1
   105   119   120    2
   106   127   128    2
   107    89    86    1
   108     9    12    1
   109     9    10    1
   110     9     8    1
   111    10    16   am
   112    86    85    1
   113    86    87    1
   114    19    18    2
   115    18    17    1
   116    16    17    1
   117    87    88    2
   118    17    20    1
   119     4     3    2
   120     2     3    1
   121     2     1    1
   122     2     5    1
   123     7     5    1
   124     5     6    1
