@<TRIPOS>MOLECULE
tmp/5zgbJ10.pdb
 102 100 0 0 0
SMALL
GASTEIGER

@<TRIPOS>ATOM
      1  N        119.8770  126.0510  123.9130 N.3     3  ASN3       -0.1240
      2  CA       120.8220  126.0730  122.7870 C.3     3  ASN3        0.1653
      3  C        121.2910  124.6550  122.4660 C.2     3  ASN3        0.2266
      4  O        122.4780  124.3970  122.2620 O.2     3  ASN3       -0.2867
      5  CB       122.0020  127.0200  123.0270 C.3     3  ASN3        0.1155
      6  CG       122.5750  127.5930  121.7420 C.2     3  ASN3        0.2627
      7  OD1      123.3280  128.5650  121.7730 O.2     3  ASN3       -0.2716
      8  ND2      122.2060  127.0130  120.6090 N.am    3  ASN3       -0.0877
      9  N        120.6690  123.1150  112.1530 N.3    11  TYR11      -0.1227
     10  CA       121.6360  124.0150  111.5380 C.3    11  TYR11       0.1736
     11  C        123.0600  123.5020  111.6910 C.2    11  TYR11       0.2595
     12  O        123.8580  123.5920  110.7540 O.2    11  TYR11      -0.2718
     13  CB       121.5140  125.4140  112.1270 C.3    11  TYR11       0.0548
     14  CG       122.5070  126.3740  111.5340 C.ar   11  TYR11      -0.0200
     15  CD1      122.3830  126.7990  110.2210 C.ar   11  TYR11      -0.0009
     16  CD2      123.5650  126.8600  112.2860 C.ar   11  TYR11      -0.0009
     17  CE1      123.2890  127.6750  109.6680 C.ar   11  TYR11       0.0417
     18  CE2      124.4740  127.7400  111.7450 C.ar   11  TYR11       0.0417
     19  CZ       124.3320  128.1440  110.4360 C.ar   11  TYR11       0.1957
     20  OH       125.2390  129.0230  109.8920 O.3    11  TYR11      -0.2866
     21  N        123.4000  122.9600  112.8580 N.am   12  LEU12      -0.1980
     22  CA       124.7180  122.3700  113.0200 C.3    12  LEU12       0.1596
     23  C        124.8330  121.0370  112.3060 C.2    12  LEU12       0.2287
     24  O        125.9500  120.5670  112.0810 O.2    12  LEU12      -0.2864
     25  CB       125.0480  122.1780  114.4990 C.3    12  LEU12       0.0297
     26  CG       125.1770  123.4130  115.3920 C.3    12  LEU12       0.0022
     27  CD1      125.3570  122.9970  116.8410 C.3    12  LEU12       0.0001
     28  CD2      126.3110  124.3130  114.9610 C.3    12  LEU12       0.0001
     29  N        126.2530  121.2570  108.5320 N.3    15  LEU15      -0.1231
     30  CA       127.5250  121.9410  108.4020 C.3    15  LEU15       0.1678
     31  C        128.4670  121.1300  107.5170 C.2    15  LEU15       0.2434
     32  O        128.2170  119.9570  107.2390 O.2    15  LEU15      -0.2733
     33  CB       128.1270  122.1720  109.7880 C.3    15  LEU15       0.0284
     34  CG       127.4880  123.2970  110.5870 C.3    15  LEU15       0.0019
     35  CD1      128.1600  123.3810  111.9240 C.3    15  LEU15       0.0001
     36  CD2      127.6320  124.6040  109.8410 C.3    15  LEU15       0.0001
     37  N        129.5840  121.7190  107.0630 N.am   16  PRO16      -0.2718
     38  CA       130.5250  120.9410  106.2440 C.3    16  PRO16       0.1535
     39  C        131.3870  119.9420  106.9960 C.2    16  PRO16       0.2598
     40  O        132.4270  119.5400  106.4780 O.2    16  PRO16      -0.2715
     41  CB       131.4010  122.0200  105.6030 C.3    16  PRO16       0.0310
     42  CG       130.5860  123.2140  105.6140 C.3    16  PRO16       0.0237
     43  CD       129.7860  123.1630  106.8510 C.3    16  PRO16       0.0939
     44  N        131.0250  119.5740  108.2210 N.am   17  ILE17      -0.1978
     45  CA       131.6050  118.4250  108.9030 C.3    17  ILE17       0.1596
     46  C        130.5310  117.4520  109.3700 C.2    17  ILE17       0.2287
     47  O        130.5800  116.2570  109.0590 O.2    17  ILE17      -0.2864
     48  CB       132.5010  118.8580  110.0790 C.3    17  ILE17       0.0276
     49  CG1      133.7910  119.4690  109.5480 C.3    17  ILE17       0.0022
     50  CG2      132.7990  117.6890  110.9840 C.3    17  ILE17       0.0022
     51  CD1      134.6680  120.0100  110.6130 C.3    17  ILE17       0.0001
     52  N        135.0540  122.4550  100.9270 N.3    30  GLU30      -0.1231
     53  CA       133.9840  123.3590  101.3120 C.3    30  GLU30       0.1699
     54  C        134.4300  124.2770  102.4460 C.2    30  GLU30       0.2592
     55  O        134.0760  125.4660  102.4650 O.2    30  GLU30      -0.2718
     56  CB       132.7650  122.5280  101.6920 C.3    30  GLU30       0.0402
     57  CG       131.5190  123.2910  102.0090 C.3    30  GLU30       0.1161
     58  CD       130.3550  122.3550  102.2240 C.2    30  GLU30       0.3649
     59  OE1      130.5320  121.1360  102.0280 O.co2  30  GLU30      -0.2457
     60  OE2      129.2800  122.8190  102.6320 O.co2  30  GLU30      -0.2457
     61  N        135.2330  123.7390  103.3710 N.am   31  ILE31      -0.1980
     62  CA       135.7950  124.5260  104.4690 C.3    31  ILE31       0.1595
     63  C        136.7000  125.6230  103.9320 C.2    31  ILE31       0.2287
     64  O        136.5440  126.8050  104.2640 O.2    31  ILE31      -0.2864
     65  CB       136.5640  123.6120  105.4360 C.3    31  ILE31       0.0276
     66  CG1      135.6320  122.5950  106.0720 C.3    31  ILE31       0.0022
     67  CG2      137.2350  124.4290  106.5040 C.3    31  ILE31       0.0022
     68  CD1      134.6090  123.2130  106.9470 C.3    31  ILE31       0.0001
     69  N        134.8750  128.3360  102.1240 N.3    34  ALA34      -0.1231
     70  CA       134.4220  129.4450  102.9590 C.3    34  ALA34       0.1694
     71  C        135.5890  130.3240  103.4030 C.2    34  ALA34       0.2592
     72  O        135.6010  131.5390  103.1580 O.2    34  ALA34      -0.2718
     73  CB       133.6660  128.9080  104.1730 C.3    34  ALA34       0.0304
     74  N        136.5900  129.7120  104.0360 N.am   35  HIS35      -0.1976
     75  CA       137.6190  130.4630  104.7490 C.3    35  HIS35       0.1656
     76  C        138.5460  131.2120  103.8040 C.2    35  HIS35       0.2291
     77  O        138.9340  132.3500  104.0830 O.2    35  HIS35      -0.2864
     78  CB       138.4210  129.5080  105.6170 C.3    35  HIS35       0.0771
     79  CG       137.6360  128.9230  106.7410 C.ar   35  HIS35       0.0820
     80  ND1      136.7510  127.8840  106.5660 N.ar   35  HIS35      -0.2267
     81  CD2      137.6350  129.2010  108.0630 C.ar   35  HIS35       0.1154
     82  CE1      136.2140  127.5680  107.7290 C.ar   35  HIS35       0.1986
     83  NE2      136.7480  128.3400  108.6550 N.ar   35  HIS35      -0.2212
     84  N        136.9820  134.1320  102.6640 N.3    38  PHE38      -0.1227
     85  CA       136.8570  135.0830  103.7570 C.3    38  PHE38       0.1736
     86  C        138.1330  135.8930  103.9600 C.2    38  PHE38       0.2595
     87  O        138.0820  137.1190  104.1040 O.2    38  PHE38      -0.2718
     88  CB       136.4850  134.3290  105.0250 C.3    38  PHE38       0.0547
     89  CG       136.5580  135.1560  106.2380 C.ar   38  PHE38      -0.0202
     90  CD1      135.6090  136.1100  106.4850 C.ar   38  PHE38      -0.0042
     91  CD2      137.5910  134.9880  107.1400 C.ar   38  PHE38      -0.0042
     92  CE1      135.6840  136.8790  107.6030 C.ar   38  PHE38      -0.0003
     93  CE2      137.6690  135.7690  108.2520 C.ar   38  PHE38      -0.0003
     94  CZ       136.7120  136.7140  108.4900 C.ar   38  PHE38      -0.0000
     95  N        139.2860  135.2270  103.9830 N.am   39  LEU39      -0.1980
     96  CA       140.5210  135.8270  104.4810 C.3    39  LEU39       0.1596
     97  C        141.1690  136.8170  103.5260 C.2    39  LEU39       0.2287
     98  O        142.2080  137.3800  103.8730 O.2    39  LEU39      -0.2864
     99  CB       141.5420  134.7460  104.8180 C.3    39  LEU39       0.0297
    100  CG       141.2410  133.8640  106.0180 C.3    39  LEU39       0.0022
    101  CD1      142.3090  132.8060  106.1220 C.3    39  LEU39       0.0001
    102  CD2      141.1930  134.7020  107.2720 C.3    39  LEU39       0.0001
@<TRIPOS>BOND
     1    52    53    1
     2    53    56    1
     3    53    54    1
     4    56    57    1
     5    57    58    1
     6    59    58   ar
     7    69    70    1
     8    58    60   ar
     9    54    55    2
    10    54    61   am
    11    84    85    1
    12    70    71    1
    13    70    73    1
    14    72    71    2
    15    61    62    1
    16    71    74   am
    17    97    98    2
    18    97    96    1
    19    85    86    1
    20    85    88    1
    21    76    77    2
    22    76    75    1
    23    63    64    2
    24    63    62    1
    25    86    95   am
    26    86    87    2
    27    95    96    1
    28    74    75    1
    29    62    65    1
    30    96    99    1
    31    75    78    1
    32    99   100    1
    33    88    89    1
    34    65    66    1
    35    65    67    1
    36    41    42    1
    37    41    38    1
    38    42    43    1
    39    78    79    1
    40   100   101    1
    41   100   102    1
    42    66    68    1
    43    89    90   ar
    44    89    91   ar
    45    38    39    1
    46    38    37    1
    47    40    39    2
    48    90    92   ar
    49    80    79   ar
    50    80    82   ar
    51    79    81   ar
    52    43    37    1
    53    39    44   am
    54    37    31   am
    55    91    93   ar
    56    32    31    2
    57    31    30    1
    58    92    94   ar
    59    82    83   ar
    60    81    83   ar
    61    44    45    1
    62    93    94   ar
    63    30    29    1
    64    30    33    1
    65    45    46    1
    66    45    48    1
    67    47    46    2
    68    49    48    1
    69    49    51    1
    70    17    15   ar
    71    17    19   ar
    72    33    34    1
    73    36    34    1
    74    20    19    1
    75    48    50    1
    76    15    14   ar
    77    19    18   ar
    78    34    35    1
    79    12    11    2
    80    14    13    1
    81    14    16   ar
    82    10    11    1
    83    10    13    1
    84    10     9    1
    85    11    21   am
    86    18    16   ar
    87    24    23    2
    88    23    22    1
    89    21    22    1
    90    22    25    1
    91    25    26    1
    92    28    26    1
    93    26    27    1
    94     8     6   am
    95     6     7    2
    96     6     5    1
    97     4     3    2
    98     3     2    1
    99     2     5    1
   100     2     1    1
