@<TRIPOS>MOLECULE
tmp/5zgbP05.pdb
 117 116 0 0 0
SMALL
GASTEIGER

@<TRIPOS>ATOM
      1  N        177.8940  106.1530   97.4880 N.3    22  PHE22      -0.1241
      2  CA       178.6370  107.2960   98.0150 C.3    22  PHE22       0.1605
      3  C        177.7410  108.0660   98.9830 C.2    22  PHE22       0.2264
      4  O        176.9730  108.9380   98.5770 O.2    22  PHE22      -0.2867
      5  CB       179.1160  108.1880   96.8860 C.3    22  PHE22       0.0534
      6  CG       180.0550  109.2620   97.3180 C.ar   22  PHE22      -0.0203
      7  CD1      181.3720  108.9600   97.5990 C.ar   22  PHE22      -0.0042
      8  CD2      179.6320  110.5710   97.4300 C.ar   22  PHE22      -0.0042
      9  CE1      182.2520  109.9410   97.9910 C.ar   22  PHE22      -0.0003
     10  CE2      180.5100  111.5580   97.8230 C.ar   22  PHE22      -0.0003
     11  CZ       181.8180  111.2410   98.0980 C.ar   22  PHE22      -0.0000
     12  N        171.5610  128.8460   80.7230 N.3    54  PHE54      -0.1241
     13  CA       172.9320  129.3120   80.5600 C.3    54  PHE54       0.1605
     14  C        173.6670  128.6310   79.4090 C.2    54  PHE54       0.2264
     15  O        174.8710  128.8580   79.2440 O.2    54  PHE54      -0.2867
     16  CB       173.6980  129.1310   81.8660 C.3    54  PHE54       0.0534
     17  CG       173.3360  130.1360   82.9130 C.ar   54  PHE54      -0.0203
     18  CD1      172.7680  131.3510   82.5600 C.ar   54  PHE54      -0.0042
     19  CD2      173.5310  129.8570   84.2520 C.ar   54  PHE54      -0.0042
     20  CE1      172.4330  132.2720   83.5240 C.ar   54  PHE54      -0.0003
     21  CE2      173.1950  130.7780   85.2180 C.ar   54  PHE54      -0.0003
     22  CZ       172.6450  131.9880   84.8510 C.ar   54  PHE54      -0.0000
     23  N        173.1910  137.2710   83.1890 N.3    72  ALA72      -0.1231
     24  CA       173.3270  136.1320   84.1030 C.3    72  ALA72       0.1694
     25  C        173.4840  136.5080   85.5760 C.2    72  ALA72       0.2593
     26  O        173.5120  135.6120   86.4260 O.2    72  ALA72      -0.2718
     27  CB       174.4900  135.2050   83.7140 C.3    72  ALA72       0.0304
     28  N        173.5750  137.7880   85.9090 N.am   73  GLY73      -0.1943
     29  CA       173.7320  138.2320   87.2710 C.3    73  GLY73       0.1998
     30  C        172.4920  138.9580   87.7330 C.2    73  GLY73       0.2480
     31  O        171.5220  138.3560   88.2020 O.2    73  GLY73      -0.2729
     32  N        172.5040  140.2850   87.6050 N.am   74  PRO74      -0.2726
     33  CA       171.3000  141.0820   87.8650 C.3    74  PRO74       0.1402
     34  C        170.2270  140.9880   86.7890 C.2    74  PRO74       0.2269
     35  O        169.3060  141.8090   86.8030 O.2    74  PRO74      -0.2865
     36  CB       171.8560  142.5110   87.9410 C.3    74  PRO74       0.0296
     37  CG       173.0420  142.4870   87.0570 C.3    74  PRO74       0.0237
     38  CD       173.6510  141.1270   87.2220 C.3    74  PRO74       0.0939
     39  N        168.3570  138.4540   86.9050 N.3    76  HIS76      -0.1226
     40  CA       167.3850  138.1590   87.9490 C.3    76  HIS76       0.1752
     41  C        166.7840  139.4320   88.5260 C.2    76  HIS76       0.2596
     42  O        165.5630  139.5450   88.6620 O.2    76  HIS76      -0.2718
     43  CB       168.0520  137.3450   89.0480 C.3    76  HIS76       0.0759
     44  CG       167.1480  137.0390   90.1930 C.ar   76  HIS76       0.0818
     45  ND1      167.0500  137.8510   91.3010 N.ar   76  HIS76      -0.2268
     46  CD2      166.2810  136.0210   90.3920 C.ar   76  HIS76       0.1154
     47  CE1      166.1720  137.3370   92.1420 C.ar   76  HIS76       0.1986
     48  NE2      165.6870  136.2310   91.6090 N.ar   76  HIS76      -0.2212
     49  N        167.6290  140.4070   88.8590 N.am   77  ASP77      -0.1974
     50  CA       167.1270  141.6920   89.3300 C.3    77  ASP77       0.1709
     51  C        166.4480  142.4690   88.2110 C.2    77  ASP77       0.2293
     52  O        165.5470  143.2740   88.4760 O.2    77  ASP77      -0.2864
     53  CB       168.2700  142.5100   89.9280 C.3    77  ASP77       0.1436
     54  CG       167.7970  143.8100   90.5430 C.2    77  ASP77       0.3671
     55  OD1      167.1910  143.7680   91.6350 O.co2  77  ASP77      -0.2456
     56  OD2      168.0240  144.8740   89.9300 O.co2  77  ASP77      -0.2456
     57  N        174.3360  119.9450   87.6240 N.3   144  MET144     -0.1230
     58  CA       174.3570  120.7790   88.8150 C.3   144  MET144      0.1702
     59  C        175.6570  121.5690   88.8870 C.2   144  MET144      0.2592
     60  O        175.6460  122.8050   88.8240 O.2   144  MET144     -0.2718
     61  CB       174.1840  119.9260   90.0720 C.3   144  MET144      0.0401
     62  CG       172.8300  119.2570   90.2400 C.3   144  MET144      0.0596
     63  SD       172.8090  118.3660   91.8060 S.3   144  MET144     -0.1393
     64  CE       171.2830  117.4570   91.7500 C.3   144  MET144      0.0692
     65  N        176.7850  120.8490   88.9470 N.am  145  LEU145     -0.1980
     66  CA       178.0620  121.4110   89.3890 C.3   145  LEU145      0.1596
     67  C        178.5650  122.4910   88.4450 C.2   145  LEU145      0.2287
     68  O        178.8790  123.6090   88.8760 O.2   145  LEU145     -0.2864
     69  CB       179.1020  120.3000   89.5050 C.3   145  LEU145      0.0297
     70  CG       178.8540  119.2170   90.5470 C.3   145  LEU145      0.0022
     71  CD1      179.9030  118.1350   90.4150 C.3   145  LEU145      0.0001
     72  CD2      178.8710  119.8100   91.9350 C.3   145  LEU145      0.0001
     73  N        176.8330  124.1610   86.4660 N.3   147  PHE147     -0.1227
     74  CA       175.9070  125.2700   86.6490 C.3   147  PHE147      0.1736
     75  C        176.4480  126.2800   87.6470 C.2   147  PHE147      0.2595
     76  O        176.4830  127.4860   87.3670 O.2   147  PHE147     -0.2718
     77  CB       174.5650  124.7260   87.1070 C.3   147  PHE147      0.0547
     78  CG       173.5730  125.7740   87.4170 C.ar  147  PHE147     -0.0202
     79  CD1      173.0960  126.5930   86.4140 C.ar  147  PHE147     -0.0042
     80  CD2      173.0730  125.9140   88.6980 C.ar  147  PHE147     -0.0042
     81  CE1      172.1740  127.5640   86.6860 C.ar  147  PHE147     -0.0003
     82  CE2      172.1330  126.8730   88.9760 C.ar  147  PHE147     -0.0003
     83  CZ       171.6700  127.6910   87.9610 C.ar  147  PHE147     -0.0000
     84  N        176.9130  125.7880   88.8020 N.am  148  ALA148     -0.1980
     85  CA       177.6650  126.6180   89.7360 C.3   148  ALA148      0.1597
     86  C        178.8950  127.2080   89.0700 C.2   148  ALA148      0.2287
     87  O        179.1740  128.4060   89.2140 O.2   148  ALA148     -0.2864
     88  CB       178.0760  125.7930   90.9480 C.3   148  ALA148      0.0319
     89  N        177.8630  130.2650   87.3030 N.3   151  ILE151     -0.1231
     90  CA       177.4740  131.4320   88.0860 C.3   151  ILE151      0.1692
     91  C        178.6570  131.9740   88.8700 C.2   151  ILE151      0.2592
     92  O        178.7850  133.1900   89.0600 O.2   151  ILE151     -0.2718
     93  CB       176.3060  131.0780   89.0100 C.3   151  ILE151      0.0266
     94  CG1      175.1850  130.4490   88.2090 C.3   151  ILE151      0.0019
     95  CG2      175.7390  132.3180   89.6400 C.3   151  ILE151      0.0020
     96  CD1      174.1600  129.8720   89.0850 C.3   151  ILE151      0.0001
     97  N        179.5510  131.0960   89.3120 N.am  152  HIS152     -0.1976
     98  CA       180.7940  131.5700   89.8960 C.3   152  HIS152      0.1656
     99  C        181.6900  132.2200   88.8500 C.2   152  HIS152      0.2291
    100  O        182.4670  133.1240   89.1810 O.2   152  HIS152     -0.2864
    101  CB       181.4920  130.4180   90.5990 C.3   152  HIS152      0.0771
    102  CG       180.8220  130.0070   91.8670 C.ar  152  HIS152      0.0820
    103  ND1      180.9090  130.7540   93.0190 N.ar  152  HIS152     -0.2267
    104  CD2      180.0500  128.9370   92.1670 C.ar  152  HIS152      0.1154
    105  CE1      180.2160  130.1660   93.9740 C.ar  152  HIS152      0.1986
    106  NE2      179.6910  129.0580   93.4870 N.ar  152  HIS152     -0.2212
    107  N        180.5270  135.3700   89.1900 N.3   155  PHE155     -0.1241
    108  CA       180.7760  135.9940   90.4900 C.3   155  PHE155      0.1605
    109  C        182.1090  136.7290   90.5310 C.2   155  PHE155      0.2264
    110  O        182.1540  137.9560   90.6590 O.2   155  PHE155     -0.2867
    111  CB       180.7220  134.9480   91.6050 C.3   155  PHE155      0.0534
    112  CG       179.3390  134.5380   91.9880 C.ar  155  PHE155     -0.0203
    113  CD1      178.2350  135.2330   91.5200 C.ar  155  PHE155     -0.0042
    114  CD2      179.1460  133.4870   92.8680 C.ar  155  PHE155     -0.0042
    115  CE1      176.9710  134.8620   91.8910 C.ar  155  PHE155     -0.0003
    116  CE2      177.8840  133.1110   93.2440 C.ar  155  PHE155     -0.0003
    117  CZ       176.7960  133.8000   92.7570 C.ar  155  PHE155     -0.0000
@<TRIPOS>BOND
     1    15    14    2
     2    14    13    1
     3    13    12    1
     4    13    16    1
     5    16    17    1
     6    18    17   ar
     7    18    20   ar
     8    17    19   ar
     9    23    24    1
    10    20    22   ar
    11    27    24    1
    12    24    25    1
    13    19    21   ar
    14    22    21   ar
    15    25    28   am
    16    25    26    2
    17    28    29    1
    18    79    81   ar
    19    79    78   ar
    20    73    74    1
    21    74    77    1
    22    74    75    1
    23    81    83   ar
    24    34    35    2
    25    34    33    1
    26    39    40    1
    27    37    38    1
    28    37    36    1
    29    77    78    1
    30    38    32    1
    31    29    30    1
    32    89    90    1
    33    76    75    2
    34    78    80   ar
    35    32    30   am
    36    32    33    1
    37    57    58    1
    38    75    84   am
    39    30    31    2
    40    33    36    1
    41    40    41    1
    42    40    43    1
    43    83    82   ar
    44    90    91    1
    45    90    93    1
    46    94    93    1
    47    94    96    1
    48    51    52    2
    49    51    50    1
    50    67    68    2
    51    67    66    1
    52    41    42    2
    53    41    49   am
    54    80    82   ar
    55    84    85    1
    56    58    59    1
    57    58    61    1
    58    60    59    2
    59    99   100    2
    60    99    98    1
    61    49    50    1
    62    91    92    2
    63    91    97   am
    64    59    65   am
    65    65    66    1
    66    93    95    1
    67    43    44    1
    68    86    87    2
    69    86    85    1
    70   107   108    1
    71    97    98    1
    72    50    53    1
    73    66    69    1
    74    69    70    1
    75    85    88    1
    76    98   101    1
    77    53    54    1
    78    56    54   ar
    79    61    62    1
    80    44    46   ar
    81    44    45   ar
    82    62    63    1
    83    46    48   ar
    84    71    70    1
    85   108   109    1
    86   108   111    1
    87   109   110    2
    88    54    55   ar
    89    70    72    1
    90   101   102    1
    91    45    47   ar
    92   113   115   ar
    93   113   112   ar
    94   111   112    1
    95    48    47   ar
    96    64    63    1
    97   102   104   ar
    98   102   103   ar
    99   115   117   ar
   100   112   114   ar
   101   104   106   ar
   102   117   116   ar
   103   114   116   ar
   104   103   105   ar
   105   106   105   ar
   106     5     6    1
   107     5     2    1
   108     6     8   ar
   109     6     7   ar
   110     8    10   ar
   111     1     2    1
   112     7     9   ar
   113    10    11   ar
   114     9    11   ar
   115     2     3    1
   116     4     3    2
