@<TRIPOS>MOLECULE
tmp/5zgbL04.pdb
 96 99 0 0 0
SMALL
GASTEIGER

@<TRIPOS>ATOM
      1  N        115.4180  158.3590  101.8300 N.3    44  LEU44      -0.1231
      2  CA       116.7220  157.7410  101.9900 C.3    44  LEU44       0.1693
      3  C        116.7510  156.2910  101.5230 C.2    44  LEU44       0.2591
      4  O        117.8370  155.7110  101.4220 O.2    44  LEU44      -0.2718
      5  CB       117.1470  157.8530  103.4680 C.3    44  LEU44       0.0284
      6  CG       118.5490  157.5790  104.0190 C.3    44  LEU44       0.0019
      7  CD1      118.8370  158.5460  105.1470 C.3    44  LEU44       0.0001
      8  CD2      118.6620  156.1610  104.5450 C.3    44  LEU44       0.0001
      9  N        115.6010  155.7170  101.1640 N.am   45  LEU45      -0.1980
     10  CA       115.5090  154.2740  100.9680 C.3    45  LEU45       0.1596
     11  C        116.1160  153.8250   99.6420 C.2    45  LEU45       0.2287
     12  O        116.7300  152.7540   99.5750 O.2    45  LEU45      -0.2864
     13  CB       114.0490  153.8250  101.0700 C.3    45  LEU45       0.0297
     14  CG       113.7730  152.3210  100.9830 C.3    45  LEU45       0.0022
     15  CD1      114.4610  151.5930  102.1140 C.3    45  LEU45       0.0001
     16  CD2      112.2810  152.0240  100.9900 C.3    45  LEU45       0.0001
     17  N        118.6880  153.6690   97.8300 N.3    47  GLN47      -0.1231
     18  CA       120.1490  153.5700   97.7560 C.3    47  GLN47       0.1698
     19  C        120.8070  154.9500   97.8740 C.2    47  GLN47       0.2592
     20  O        121.3540  155.5200   96.9280 O.2    47  GLN47      -0.2718
     21  CB       120.5920  152.8180   96.4950 C.3    47  GLN47       0.0381
     22  CG       122.0580  152.4230   96.5300 C.3    47  GLN47       0.0905
     23  CD       122.4090  151.6620   97.7960 C.2    47  GLN47       0.2608
     24  OE1      123.0520  152.2000   98.7010 O.2    47  GLN47      -0.2717
     25  NE2      121.9750  150.4110   97.8720 N.am   47  GLN47      -0.0878
     26  N        120.6730  155.5000   99.0740 N.am   48  TYR48      -0.1963
     27  CA       121.2840  156.7710   99.4110 C.3    48  TYR48       0.1756
     28  C        122.3410  156.5570  100.4800 C.2    48  TYR48       0.2461
     29  O        122.0150  156.0880  101.5810 O.2    48  TYR48      -0.2730
     30  CB       120.2280  157.7600   99.8910 C.3    48  TYR48       0.0574
     31  CG       119.2900  158.1980   98.7970 C.ar   48  TYR48      -0.0198
     32  CD1      119.6340  159.2340   97.9400 C.ar   48  TYR48      -0.0009
     33  CD2      118.0720  157.5590   98.6030 C.ar   48  TYR48      -0.0009
     34  CE1      118.7790  159.6360   96.9310 C.ar   48  TYR48       0.0417
     35  CE2      117.2110  157.9510   97.5990 C.ar   48  TYR48       0.0417
     36  CZ       117.5710  158.9890   96.7660 C.ar   48  TYR48       0.1957
     37  OH       116.7190  159.3830   95.7630 O.3    48  TYR48      -0.2866
     38  N        123.6070  156.8710  100.2070 N.am   49  PRO49      -0.2716
     39  CA       124.6450  156.7990  101.2400 C.3    49  PRO49       0.1536
     40  C        124.6780  157.9860  102.1900 C.2    49  PRO49       0.2599
     41  O        125.6550  158.1380  102.9260 O.2    49  PRO49      -0.2715
     42  CB       125.9360  156.7370  100.4130 C.3    49  PRO49       0.0310
     43  CG       125.6030  157.4610   99.1660 C.3    49  PRO49       0.0237
     44  CD       124.1670  157.1530   98.8750 C.3    49  PRO49       0.0939
     45  N        123.6500  158.8310  102.1880 N.am   50  THR50      -0.1937
     46  CA       123.5350  159.9310  103.1360 C.3    50  THR50       0.2028
     47  C        122.9800  159.4410  104.4680 C.2    50  THR50       0.2643
     48  O        123.0100  158.2430  104.7660 O.2    50  THR50      -0.2714
     49  CB       122.6510  161.0460  102.5710 C.3    50  THR50       0.1808
     50  OG1      121.3250  160.5480  102.3520 O.3    50  THR50      -0.2208
     51  CG2      123.2180  161.5590  101.2530 C.3    50  THR50       0.0379
     52  N        122.4820  160.3650  105.2760 N.am   51  GLY51      -0.1940
     53  CA       122.0170  160.0640  106.6100 C.3    51  GLY51       0.1999
     54  C        123.0890  160.1350  107.6840 C.2    51  GLY51       0.2481
     55  O        123.3560  159.1430  108.3670 O.2    51  GLY51      -0.2729
     56  N        123.7320  161.3250  107.8750 N.am   52  PRO52      -0.2715
     57  CA       124.8210  161.4100  108.8560 C.3    52  PRO52       0.1536
     58  C        124.3060  161.4660  110.2820 C.2    52  PRO52       0.2598
     59  O        123.1160  161.2680  110.5290 O.2    52  PRO52      -0.2715
     60  CB       125.5290  162.7110  108.4740 C.3    52  PRO52       0.0310
     61  CG       124.4330  163.5610  107.9900 C.3    52  PRO52       0.0237
     62  CD       123.4450  162.6570  107.3050 C.3    52  PRO52       0.0939
     63  N        125.1980  161.7360  111.2350 N.am   53  LYS53      -0.1978
     64  CA       124.7860  161.8020  112.6310 C.3    53  LYS53       0.1596
     65  C        123.8960  163.0020  112.9300 C.2    53  LYS53       0.2287
     66  O        123.1710  162.9800  113.9290 O.2    53  LYS53      -0.2864
     67  CB       126.0200  161.8090  113.5340 C.3    53  LYS53       0.0298
     68  CG       126.9170  160.5640  113.4160 C.3    53  LYS53       0.0038
     69  CD       126.2980  159.3160  114.0590 C.3    53  LYS53       0.0206
     70  CE       125.6870  158.3300  113.0570 C.3    53  LYS53       0.1093
     71  NZ       125.1050  157.1390  113.7400 N.3    53  LYS53      -0.1314
     72  N        115.6210  160.6290  111.0170 N.3    58  PHE58      -0.1227
     73  CA       115.8570  159.2240  110.7260 C.3    58  PHE58       0.1736
     74  C        116.4730  158.5090  111.9200 C.2    58  PHE58       0.2595
     75  O        115.9210  157.5170  112.4060 O.2    58  PHE58      -0.2718
     76  CB       116.7600  159.0580  109.5050 C.3    58  PHE58       0.0547
     77  CG       117.0280  157.6300  109.1680 C.ar   58  PHE58      -0.0202
     78  CD1      116.0420  156.8580  108.5800 C.ar   58  PHE58      -0.0042
     79  CD2      118.2490  157.0490  109.4600 C.ar   58  PHE58      -0.0042
     80  CE1      116.2720  155.5360  108.2770 C.ar   58  PHE58      -0.0003
     81  CE2      118.4840  155.7280  109.1620 C.ar   58  PHE58      -0.0003
     82  CZ       117.4960  154.9710  108.5660 C.ar   58  PHE58      -0.0000
     83  N        117.6240  158.9960  112.3880 N.am   59  TRP59      -0.1976
     84  CA       118.3740  158.2790  113.4130 C.3    59  TRP59       0.1640
     85  C        117.6700  158.3170  114.7580 C.2    59  TRP59       0.2290
     86  O        117.7050  157.3340  115.5040 O.2    59  TRP59      -0.2864
     87  CB       119.7770  158.8550  113.5410 C.3    59  TRP59       0.0576
     88  CG       120.6420  158.5280  112.4000 C.ar   59  TRP59       0.0006
     89  CD1      120.8850  159.3010  111.3110 C.ar   59  TRP59       0.0946
     90  CD2      121.3930  157.3310  112.2220 C.ar   59  TRP59       0.0152
     91  NE1      121.7480  158.6600  110.4570 N.ar   59  TRP59      -0.2442
     92  CE2      122.0730  157.4440  110.9970 C.ar   59  TRP59       0.0810
     93  CE3      121.5560  156.1720  112.9800 C.ar   59  TRP59       0.0012
     94  CZ2      122.9040  156.4440  110.5140 C.ar   59  TRP59       0.0191
     95  CZ3      122.3790  155.1820  112.5000 C.ar   59  TRP59       0.0001
     96  CH2      123.0450  155.3230  111.2810 C.ar   59  TRP59       0.0015
@<TRIPOS>BOND
     1    37    36    1
     2    21    22    1
     3    21    18    1
     4    22    23    1
     5    36    34   ar
     6    36    35   ar
     7    20    19    2
     8    34    32   ar
     9    35    33   ar
    10    18    17    1
    11    18    19    1
    12    23    25   am
    13    23    24    2
    14    19    26   am
    15    32    31   ar
    16    33    31   ar
    17    31    30    1
    18    44    43    1
    19    44    38    1
    20    26    27    1
    21    43    42    1
    22    27    30    1
    23    27    28    1
    24    12    11    2
    25    11    10    1
    26    38    28   am
    27    38    39    1
    28    42    39    1
    29    28    29    2
    30    10    13    1
    31    10     9    1
    32    14    16    1
    33    14    13    1
    34    14    15    1
    35     9     3   am
    36    39    40    1
    37    51    49    1
    38     4     3    2
    39     3     2    1
    40     1     2    1
    41     2     5    1
    42    45    40   am
    43    45    46    1
    44    40    41    2
    45    50    49    1
    46    49    46    1
    47    46    47    1
    48     5     6    1
    49     6     8    1
    50     6     7    1
    51    47    48    2
    52    47    52   am
    53    52    53    1
    54    53    54    1
    55    62    56    1
    56    62    61    1
    57    54    56   am
    58    54    55    2
    59    56    57    1
    60    61    60    1
    61    80    82   ar
    62    80    78   ar
    63    60    57    1
    64    82    81   ar
    65    78    77   ar
    66    57    58    1
    67    81    79   ar
    68    77    79   ar
    69    77    76    1
    70    76    73    1
    71    58    59    2
    72    58    63   am
    73    91    92   ar
    74    91    89   ar
    75    94    92   ar
    76    94    96   ar
    77    73    72    1
    78    73    74    1
    79    92    90   ar
    80    63    64    1
    81    96    95   ar
    82    89    88   ar
    83    74    83   am
    84    74    75    2
    85    90    88   ar
    86    90    93   ar
    87    83    84    1
    88    88    87    1
    89    95    93   ar
    90    64    65    1
    91    64    67    1
    92    65    66    2
    93    70    71    1
    94    70    69    1
    95    84    87    1
    96    84    85    1
    97    68    67    1
    98    68    69    1
    99    85    86    2
