@<TRIPOS>MOLECULE
tmp/5zgbP13.pdb
 161 154 0 0 0
SMALL
GASTEIGER

@<TRIPOS>ATOM
      1  N        167.0430  118.1530   87.6580 N.3    45  ARG45      -0.1245
      2  CA       166.2710  118.5500   86.4920 C.3    45  ARG45       0.1563
      3  C        166.1070  120.0610   86.4270 C.2    45  ARG45       0.2260
      4  O        166.1740  120.6440   85.3390 O.2    45  ARG45      -0.2867
      5  CB       164.9230  117.8340   86.5080 C.3    45  ARG45       0.0307
      6  CG       165.0880  116.3310   86.3730 C.3    45  ARG45       0.0489
      7  CD       163.7990  115.5750   86.5840 C.3    45  ARG45       0.2205
      8  NE       163.1990  115.8480   87.8820 N.pl3  45  ARG45      -0.0865
      9  CZ       162.0450  115.3270   88.2870 C.cat  45  ARG45       0.5346
     10  NH1      161.3910  114.4730   87.5100 N.pl3  45  ARG45       0.1354
     11  NH2      161.5620  115.6290   89.4840 N.pl3  45  ARG45       0.1354
     12  N        169.3080  121.4290   85.6330 N.3    48  MET48      -0.1230
     13  CA       169.5720  121.0290   84.2620 C.3    48  MET48       0.1702
     14  C        168.9470  122.0220   83.2900 C.2    48  MET48       0.2592
     15  O        169.5920  122.4690   82.3310 O.2    48  MET48      -0.2718
     16  CB       169.0060  119.6300   84.0470 C.3    48  MET48       0.0401
     17  CG       169.6750  118.8600   82.9760 C.3    48  MET48       0.0596
     18  SD       168.8020  117.3780   82.4950 S.3    48  MET48      -0.1393
     19  CE       168.8030  116.4330   83.9990 C.3    48  MET48       0.0692
     20  N        167.6870  122.3880   83.5330 N.am   49  LEU49      -0.1980
     21  CA       167.0440  123.4170   82.7280 C.3    49  LEU49       0.1596
     22  C        167.6790  124.7790   82.9490 C.2    49  LEU49       0.2287
     23  O        167.7320  125.5940   82.0220 O.2    49  LEU49      -0.2864
     24  CB       165.5600  123.4910   83.0570 C.3    49  LEU49       0.0297
     25  CG       164.7290  122.2620   82.7210 C.3    49  LEU49       0.0022
     26  CD1      163.2970  122.4860   83.1640 C.3    49  LEU49       0.0001
     27  CD2      164.8080  121.9570   81.2380 C.3    49  LEU49       0.0001
     28  N        151.4410  118.0260   89.8860 N.3    99  LEU99      -0.1245
     29  CA       152.5670  117.0980   89.7930 C.3    99  LEU99       0.1561
     30  C        152.6380  116.1610   90.9910 C.2    99  LEU99       0.2260
     31  O        152.5120  114.9390   90.8500 O.2    99  LEU99      -0.2867
     32  CB       153.8740  117.8760   89.6400 C.3    99  LEU99       0.0270
     33  CG       154.4190  118.1030   88.2260 C.3    99  LEU99       0.0019
     34  CD1      153.5380  118.9560   87.3440 C.3    99  LEU99       0.0001
     35  CD2      155.7950  118.7260   88.3410 C.3    99  LEU99       0.0001
     36  N        154.4930  105.0370   93.1220 N.3   113  GLY113     -0.1225
     37  CA       154.8610  104.4850   91.8350 C.3   113  GLY113      0.1811
     38  C        156.3260  104.1620   91.6450 C.2   113  GLY113      0.2280
     39  O        156.8660  104.4030   90.5590 O.2   113  GLY113     -0.2866
     40  N        159.1940  105.1390   91.8750 N.3   115  LYS115     -0.1231
     41  CA       160.2010  106.0050   91.3300 C.3   115  LYS115      0.1678
     42  C        159.8430  107.4440   91.6650 C.2   115  LYS115      0.2434
     43  O        158.6680  107.8300   91.5690 O.2   115  LYS115     -0.2733
     44  CB       160.3160  105.8280   89.8070 C.3   115  LYS115      0.0284
     45  CG       161.2600  106.8070   89.1210 C.3   115  LYS115      0.0035
     46  CD       162.7110  106.5790   89.5130 C.3   115  LYS115      0.0206
     47  CE       163.6200  107.6110   88.8590 C.3   115  LYS115      0.1093
     48  NZ       163.3460  108.9840   89.3750 N.3   115  LYS115     -0.1314
     49  N        160.8190  108.2490   92.0720 N.am  116  PRO116     -0.2718
     50  CA       160.6050  109.6990   92.1320 C.3   116  PRO116      0.1535
     51  C        160.4340  110.3400   90.7610 C.2   116  PRO116      0.2599
     52  O        161.3320  111.0250   90.2620 O.2   116  PRO116     -0.2715
     53  CB       161.8780  110.1960   92.8160 C.3   116  PRO116      0.0310
     54  CG       162.3260  109.0570   93.6370 C.3   116  PRO116      0.0237
     55  CD       162.0100  107.8430   92.8360 C.3   116  PRO116      0.0939
     56  N        159.2770  110.1120   90.1490 N.am  117  GLY117     -0.1941
     57  CA       158.8930  110.7250   88.8970 C.3   117  GLY117      0.2014
     58  C        157.3850  110.8000   88.8700 C.2   117  GLY117      0.2638
     59  O        156.7120  109.7930   89.1020 O.2   117  GLY117     -0.2714
     60  N        156.8350  111.9780   88.6070 N.am  118  GLU118     -0.1977
     61  CA       155.4260  112.2410   88.8570 C.3   118  GLU118      0.1602
     62  C        154.6120  112.2100   87.5680 C.2   118  GLU118      0.2287
     63  O        155.0190  112.7800   86.5490 O.2   118  GLU118     -0.2864
     64  CB       155.2560  113.5710   89.5960 C.3   118  GLU118      0.0415
     65  CG       155.8650  114.7850   88.9220 C.3   118  GLU118      0.1163
     66  CD       157.3010  115.0410   89.3480 C.2   118  GLU118      0.3649
     67  OE1      157.9230  114.1350   89.9420 O.co2 118  GLU118     -0.2457
     68  OE2      157.8070  116.1520   89.0870 O.co2 118  GLU118     -0.2457
     69  N        154.1560  110.4390   85.1430 N.3   120  GLY120     -0.1210
     70  CA       154.6690  109.9040   83.9050 C.3   120  GLY120      0.1956
     71  C        154.6630  110.9310   82.7950 C.2   120  GLY120      0.2612
     72  O        154.0360  110.7130   81.7540 O.2   120  GLY120     -0.2717
     73  N        155.3460  112.0570   83.0050 N.am  121  PHE121     -0.1962
     74  CA       155.4980  113.0260   81.9280 C.3   121  PHE121      0.1771
     75  C        156.4200  112.4500   80.8730 C.2   121  PHE121      0.2619
     76  O        157.6450  112.5740   80.9670 O.2   121  PHE121     -0.2715
     77  CB       156.0510  114.3620   82.4270 C.3   121  PHE121      0.0574
     78  CG       155.0190  115.2640   83.0360 C.ar  121  PHE121     -0.0200
     79  CD1      153.6650  115.0110   82.8700 C.ar  121  PHE121     -0.0042
     80  CD2      155.4040  116.3880   83.7480 C.ar  121  PHE121     -0.0042
     81  CE1      152.7130  115.8510   83.4220 C.ar  121  PHE121     -0.0003
     82  CE2      154.4590  117.2320   84.3030 C.ar  121  PHE121     -0.0003
     83  CZ       153.1130  116.9620   84.1400 C.ar  121  PHE121     -0.0000
     84  N        155.8310  111.8140   79.8750 N.am  122  ASN122     -0.1972
     85  CA       156.5920  111.1590   78.8280 C.3   122  ASN122      0.1688
     86  C        155.7250  111.0190   77.5830 C.2   122  ASN122      0.2292
     87  O        155.2180  109.9240   77.3070 O.2   122  ASN122     -0.2864
     88  CB       157.0660  109.7890   79.3080 C.3   122  ASN122      0.1181
     89  CG       158.1500  109.2150   78.4410 C.2   122  ASN122      0.2629
     90  OD1      158.6240  109.8600   77.5070 O.2   122  ASN122     -0.2716
     91  ND2      158.5410  107.9820   78.7300 N.am  122  ASN122     -0.0877
     92  N        161.7930  105.3110   75.7500 N.3   127  PRO127     -0.2102
     93  CA       162.1890  104.5030   76.9130 C.3   127  PRO127      0.1504
     94  C        161.1960  104.5810   78.0630 C.2   127  PRO127      0.2576
     95  O        160.5460  105.6090   78.2700 O.2   127  PRO127     -0.2718
     96  CB       163.5430  105.1000   77.3060 C.3   127  PRO127      0.0282
     97  CG       163.4060  106.5050   76.9760 C.3   127  PRO127      0.0208
     98  CD       162.5220  106.6010   75.7680 C.3   127  PRO127      0.0893
     99  N        161.0570  103.4910   78.8050 N.am  128  ASN128     -0.1961
    100  CA       160.3170  103.4900   80.0590 C.3   128  ASN128      0.1819
    101  C        161.2960  103.7280   81.2110 C.2   128  ASN128      0.2621
    102  O        162.4290  104.1670   80.9950 O.2   128  ASN128     -0.2715
    103  CB       159.4970  102.1980   80.1840 C.3   128  ASN128      0.1195
    104  CG       160.3370  100.9340   80.0470 C.2   128  ASN128      0.2630
    105  OD1      161.5640  100.9770   79.9430 O.2   128  ASN128     -0.2716
    106  ND2      159.6630   99.7910   80.0370 N.am  128  ASN128     -0.0877
    107  N        160.8800  103.4490   82.4490 N.am  129  ASP129     -0.1971
    108  CA       161.7530  103.5910   83.6180 C.3   129  ASP129      0.1709
    109  C        162.7400  102.4200   83.6850 C.2   129  ASP129      0.2293
    110  O        162.6810  101.5470   84.5530 O.2   129  ASP129     -0.2864
    111  CB       160.9220  103.6910   84.8890 C.3   129  ASP129      0.1436
    112  CG       160.1270  104.9750   84.9630 C.2   129  ASP129      0.3671
    113  OD1      160.5710  105.9850   84.3770 O.co2 129  ASP129     -0.2456
    114  OD2      159.0580  104.9750   85.6080 O.co2 129  ASP129     -0.2456
    115  N        167.9060  103.9030   81.8740 N.3   132  MET132     -0.1230
    116  CA       167.9670  105.3040   81.4610 C.3   132  MET132      0.1702
    117  C        167.9060  106.2380   82.6630 C.2   132  MET132      0.2592
    118  O        168.5340  107.3060   82.6590 O.2   132  MET132     -0.2718
    119  CB       166.8130  105.6060   80.5050 C.3   132  MET132      0.0401
    120  CG       166.8200  106.9850   79.8710 C.3   132  MET132      0.0596
    121  SD       168.1270  107.1780   78.6530 S.3   132  MET132     -0.1393
    122  CE       167.4900  106.1660   77.3190 C.3   132  MET132      0.0692
    123  N        167.1240  105.8550   83.6850 N.am  133  ARG133     -0.1980
    124  CA       167.1540  106.5040   84.9940 C.3   133  ARG133      0.1597
    125  C        168.5730  106.6190   85.5210 C.2   133  ARG133      0.2287
    126  O        168.9890  107.6920   85.9710 O.2   133  ARG133     -0.2864
    127  CB       166.3070  105.7070   85.9840 C.3   133  ARG133      0.0334
    128  CG       164.8370  105.6520   85.6610 C.3   133  ARG133      0.0492
    129  CD       164.0970  104.7470   86.6130 C.3   133  ARG133      0.2205
    130  NE       164.4640  103.3500   86.4360 N.pl3 133  ARG133     -0.0865
    131  CZ       164.0570  102.3710   87.2350 C.cat 133  ARG133      0.5346
    132  NH1      164.4340  101.1210   87.0040 N.pl3 133  ARG133      0.1354
    133  NH2      163.2670  102.6440   88.2640 N.pl3 133  ARG133      0.1354
    134  N        171.2240  106.8140   83.8130 N.3   135  ARG135     -0.1231
    135  CA       171.9420  107.8260   83.0610 C.3   135  ARG135      0.1694
    136  C        171.1830  109.1390   82.9890 C.2   135  ARG135      0.2591
    137  O        171.6220  110.0570   82.2910 O.2   135  ARG135     -0.2718
    138  CB       172.2900  107.3150   81.6610 C.3   135  ARG135      0.0321
    139  CG       171.1410  107.0790   80.7310 C.3   135  ARG135      0.0489
    140  CD       171.6390  106.4390   79.4550 C.3   135  ARG135      0.2205
    141  NE       172.1620  105.0980   79.6910 N.pl3 135  ARG135     -0.0865
    142  CZ       172.8010  104.3750   78.7770 C.cat 135  ARG135      0.5346
    143  NH1      172.9960  104.8640   77.5610 N.pl3 135  ARG135      0.1354
    144  NH2      173.2450  103.1630   79.0760 N.pl3 135  ARG135      0.1354
    145  N        170.0620  109.2580   83.7010 N.am  136  GLU136     -0.1979
    146  CA       169.4830  110.5830   83.8850 C.3   136  GLU136      0.1602
    147  C        170.2350  111.3510   84.9570 C.2   136  GLU136      0.2287
    148  O        170.6100  112.5120   84.7490 O.2   136  GLU136     -0.2864
    149  CB       168.0060  110.4910   84.2620 C.3   136  GLU136      0.0415
    150  CG       167.3950  111.8610   84.5400 C.3   136  GLU136      0.1163
    151  CD       165.9310  111.8010   84.9180 C.2   136  GLU136      0.3649
    152  OE1      165.3800  110.6840   84.9870 O.co2 136  GLU136     -0.2457
    153  OE2      165.3290  112.8730   85.1430 O.co2 136  GLU136     -0.2457
    154  N        173.4650  112.9920   84.2260 N.3   139  ASN139     -0.1240
    155  CA       173.1340  114.1490   83.4040 C.3   139  ASN139      0.1653
    156  C        172.3870  115.2300   84.1700 C.2   139  ASN139      0.2266
    157  O        172.1270  116.2910   83.5980 O.2   139  ASN139     -0.2867
    158  CB       172.3140  113.7080   82.1960 C.3   139  ASN139      0.1155
    159  CG       173.1450  112.9650   81.1750 C.2   139  ASN139      0.2627
    160  OD1      174.2370  113.3980   80.8100 O.2   139  ASN139     -0.2716
    161  ND2      172.6440  111.8240   80.7300 N.am  139  ASN139     -0.0877
@<TRIPOS>BOND
     1    92    98    1
     2    92    93    1
     3    98    97    1
     4    93    96    1
     5    93    94    1
     6    97    96    1
     7    87    86    2
     8   122   121    1
     9    90    89    2
    10   143   142    1
    11    86    85    1
    12    94    95    2
    13    94    99   am
    14    89    91   am
    15    89    88    1
    16   121   120    1
    17   142   144    1
    18   142   141    2
    19    99   100    1
    20    85    88    1
    21    85    84    1
    22   140   141    1
    23   140   139    1
    24   120   119    1
    25    84    75   am
    26   105   104    2
    27   106   104   am
    28   104   103    1
    29   100   103    1
    30   100   101    1
    31   119   116    1
    32   161   159   am
    33   139   138    1
    34   160   159    2
    35    75    76    2
    36    75    74    1
    37   102   101    2
    38   159   158    1
    39   101   107   am
    40    27    25    1
    41   116   115    1
    42   116   117    1
    43   138   135    1
    44    72    71    2
    45    74    77    1
    46    74    73    1
    47    23    22    2
    48   158   155    1
    49   137   136    2
    50    15    14    2
    51    77    78    1
    52   107   108    1
    53    18    17    1
    54    18    19    1
    55   118   117    2
    56   117   123   am
    57    25    24    1
    58    25    26    1
    59    21    22    1
    60    21    24    1
    61    21    20    1
    62    71    73   am
    63    71    70    1
    64    79    78   ar
    65    79    81   ar
    66    17    16    1
    67   136   135    1
    68   136   145   am
    69    78    80   ar
    70   135   134    1
    71    14    20   am
    72    14    13    1
    73   155   156    1
    74   155   154    1
    75    81    83   ar
    76   157   156    2
    77   108   109    1
    78   108   111    1
    79   123   124    1
    80   109   110    2
    81   145   146    1
    82    80    82   ar
    83   146   149    1
    84   146   147    1
    85    70    69    1
    86    16    13    1
    87    83    82   ar
    88    13    12    1
    89   149   150    1
    90   113   112   ar
    91   150   151    1
    92   148   147    2
    93   111   112    1
    94   151   152   ar
    95   151   153   ar
    96   112   114   ar
    97   124   125    1
    98   124   127    1
    99     4     3    2
   100   125   126    2
   101   128   127    1
   102   128   129    1
   103     6     5    1
   104     6     7    1
   105     3     2    1
   106   130   129    1
   107   130   131    2
   108     2     5    1
   109     2     1    1
   110    63    62    2
   111     7     8    1
   112   132   131    1
   113   131   133    1
   114    34    33    1
   115    10     9    1
   116    62    61    1
   117     8     9    2
   118    33    35    1
   119    33    32    1
   120     9    11    1
   121    60    61    1
   122    60    58   am
   123    61    64    1
   124    47    48    1
   125    47    46    1
   126    58    57    1
   127    58    59    2
   128    57    56    1
   129    65    66    1
   130    65    64    1
   131    68    66   ar
   132    45    46    1
   133    45    44    1
   134    66    67   ar
   135    32    29    1
   136    29    28    1
   137    29    30    1
   138    44    41    1
   139    56    51   am
   140    52    51    2
   141    39    38    2
   142    51    50    1
   143    31    30    2
   144    41    42    1
   145    41    40    1
   146    43    42    2
   147    38    37    1
   148    42    49   am
   149    37    36    1
   150    49    50    1
   151    49    55    1
   152    50    53    1
   153    53    54    1
   154    55    54    1
