@<TRIPOS>MOLECULE
tmp/5zgbJ05.pdb
 84 80 0 0 0
SMALL
GASTEIGER

@<TRIPOS>ATOM
      1  N        142.8410  141.8340  104.7430 N.3    43  PHE43      -0.1241
      2  CA       144.1790  142.1700  104.2800 C.3    43  PHE43       0.1605
      3  C        144.1700  143.1570  103.1380 C.2    43  PHE43       0.2264
      4  O        145.1840  143.8220  102.9090 O.2    43  PHE43      -0.2867
      5  CB       144.9270  140.9150  103.8380 C.3    43  PHE43       0.0534
      6  CG       145.3230  140.0260  104.9660 C.ar   43  PHE43      -0.0203
      7  CD1      146.4830  140.2670  105.6740 C.ar   43  PHE43      -0.0042
      8  CD2      144.5320  138.9570  105.3290 C.ar   43  PHE43      -0.0042
      9  CE1      146.8520  139.4470  106.7130 C.ar   43  PHE43      -0.0003
     10  CE2      144.8950  138.1370  106.3680 C.ar   43  PHE43      -0.0003
     11  CZ       146.0540  138.3840  107.0610 C.ar   43  PHE43      -0.0000
     12  N        145.5240  146.0290  105.1950 N.3    47  GLY47      -0.1210
     13  CA       146.8750  145.5380  105.1980 C.3    47  GLY47       0.1940
     14  C        147.9090  146.6440  105.0310 C.2    47  GLY47       0.2454
     15  O        147.5880  147.8360  105.0130 O.2    47  GLY47      -0.2732
     16  N        149.1800  146.2480  104.9160 N.am   48  PRO48      -0.2717
     17  CA       150.2380  147.2510  104.7600 C.3    48  PRO48       0.1535
     18  C        150.3530  147.8050  103.3570 C.2    48  PRO48       0.2598
     19  O        150.8850  148.9090  103.1910 O.2    48  PRO48      -0.2715
     20  CB       151.5040  146.4830  105.1410 C.3    48  PRO48       0.0310
     21  CG       151.1960  145.0910  104.7690 C.3    48  PRO48       0.0237
     22  CD       149.7310  144.8900  105.0350 C.3    48  PRO48       0.0939
     23  N        149.8840  147.0820  102.3470 N.am   49  LEU49      -0.1978
     24  CA       149.9640  147.5250  100.9640 C.3    49  LEU49       0.1596
     25  C        148.6030  147.9640  100.4450 C.2    49  LEU49       0.2287
     26  O        148.2860  147.7760   99.2700 O.2    49  LEU49      -0.2864
     27  CB       150.5390  146.4200  100.0870 C.3    49  LEU49       0.0297
     28  CG       151.9630  146.0210  100.4610 C.3    49  LEU49       0.0022
     29  CD1      152.4320  144.8690   99.5980 C.3    49  LEU49       0.0001
     30  CD2      152.9020  147.2050  100.3450 C.3    49  LEU49       0.0001
     31  N        146.6550  142.1330   95.4750 N.3    57  LEU57      -0.1231
     32  CA       147.6250  141.0490   95.3650 C.3    57  LEU57       0.1693
     33  C        148.2200  140.6980   96.7240 C.2    57  LEU57       0.2591
     34  O        148.5120  139.5250   96.9980 O.2    57  LEU57      -0.2718
     35  CB       148.7030  141.4440   94.3570 C.3    57  LEU57       0.0284
     36  CG       149.7910  140.4670   93.9220 C.3    57  LEU57       0.0019
     37  CD1      150.0810  140.6910   92.4530 C.3    57  LEU57       0.0001
     38  CD2      151.0670  140.6840   94.7230 C.3    57  LEU57       0.0001
     39  N        148.3980  141.7000   97.5910 N.am   58  ALA58      -0.1980
     40  CA       148.8330  141.4430   98.9580 C.3    58  ALA58       0.1597
     41  C        147.7830  140.6890   99.7550 C.2    58  ALA58       0.2287
     42  O        148.1300  140.0140  100.7300 O.2    58  ALA58      -0.2864
     43  CB       149.1740  142.7510   99.6690 C.3    58  ALA58       0.0319
     44  N        148.7780  137.0200   98.5850 N.3    61  LEU61      -0.1231
     45  CA       150.0080  136.4830   99.1530 C.3    61  LEU61       0.1693
     46  C        149.9560  136.4440  100.6720 C.2    61  LEU61       0.2592
     47  O        150.4830  135.5080  101.2860 O.2    61  LEU61      -0.2718
     48  CB       151.2120  137.2860   98.6720 C.3    61  LEU61       0.0284
     49  CG       151.8420  136.8470   97.3450 C.3    61  LEU61       0.0019
     50  CD1      151.0140  137.2260   96.1230 C.3    61  LEU61       0.0001
     51  CD2      153.2510  137.3980   97.2320 C.3    61  LEU61       0.0001
     52  N        149.2770  137.4090  101.2880 N.am   62  SER62      -0.1952
     53  CA       149.1210  137.3830  102.7360 C.3    62  SER62       0.1924
     54  C        148.1480  136.2960  103.1680 C.2    62  SER62       0.2314
     55  O        148.4160  135.5620  104.1260 O.2    62  SER62      -0.2863
     56  CB       148.6430  138.7420  103.2260 C.3    62  SER62       0.2116
     57  OG       147.3510  139.0040  102.7190 O.3    62  SER62      -0.2180
     58  N        146.9780  133.4980  101.5110 N.3    64  ILE64      -0.1231
     59  CA       147.5700  132.1830  101.2780 C.3    64  ILE64       0.1692
     60  C        148.7570  131.9670  102.2090 C.2    64  ILE64       0.2592
     61  O        149.0240  130.8340  102.6420 O.2    64  ILE64      -0.2718
     62  CB       147.9440  132.0480   99.7860 C.3    64  ILE64       0.0266
     63  CG1      146.6830  132.1270   98.9350 C.3    64  ILE64       0.0019
     64  CG2      148.6180  130.7280   99.4760 C.3    64  ILE64       0.0020
     65  CD1      146.9630  132.3120   97.4730 C.3    64  ILE64       0.0001
     66  N        149.4470  133.0540  102.5780 N.am   65  GLY65      -0.1957
     67  CA       150.4450  132.9770  103.6340 C.3    65  GLY65       0.1869
     68  C        149.8810  132.5000  104.9610 C.2    65  GLY65       0.2309
     69  O        150.5450  131.7680  105.6950 O.2    65  GLY65      -0.2863
     70  N        148.7440  128.3330  104.1740 N.3    68  VAL68      -0.1231
     71  CA       149.7310  127.2610  104.2890 C.3    68  VAL68       0.1692
     72  C        150.1130  127.0130  105.7460 C.2    68  VAL68       0.2591
     73  O        150.4190  125.8760  106.1300 O.2    68  VAL68      -0.2718
     74  CB       150.9650  127.5590  103.4170 C.3    68  VAL68       0.0266
     75  CG1      150.5860  127.5150  101.9550 C.3    68  VAL68       0.0020
     76  CG2      151.5570  128.9140  103.7530 C.3    68  VAL68       0.0020
     77  N        150.0510  128.0470  106.5870 N.am   69  ILE69      -0.1980
     78  CA       150.2930  127.8640  108.0110 C.3    69  ILE69       0.1595
     79  C        149.1350  127.1090  108.6500 C.2    69  ILE69       0.2287
     80  O        149.3380  126.2260  109.4920 O.2    69  ILE69      -0.2864
     81  CB       150.5360  129.2300  108.6770 C.3    69  ILE69       0.0276
     82  CG1      151.8280  129.8450  108.1520 C.3    69  ILE69       0.0022
     83  CG2      150.6040  129.1180  110.1800 C.3    69  ILE69       0.0022
     84  CD1      152.0390  131.2630  108.6090 C.3    69  ILE69       0.0001
@<TRIPOS>BOND
     1    37    36    1
     2    36    35    1
     3    36    38    1
     4    35    32    1
     5    32    31    1
     6    32    33    1
     7    50    49    1
     8    33    34    2
     9    33    39   am
    10    51    49    1
    11    49    48    1
    12    65    63    1
    13    39    40    1
    14    44    45    1
    15    48    45    1
    16    63    62    1
    17    40    43    1
    18    40    41    1
    19    45    46    1
    20    26    25    2
    21    64    62    1
    22    29    28    1
    23    41    42    2
    24    62    59    1
    25    27    28    1
    26    27    24    1
    27    30    28    1
    28    25    24    1
    29    46    47    2
    30    46    52   am
    31    24    23    1
    32    59    58    1
    33    59    60    1
    34    52    53    1
    35    75    74    1
    36    60    66   am
    37    60    61    2
    38    23    18   am
    39    66    67    1
    40    57    56    1
    41    53    54    1
    42    53    56    1
    43     4     3    2
    44     3     2    1
    45    54    55    2
    46    19    18    2
    47    18    17    1
    48    74    76    1
    49    74    71    1
    50    67    68    1
    51     5     2    1
    52     5     6    1
    53    70    71    1
    54     2     1    1
    55    71    72    1
    56    17    16    1
    57    17    20    1
    58    21    22    1
    59    21    20    1
    60    16    14   am
    61    16    22    1
    62    68    69    2
    63     6     8   ar
    64     6     7   ar
    65    15    14    2
    66    14    13    1
    67    12    13    1
    68     8    10   ar
    69     7     9   ar
    70    72    73    2
    71    72    77   am
    72    10    11   ar
    73    77    78    1
    74     9    11   ar
    75    78    79    1
    76    78    81    1
    77    82    84    1
    78    82    81    1
    79    79    80    2
    80    81    83    1
