@<TRIPOS>MOLECULE
tmp/5zgbP00.pdb
 92 87 0 0 0
SMALL
GASTEIGER

@<TRIPOS>ATOM
      1  N        176.1850  116.3650   86.7910 N.3   142  LEU142     -0.1245
      2  CA       177.0470  117.2460   86.0150 C.3   142  LEU142      0.1561
      3  C        176.3340  118.5380   85.6540 C.2   142  LEU142      0.2260
      4  O        176.9510  119.6090   85.6480 O.2   142  LEU142     -0.2867
      5  CB       177.5240  116.5230   84.7580 C.3   142  LEU142      0.0270
      6  CG       178.4080  117.3210   83.8040 C.3   142  LEU142      0.0019
      7  CD1      179.6340  117.8360   84.5270 C.3   142  LEU142      0.0001
      8  CD2      178.8080  116.4510   82.6350 C.3   142  LEU142      0.0001
      9  N        176.7850  120.8490   88.9470 N.3   145  LEU145     -0.1231
     10  CA       178.0620  121.4110   89.3890 C.3   145  LEU145      0.1693
     11  C        178.5650  122.4910   88.4450 C.2   145  LEU145      0.2592
     12  O        178.8790  123.6090   88.8760 O.2   145  LEU145     -0.2718
     13  CB       179.1020  120.3000   89.5050 C.3   145  LEU145      0.0284
     14  CG       178.8540  119.2170   90.5470 C.3   145  LEU145      0.0019
     15  CD1      179.9030  118.1350   90.4150 C.3   145  LEU145      0.0001
     16  CD2      178.8710  119.8100   91.9350 C.3   145  LEU145      0.0001
     17  N        178.6070  122.1830   87.1450 N.am  146  GLY146     -0.1957
     18  CA       179.0260  123.1650   86.1600 C.3   146  GLY146      0.1869
     19  C        178.0980  124.3540   86.0770 C.2   146  GLY146      0.2309
     20  O        178.5210  125.4430   85.6790 O.2   146  GLY146     -0.2863
     21  N        176.9130  125.7880   88.8020 N.3   148  ALA148     -0.1231
     22  CA       177.6650  126.6180   89.7360 C.3   148  ALA148      0.1694
     23  C        178.8950  127.2080   89.0700 C.2   148  ALA148      0.2592
     24  O        179.1740  128.4060   89.2140 O.2   148  ALA148     -0.2718
     25  CB       178.0760  125.7930   90.9480 C.3   148  ALA148      0.0304
     26  N        179.5860  126.3980   88.2630 N.am  149  GLY149     -0.1957
     27  CA       180.7340  126.8620   87.5110 C.3   149  GLY149      0.1869
     28  C        180.4130  127.9310   86.4940 C.2   149  GLY149      0.2309
     29  O        181.3140  128.6610   86.0710 O.2   149  GLY149     -0.2863
     30  N        179.5510  131.0960   89.3120 N.3   152  HIS152     -0.1226
     31  CA       180.7940  131.5700   89.8960 C.3   152  HIS152      0.1752
     32  C        181.6900  132.2200   88.8500 C.2   152  HIS152      0.2596
     33  O        182.4670  133.1240   89.1810 O.2   152  HIS152     -0.2718
     34  CB       181.4920  130.4180   90.5990 C.3   152  HIS152      0.0759
     35  CG       180.8220  130.0070   91.8670 C.ar  152  HIS152      0.0818
     36  ND1      180.9090  130.7540   93.0190 N.ar  152  HIS152     -0.2268
     37  CD2      180.0500  128.9370   92.1670 C.ar  152  HIS152      0.1154
     38  CE1      180.2160  130.1660   93.9740 C.ar  152  HIS152      0.1986
     39  NE2      179.6910  129.0580   93.4870 N.ar  152  HIS152     -0.2212
     40  N        181.5600  131.8140   87.5830 N.am  153  GLY153     -0.1957
     41  CA       182.1850  132.5660   86.5090 C.3   153  GLY153      0.1869
     42  C        181.5870  133.9470   86.3480 C.2   153  GLY153      0.2309
     43  O        182.2520  134.8650   85.8630 O.2   153  GLY153     -0.2863
     44  N        183.2070  135.9910   90.4120 N.3   156  LEU156     -0.1231
     45  CA       184.5200  136.5670   90.6540 C.3   156  LEU156      0.1693
     46  C        185.3020  136.8310   89.3820 C.2   156  LEU156      0.2592
     47  O        186.0470  137.8160   89.3210 O.2   156  LEU156     -0.2718
     48  CB       185.3120  135.6610   91.6020 C.3   156  LEU156      0.0284
     49  CG       185.4880  134.1800   91.2690 C.3   156  LEU156      0.0019
     50  CD1      186.7790  133.8950   90.5210 C.3   156  LEU156      0.0001
     51  CD2      185.4110  133.3810   92.5480 C.3   156  LEU156      0.0001
     52  N        185.1640  135.9760   88.3710 N.am  157  ASN157     -0.1974
     53  CA       185.5640  136.3880   87.0340 C.3   157  ASN157      0.1688
     54  C        184.6430  137.4950   86.5480 C.2   157  ASN157      0.2292
     55  O        185.0930  138.5960   86.2110 O.2   157  ASN157     -0.2864
     56  CB       185.5330  135.1970   86.0740 C.3   157  ASN157      0.1181
     57  CG       186.2050  135.4950   84.7440 C.2   157  ASN157      0.2629
     58  OD1      186.7670  136.5710   84.5390 O.2   157  ASN157     -0.2716
     59  ND2      186.1330  134.5420   83.8250 N.am  157  ASN157     -0.0877
     60  N        185.2440  131.4810   78.5630 N.3   164  GLN164     -0.1231
     61  CA       186.3680  130.9490   79.3110 C.3   164  GLN164      0.1698
     62  C        187.1020  129.8510   78.5500 C.2   164  GLN164      0.2592
     63  O        188.2830  129.6100   78.8210 O.2   164  GLN164     -0.2718
     64  CB       185.8700  130.4140   80.6670 C.3   164  GLN164      0.0381
     65  CG       186.9400  130.0280   81.6770 C.3   164  GLN164      0.0905
     66  CD       187.7810  131.2120   82.0920 C.2   164  GLN164      0.2608
     67  OE1      187.2680  132.3160   82.2660 O.2   164  GLN164     -0.2717
     68  NE2      189.0810  130.9910   82.2590 N.am  164  GLN164     -0.0878
     69  N        186.4640  129.2530   77.5460 N.am  165  ILE165     -0.1980
     70  CA       186.8660  127.9380   77.0610 C.3   165  ILE165      0.1595
     71  C        187.9590  127.9330   75.9910 C.2   165  ILE165      0.2287
     72  O        188.6670  126.9250   75.8580 O.2   165  ILE165     -0.2864
     73  CB       185.6220  127.1950   76.5400 C.3   165  ILE165      0.0276
     74  CG1      184.9520  127.9810   75.4130 C.3   165  ILE165      0.0022
     75  CG2      184.6300  126.9710   77.6620 C.3   165  ILE165      0.0022
     76  CD1      183.8070  127.2520   74.7520 C.3   165  ILE165      0.0001
     77  N        191.9870  132.8380   80.1010 N.3   169  GLN169     -0.1231
     78  CA       192.3020  132.5310   81.4850 C.3   169  GLN169      0.1683
     79  C        192.8000  133.7890   82.1830 C.2   169  GLN169      0.2434
     80  O        193.4250  134.6440   81.5480 O.2   169  GLN169     -0.2733
     81  CB       193.3660  131.4250   81.5860 C.3   169  GLN169      0.0380
     82  CG       192.8780  130.0390   81.1880 C.3   169  GLN169      0.0905
     83  CD       192.9530  129.7900   79.6970 C.2   169  GLN169      0.2608
     84  OE1      193.6600  130.4900   78.9730 O.2   169  GLN169     -0.2717
     85  NE2      192.2170  128.7910   79.2290 N.am  169  GLN169     -0.0878
     86  N        192.5230  133.9390   83.4900 N.am  170  PRO170     -0.2729
     87  CA       192.9890  135.1320   84.2040 C.3   170  PRO170      0.1401
     88  C        194.4910  135.1160   84.4530 C.2   170  PRO170      0.2269
     89  O        194.9040  135.1640   85.6110 O.2   170  PRO170     -0.2865
     90  CB       192.2210  135.0700   85.5250 C.3   170  PRO170      0.0296
     91  CG       191.9490  133.6300   85.7280 C.3   170  PRO170      0.0237
     92  CD       191.7160  133.0650   84.3590 C.3   170  PRO170      0.0939
@<TRIPOS>BOND
     1    76    74    1
     2    74    73    1
     3    72    71    2
     4    71    70    1
     5    73    70    1
     6    73    75    1
     7    70    69    1
     8    69    62   am
     9    62    63    2
    10    62    61    1
    11    60    61    1
    12    84    83    2
    13    85    83   am
    14    61    64    1
    15    83    82    1
    16    77    78    1
    17    64    65    1
    18    82    81    1
    19    78    81    1
    20    78    79    1
    21    80    79    2
    22    65    66    1
    23    66    68   am
    24    66    67    2
    25    79    86   am
    26     8     6    1
    27    86    87    1
    28    86    92    1
    29     6     7    1
    30     6     5    1
    31    59    57   am
    32    87    88    1
    33    87    90    1
    34    92    91    1
    35    88    89    2
    36    58    57    2
    37    57    56    1
    38     5     2    1
    39    90    91    1
    40     4     3    2
    41     3     2    1
    42    20    19    2
    43    43    42    2
    44     2     1    1
    45    29    28    2
    46    56    53    1
    47    19    18    1
    48    18    17    1
    49    55    54    2
    50    42    41    1
    51    28    27    1
    52    41    40    1
    53    54    53    1
    54    53    52    1
    55    17    11   am
    56    27    26    1
    57    40    32   am
    58    26    23   am
    59    52    46   am
    60    11    12    2
    61    11    10    1
    62    21    22    1
    63    32    33    2
    64    32    31    1
    65     9    10    1
    66    23    24    2
    67    23    22    1
    68    30    31    1
    69    47    46    2
    70    46    45    1
    71    10    13    1
    72    13    14    1
    73    22    25    1
    74    31    34    1
    75    44    45    1
    76    15    14    1
    77    50    49    1
    78    14    16    1
    79    34    35    1
    80    45    48    1
    81    49    48    1
    82    49    51    1
    83    35    37   ar
    84    35    36   ar
    85    37    39   ar
    86    36    38   ar
    87    39    38   ar
