@<TRIPOS>MOLECULE
tmp/5zgbQ04.pdb
 148 140 0 0 0
SMALL
GASTEIGER

@<TRIPOS>ATOM
      1  N        206.0200  112.1520  105.2570 N.3    49  MET49      -0.1230
      2  CA       206.5910  111.8360  103.9510 C.3    49  MET49       0.1702
      3  C        206.1860  112.8740  102.9150 C.2    49  MET49       0.2592
      4  O        207.0190  113.3130  102.1070 O.2    49  MET49      -0.2718
      5  CB       206.1740  110.4340  103.5180 C.3    49  MET49       0.0401
      6  CG       206.8400  109.3300  104.2950 C.3    49  MET49       0.0596
      7  SD       206.4400  107.6440  103.8190 S.3    49  MET49      -0.1393
      8  CE       204.8340  107.4690  104.5710 C.3    49  MET49       0.0692
      9  N        204.9220  113.3100  102.9590 N.am   50  LEU50      -0.1980
     10  CA       204.5010  114.4470  102.1460 C.3    50  LEU50       0.1596
     11  C        205.2820  115.7120  102.4720 C.2    50  LEU50       0.2287
     12  O        205.5720  116.5090  101.5730 O.2    50  LEU50      -0.2864
     13  CB       203.0170  114.7050  102.3470 C.3    50  LEU50       0.0297
     14  CG       202.0670  113.7210  101.6930 C.3    50  LEU50       0.0022
     15  CD1      200.6910  114.0140  102.2050 C.3    50  LEU50       0.0001
     16  CD2      202.1230  113.9150  100.1940 C.3    50  LEU50       0.0001
     17  N        208.5040  115.9360  103.6860 N.3    52  VAL52      -0.1231
     18  CA       209.9000  115.8820  103.2660 C.3    52  VAL52       0.1692
     19  C        210.0120  115.8930  101.7420 C.2    52  VAL52       0.2591
     20  O        210.9030  116.5480  101.1790 O.2    52  VAL52      -0.2718
     21  CB       210.6080  114.6740  103.9200 C.3    52  VAL52       0.0266
     22  CG1      209.9430  113.3760  103.5800 C.3    52  VAL52       0.0020
     23  CG2      212.0510  114.6010  103.5070 C.3    52  VAL52       0.0020
     24  N        209.0710  115.2430  101.0430 N.am   53  LEU53      -0.1980
     25  CA       209.0870  115.3420   99.5880 C.3    53  LEU53       0.1596
     26  C        208.6480  116.7280   99.1370 C.2    53  LEU53       0.2287
     27  O        209.0600  117.1970   98.0680 O.2    53  LEU53      -0.2864
     28  CB       208.2020  114.2630   98.9710 C.3    53  LEU53       0.0297
     29  CG       208.2860  114.1200   97.4510 C.3    53  LEU53       0.0022
     30  CD1      209.6770  113.6610   97.0490 C.3    53  LEU53       0.0001
     31  CD2      207.2180  113.1990   96.8970 C.3    53  LEU53       0.0001
     32  N        212.0440  118.8090   99.6090 N.3    56  ILE56      -0.1245
     33  CA       213.0600  118.4820   98.6110 C.3    56  ILE56       0.1561
     34  C        212.5990  118.8890   97.2140 C.2    56  ILE56       0.2260
     35  O        213.3410  119.5390   96.4600 O.2    56  ILE56      -0.2867
     36  CB       213.4130  116.9880   98.6930 C.3    56  ILE56       0.0252
     37  CG1      214.0130  116.6810  100.0640 C.3    56  ILE56       0.0019
     38  CG2      214.3760  116.6040   97.6010 C.3    56  ILE56       0.0019
     39  CD1      215.2620  117.4830  100.3650 C.3    56  ILE56       0.0001
     40  N        192.7720  102.1200   98.9060 N.3   122  PHE122     -0.1227
     41  CA       193.7410  102.8660   98.0970 C.3   122  PHE122      0.1736
     42  C        194.9910  102.0460   97.7610 C.2   122  PHE122      0.2595
     43  O        196.0850  102.2660   98.2800 O.2   122  PHE122     -0.2718
     44  CB       194.1120  104.1930   98.7660 C.3   122  PHE122      0.0547
     45  CG       194.8760  105.1150   97.8690 C.ar  122  PHE122     -0.0202
     46  CD1      194.2580  105.6760   96.7660 C.ar  122  PHE122     -0.0042
     47  CD2      196.1920  105.4380   98.1310 C.ar  122  PHE122     -0.0042
     48  CE1      194.9410  106.5260   95.9270 C.ar  122  PHE122     -0.0003
     49  CE2      196.8840  106.2920   97.2970 C.ar  122  PHE122     -0.0003
     50  CZ       196.2560  106.8370   96.1930 C.ar  122  PHE122     -0.0000
     51  N        194.7810  101.0550   96.8980 N.am  123  ASP123     -0.1960
     52  CA       195.8640  100.4850   96.0990 C.3   123  ASP123      0.1825
     53  C        195.5150  100.6030   94.6230 C.2   123  ASP123      0.2464
     54  O        194.8760   99.7040   94.0550 O.2   123  ASP123     -0.2730
     55  CB       196.1390   99.0310   96.4590 C.3   123  ASP123      0.1450
     56  CG       197.2820   98.4570   95.6500 C.2   123  ASP123      0.3671
     57  OD1      198.4490   98.7680   95.9610 O.co2 123  ASP123     -0.2456
     58  OD2      197.0130   97.7250   94.6740 O.co2 123  ASP123     -0.2456
     59  N        195.8990  101.6890   93.9600 N.am  124  PRO124     -0.2715
     60  CA       195.8460  101.7230   92.4890 C.3   124  PRO124      0.1536
     61  C        197.1060  101.1310   91.8580 C.2   124  PRO124      0.2598
     62  O        197.8540  101.8050   91.1430 O.2   124  PRO124     -0.2715
     63  CB       195.6910  103.2200   92.2010 C.3   124  PRO124      0.0310
     64  CG       196.3450  103.8840   93.3350 C.3   124  PRO124      0.0237
     65  CD       196.0790  103.0330   94.5310 C.3   124  PRO124      0.0939
     66  N        197.3490   99.8490   92.1310 N.am  125  LEU125     -0.1978
     67  CA       198.4990   99.1450   91.5880 C.3   125  LEU125      0.1596
     68  C        198.0990   97.7460   91.1500 C.2   125  LEU125      0.2287
     69  O        197.2660   97.0890   91.7800 O.2   125  LEU125     -0.2864
     70  CB       199.6470   99.0340   92.5990 C.3   125  LEU125      0.0297
     71  CG       200.4000  100.3090   92.9630 C.3   125  LEU125      0.0022
     72  CD1      201.4370  100.0080   94.0260 C.3   125  LEU125      0.0001
     73  CD2      201.0480  100.9080   91.7280 C.3   125  LEU125      0.0001
     74  N        210.0420  104.4100  106.3410 N.3   146  ASN146     -0.1240
     75  CA       210.2720  105.6090  105.5420 C.3   146  ASN146      0.1653
     76  C        209.4810  106.7980  106.0680 C.2   146  ASN146      0.2266
     77  O        209.8980  107.9470  105.8860 O.2   146  ASN146     -0.2867
     78  CB       209.9350  105.3480  104.0770 C.3   146  ASN146      0.1155
     79  CG       210.9710  104.4850  103.3860 C.2   146  ASN146      0.2627
     80  OD1      210.6950  103.3570  102.9840 O.2   146  ASN146     -0.2716
     81  ND2      212.1740  105.0210  103.2350 N.am  146  ASN146     -0.0877
     82  N        211.7020  107.9030  109.2800 N.3   149  LEU149     -0.1231
     83  CA       212.8400  108.6550  108.7650 C.3   149  LEU149      0.1693
     84  C        212.3920  109.9430  108.0880 C.2   149  LEU149      0.2591
     85  O        213.1600  110.9070  108.0160 O.2   149  LEU149     -0.2718
     86  CB       213.6450  107.7760  107.8030 C.3   149  LEU149      0.0284
     87  CG       214.9930  108.2340  107.2420 C.3   149  LEU149      0.0019
     88  CD1      215.8970  107.0470  107.0810 C.3   149  LEU149      0.0001
     89  CD2      214.8490  108.9110  105.8890 C.3   149  LEU149      0.0001
     90  N        211.1610  109.9760  107.5800 N.am  150  ALA150     -0.1980
     91  CA       210.5970  111.2370  107.1250 C.3   150  ALA150      0.1597
     92  C        210.3040  112.1750  108.2840 C.2   150  ALA150      0.2287
     93  O        210.3960  113.3970  108.1240 O.2   150  ALA150     -0.2864
     94  CB       209.3220  110.9850  106.3410 C.3   150  ALA150      0.0319
     95  N        214.0090  113.1530  109.6070 N.3   153  ALA153     -0.1245
     96  CA       214.6830  113.8370  108.5070 C.3   153  ALA153      0.1562
     97  C        213.9810  115.1330  108.1310 C.2   153  ALA153      0.2260
     98  O        214.6330  116.0910  107.7000 O.2   153  ALA153     -0.2867
     99  CB       214.7690  112.9120  107.2980 C.3   153  ALA153      0.0290
    100  N        215.3700  117.5250  110.8750 N.3   156  GLY156     -0.1210
    101  CA       216.6010  118.1750  110.4730 C.3   156  GLY156      0.1956
    102  C        216.4160  119.1260  109.3130 C.2   156  GLY156      0.2611
    103  O        217.0900  120.1560  109.2430 O.2   156  GLY156     -0.2717
    104  N        215.4930  118.8100  108.4000 N.am  157  PHE157     -0.1976
    105  CA       215.2100  119.7190  107.2950 C.3   157  PHE157      0.1639
    106  C        214.5440  121.0050  107.7520 C.2   157  PHE157      0.2290
    107  O        214.6640  122.0260  107.0690 O.2   157  PHE157     -0.2864
    108  CB       214.3480  119.0300  106.2450 C.3   157  PHE157      0.0560
    109  CG       215.1080  118.0770  105.3790 C.ar  157  PHE157     -0.0200
    110  CD1      216.4940  118.0850  105.3590 C.ar  157  PHE157     -0.0042
    111  CD2      214.4420  117.1760  104.5780 C.ar  157  PHE157     -0.0042
    112  CE1      217.1900  117.2190  104.5550 C.ar  157  PHE157     -0.0003
    113  CE2      215.1420  116.3040  103.7750 C.ar  157  PHE157     -0.0003
    114  CZ       216.5140  116.3230  103.7670 C.ar  157  PHE157     -0.0000
    115  N        217.8070  123.0980  110.1440 N.3   160  GLN160     -0.1245
    116  CA       219.0140  123.6640  109.5500 C.3   160  GLN160      0.1566
    117  C        218.6950  125.0840  109.0980 C.2   160  GLN160      0.2260
    118  O        218.4770  125.3730  107.9190 O.2   160  GLN160     -0.2867
    119  CB       219.5130  122.7830  108.4200 C.3   160  GLN160      0.0367
    120  CG       220.0380  121.4700  108.9380 C.3   160  GLN160      0.0905
    121  CD       220.3960  120.5140  107.8380 C.2   160  GLN160      0.2608
    122  OE1      220.2300  120.8130  106.6580 O.2   160  GLN160     -0.2717
    123  NE2      220.8690  119.3400  108.2170 N.am  160  GLN160     -0.0878
    124  N        218.7110  123.6220  101.8150 N.3   168  ILE168     -0.1245
    125  CA       219.3770  122.3780  102.1840 C.3   168  ILE168      0.1561
    126  C        220.2530  121.8770  101.0390 C.2   168  ILE168      0.2260
    127  O        221.2310  121.1520  101.2720 O.2   168  ILE168     -0.2867
    128  CB       218.2920  121.3860  102.6380 C.3   168  ILE168      0.0252
    129  CG1      217.4920  122.0230  103.7710 C.3   168  ILE168      0.0019
    130  CG2      218.8770  120.0850  103.1530 C.3   168  ILE168      0.0019
    131  CD1      216.1640  121.3820  104.0150 C.3   168  ILE168      0.0001
    132  N        223.0140  123.6960  101.9560 N.3   171  GLN171     -0.1231
    133  CA       223.6680  122.9530  103.0250 C.3   171  GLN171      0.1698
    134  C        224.5360  121.8350  102.4600 C.2   171  GLN171      0.2592
    135  O        225.5940  121.5300  103.0200 O.2   171  GLN171     -0.2718
    136  CB       222.6210  122.4010  103.9940 C.3   171  GLN171      0.0381
    137  CG       223.1780  121.6540  105.1940 C.3   171  GLN171      0.0905
    138  CD       223.9630  122.5500  106.1290 C.2   171  GLN171      0.2608
    139  OE1      223.5670  123.6830  106.4030 O.2   171  GLN171     -0.2717
    140  NE2      225.0870  122.0450  106.6240 N.am  171  GLN171     -0.0878
    141  N        224.1240  121.2340  101.3400 N.am  172  LEU172     -0.1980
    142  CA       224.9700  120.2480  100.6780 C.3   172  LEU172      0.1596
    143  C        226.1690  120.9000  100.0010 C.2   172  LEU172      0.2287
    144  O        227.1920  120.2360   99.8020 O.2   172  LEU172     -0.2864
    145  CB       224.1390  119.4340   99.6780 C.3   172  LEU172      0.0297
    146  CG       224.6990  118.1570   99.0340 C.3   172  LEU172      0.0022
    147  CD1      223.5780  117.1530   98.8450 C.3   172  LEU172      0.0001
    148  CD2      225.3590  118.4240   97.6850 C.3   172  LEU172      0.0001
@<TRIPOS>BOND
     1    62    61    2
     2    68    67    1
     3    68    69    2
     4    67    66    1
     5    67    70    1
     6    73    71    1
     7    61    66   am
     8    61    60    1
     9    63    60    1
    10    63    64    1
    11    60    59    1
    12    70    71    1
    13    71    72    1
    14    64    65    1
    15    59    65    1
    16    59    53   am
    17    54    53    2
    18    53    52    1
    19    58    56   ar
    20    56    57   ar
    21    56    55    1
    22    48    50   ar
    23    48    46   ar
    24    52    55    1
    25    52    51    1
    26    50    49   ar
    27    35    34    2
    28    46    45   ar
    29    31    29    1
    30    51    42   am
    31    30    29    1
    32    34    33    1
    33    49    47   ar
    34    29    28    1
    35    38    36    1
    36   148   146    1
    37    42    41    1
    38    42    43    2
    39    45    47   ar
    40    45    44    1
    41    27    26    2
    42    41    44    1
    43    41    40    1
    44    33    36    1
    45    33    32    1
    46    36    37    1
    47   147   146    1
    48    28    25    1
    49   146   145    1
    50    26    25    1
    51    25    24    1
    52   145   142    1
    53   144   143    2
    54   143   142    1
    55    37    39    1
    56    16    14    1
    57   142   141    1
    58   126   127    2
    59   126   125    1
    60    24    19   am
    61    20    19    2
    62   141   134   am
    63    12    11    2
    64    14    15    1
    65    14    13    1
    66    19    18    1
    67   124   125    1
    68   132   133    1
    69     4     3    2
    70    10    13    1
    71    10    11    1
    72    10     9    1
    73   125   128    1
    74   134   135    2
    75   134   133    1
    76   128   130    1
    77   128   129    1
    78     3     9   am
    79     3     2    1
    80    80    79    2
    81   133   136    1
    82    81    79   am
    83    18    17    1
    84    18    21    1
    85    79    78    1
    86    23    21    1
    87     5     2    1
    88     5     6    1
    89    22    21    1
    90   114   113   ar
    91   114   112   ar
    92   129   131    1
    93   113   111   ar
    94     7     6    1
    95     7     8    1
    96     2     1    1
    97   136   137    1
    98    78    75    1
    99   112   110   ar
   100   111   109   ar
   101   137   138    1
   102   110   109   ar
   103   109   108    1
   104    75    76    1
   105    75    74    1
   106    77    76    2
   107    89    87    1
   108   138   139    2
   109   138   140   am
   110   108   105    1
   111    94    91    1
   112   122   121    2
   113   107   106    2
   114    88    87    1
   115    91    90    1
   116    91    92    1
   117    87    86    1
   118   105   106    1
   119   105   104    1
   120    99    96    1
   121    90    84   am
   122    98    97    2
   123    86    83    1
   124   121   123   am
   125   121   120    1
   126   118   117    2
   127    85    84    2
   128    84    83    1
   129    93    92    2
   130    97    96    1
   131   104   102   am
   132   119   120    1
   133   119   116    1
   134    96    95    1
   135    83    82    1
   136   117   116    1
   137   103   102    2
   138   102   101    1
   139   116   115    1
   140   101   100    1
