@<TRIPOS>MOLECULE
tmp/5zgbP01.pdb
 165 161 0 0 0
SMALL
GASTEIGER

@<TRIPOS>ATOM
      1  N        169.3080  121.4290   85.6330 N.3    48  MET48      -0.1230
      2  CA       169.5720  121.0290   84.2620 C.3    48  MET48       0.1702
      3  C        168.9470  122.0220   83.2900 C.2    48  MET48       0.2592
      4  O        169.5920  122.4690   82.3310 O.2    48  MET48      -0.2718
      5  CB       169.0060  119.6300   84.0470 C.3    48  MET48       0.0401
      6  CG       169.6750  118.8600   82.9760 C.3    48  MET48       0.0596
      7  SD       168.8020  117.3780   82.4950 S.3    48  MET48      -0.1393
      8  CE       168.8030  116.4330   83.9990 C.3    48  MET48       0.0692
      9  N        167.6870  122.3880   83.5330 N.am   49  LEU49      -0.1980
     10  CA       167.0440  123.4170   82.7280 C.3    49  LEU49       0.1596
     11  C        167.6790  124.7790   82.9490 C.2    49  LEU49       0.2287
     12  O        167.7320  125.5940   82.0220 O.2    49  LEU49      -0.2864
     13  CB       165.5600  123.4910   83.0570 C.3    49  LEU49       0.0297
     14  CG       164.7290  122.2620   82.7210 C.3    49  LEU49       0.0022
     15  CD1      163.2970  122.4860   83.1640 C.3    49  LEU49       0.0001
     16  CD2      164.8080  121.9570   81.2380 C.3    49  LEU49       0.0001
     17  N        170.9150  125.4860   83.7340 N.3    51  CYS51      -0.1221
     18  CA       172.1240  125.5670   82.9300 C.3    51  CYS51       0.1808
     19  C        171.8280  125.4180   81.4450 C.2    51  CYS51       0.2601
     20  O        172.6860  125.7530   80.6230 O.2    51  CYS51      -0.2717
     21  CB       173.1490  124.5270   83.3810 C.3    51  CYS51       0.0970
     22  SG       172.7010  122.8150   83.0820 S.3    51  CYS51      -0.0800
     23  N        170.6370  124.9400   81.0740 N.am   52  LEU52      -0.1979
     24  CA       170.2550  125.0370   79.6690 C.3    52  LEU52       0.1596
     25  C        169.8930  126.4720   79.2940 C.2    52  LEU52       0.2287
     26  O        170.1470  126.8910   78.1620 O.2    52  LEU52      -0.2864
     27  CB       169.1080  124.0750   79.3500 C.3    52  LEU52       0.0297
     28  CG       168.8060  123.9130   77.8550 C.3    52  LEU52       0.0022
     29  CD1      170.0230  123.3500   77.1390 C.3    52  LEU52       0.0001
     30  CD2      167.5860  123.0430   77.5860 C.3    52  LEU52       0.0001
     31  N        171.5610  128.8460   80.7230 N.3    54  PHE54      -0.1227
     32  CA       172.9320  129.3120   80.5600 C.3    54  PHE54       0.1736
     33  C        173.6670  128.6310   79.4090 C.2    54  PHE54       0.2595
     34  O        174.8710  128.8580   79.2440 O.2    54  PHE54      -0.2718
     35  CB       173.6980  129.1310   81.8660 C.3    54  PHE54       0.0547
     36  CG       173.3360  130.1360   82.9130 C.ar   54  PHE54      -0.0202
     37  CD1      172.7680  131.3510   82.5600 C.ar   54  PHE54      -0.0042
     38  CD2      173.5310  129.8570   84.2520 C.ar   54  PHE54      -0.0042
     39  CE1      172.4330  132.2720   83.5240 C.ar   54  PHE54      -0.0003
     40  CE2      173.1950  130.7780   85.2180 C.ar   54  PHE54      -0.0003
     41  CZ       172.6450  131.9880   84.8510 C.ar   54  PHE54      -0.0000
     42  N        172.9790  127.8110   78.6140 N.am   55  PHE55      -0.1976
     43  CA       173.5000  127.3210   77.3490 C.3    55  PHE55       0.1639
     44  C        172.8820  128.0090   76.1410 C.2    55  PHE55       0.2290
     45  O        173.5470  128.1410   75.1130 O.2    55  PHE55      -0.2864
     46  CB       173.2840  125.8060   77.2280 C.3    55  PHE55       0.0560
     47  CG       173.8760  125.2030   75.9790 C.ar   55  PHE55      -0.0200
     48  CD1      175.2480  125.0260   75.8640 C.ar   55  PHE55      -0.0042
     49  CD2      173.0630  124.8130   74.9210 C.ar   55  PHE55      -0.0042
     50  CE1      175.7980  124.4740   74.7170 C.ar   55  PHE55      -0.0003
     51  CE2      173.6070  124.2620   73.7720 C.ar   55  PHE55      -0.0003
     52  CZ       174.9760  124.0920   73.6720 C.ar   55  PHE55      -0.0000
     53  N        155.3460  112.0570   83.0050 N.3   121  PHE121     -0.1227
     54  CA       155.4980  113.0260   81.9280 C.3   121  PHE121      0.1736
     55  C        156.4200  112.4500   80.8730 C.2   121  PHE121      0.2595
     56  O        157.6450  112.5740   80.9670 O.2   121  PHE121     -0.2718
     57  CB       156.0510  114.3620   82.4270 C.3   121  PHE121      0.0547
     58  CG       155.0190  115.2640   83.0360 C.ar  121  PHE121     -0.0202
     59  CD1      153.6650  115.0110   82.8700 C.ar  121  PHE121     -0.0042
     60  CD2      155.4040  116.3880   83.7480 C.ar  121  PHE121     -0.0042
     61  CE1      152.7130  115.8510   83.4220 C.ar  121  PHE121     -0.0003
     62  CE2      154.4590  117.2320   84.3030 C.ar  121  PHE121     -0.0003
     63  CZ       153.1130  116.9620   84.1400 C.ar  121  PHE121     -0.0000
     64  N        155.8310  111.8140   79.8750 N.am  122  ASN122     -0.1961
     65  CA       156.5920  111.1590   78.8280 C.3   122  ASN122      0.1804
     66  C        155.7250  111.0190   77.5830 C.2   122  ASN122      0.2463
     67  O        155.2180  109.9240   77.3070 O.2   122  ASN122     -0.2730
     68  CB       157.0660  109.7890   79.3080 C.3   122  ASN122      0.1195
     69  CG       158.1500  109.2150   78.4410 C.2   122  ASN122      0.2630
     70  OD1      158.6240  109.8600   77.5070 O.2   122  ASN122     -0.2716
     71  ND2      158.5410  107.9820   78.7300 N.am  122  ASN122     -0.0877
     72  N        155.5190  112.0910   76.8110 N.am  123  PRO123     -0.2716
     73  CA       154.6830  111.9570   75.6110 C.3   123  PRO123      0.1536
     74  C        155.3720  111.2100   74.4870 C.2   123  PRO123      0.2598
     75  O        154.6900  110.5940   73.6590 O.2   123  PRO123     -0.2715
     76  CB       154.3890  113.4120   75.2260 C.3   123  PRO123      0.0310
     77  CG       155.5610  114.1650   75.7370 C.3   123  PRO123      0.0237
     78  CD       155.9850  113.4760   77.0030 C.3   123  PRO123      0.0939
     79  N        156.7030  111.2440   74.4320 N.am  124  LEU124     -0.1978
     80  CA       157.4200  110.5050   73.4000 C.3   124  LEU124      0.1596
     81  C        157.4180  109.0160   73.7110 C.2   124  LEU124      0.2287
     82  O        157.0040  108.1970   72.8810 O.2   124  LEU124     -0.2864
     83  CB       158.8460  111.0390   73.2820 C.3   124  LEU124      0.0297
     84  CG       158.9210  112.5050   72.8590 C.3   124  LEU124      0.0022
     85  CD1      160.3530  112.9970   72.8810 C.3   124  LEU124      0.0001
     86  CD2      158.3050  112.6980   71.4850 C.3   124  LEU124      0.0001
     87  N        161.7930  105.3110   75.7500 N.3   127  PRO127     -0.2116
     88  CA       162.1890  104.5030   76.9130 C.3   127  PRO127      0.1372
     89  C        161.1960  104.5810   78.0630 C.2   127  PRO127      0.2244
     90  O        160.5460  105.6090   78.2700 O.2   127  PRO127     -0.2868
     91  CB       163.5430  105.1000   77.3060 C.3   127  PRO127      0.0268
     92  CG       163.4060  106.5050   76.9760 C.3   127  PRO127      0.0207
     93  CD       162.5220  106.6010   75.7680 C.3   127  PRO127      0.0892
     94  N        173.4650  112.9920   84.2260 N.3   139  ASN139     -0.1240
     95  CA       173.1340  114.1490   83.4040 C.3   139  ASN139      0.1653
     96  C        172.3870  115.2300   84.1700 C.2   139  ASN139      0.2266
     97  O        172.1270  116.2910   83.5980 O.2   139  ASN139     -0.2867
     98  CB       172.3140  113.7080   82.1960 C.3   139  ASN139      0.1155
     99  CG       173.1450  112.9650   81.1750 C.2   139  ASN139      0.2627
    100  OD1      174.2370  113.3980   80.8100 O.2   139  ASN139     -0.2716
    101  ND2      172.6440  111.8240   80.7300 N.am  139  ASN139     -0.0877
    102  N        176.1850  116.3650   86.7910 N.3   142  LEU142     -0.1231
    103  CA       177.0470  117.2460   86.0150 C.3   142  LEU142      0.1693
    104  C        176.3340  118.5380   85.6540 C.2   142  LEU142      0.2591
    105  O        176.9510  119.6090   85.6480 O.2   142  LEU142     -0.2718
    106  CB       177.5240  116.5230   84.7580 C.3   142  LEU142      0.0284
    107  CG       178.4080  117.3210   83.8040 C.3   142  LEU142      0.0019
    108  CD1      179.6340  117.8360   84.5270 C.3   142  LEU142      0.0001
    109  CD2      178.8080  116.4510   82.6350 C.3   142  LEU142      0.0001
    110  N        175.0240  118.4680   85.4210 N.am  143  ALA143     -0.1980
    111  CA       174.2540  119.6780   85.1890 C.3   143  ALA143      0.1597
    112  C        174.0940  120.5140   86.4460 C.2   143  ALA143      0.2287
    113  O        173.7270  121.6850   86.3450 O.2   143  ALA143     -0.2864
    114  CB       172.8820  119.3320   84.6370 C.3   143  ALA143      0.0319
    115  N        178.6070  122.1830   87.1450 N.3   146  GLY146     -0.1225
    116  CA       179.0260  123.1650   86.1600 C.3   146  GLY146      0.1811
    117  C        178.0980  124.3540   86.0770 C.2   146  GLY146      0.2280
    118  O        178.5210  125.4430   85.6790 O.2   146  GLY146     -0.2866
    119  N        179.5860  126.3980   88.2630 N.3   149  GLY149     -0.1210
    120  CA       180.7340  126.8620   87.5110 C.3   149  GLY149      0.1956
    121  C        180.4130  127.9310   86.4940 C.2   149  GLY149      0.2611
    122  O        181.3140  128.6610   86.0710 O.2   149  GLY149     -0.2717
    123  N        179.1460  128.0560   86.1010 N.am  150  ILE150     -0.1979
    124  CA       178.7590  129.2050   85.3000 C.3   150  ILE150      0.1595
    125  C        178.5750  130.4270   86.1860 C.2   150  ILE150      0.2287
    126  O        179.1090  131.5050   85.8990 O.2   150  ILE150     -0.2864
    127  CB       177.4950  128.8870   84.4880 C.3   150  ILE150      0.0276
    128  CG1      177.7910  127.7430   83.5230 C.3   150  ILE150      0.0022
    129  CG2      177.0580  130.1040   83.7070 C.3   150  ILE150      0.0022
    130  CD1      176.5770  127.1060   82.9250 C.3   150  ILE150      0.0001
    131  N        179.8610  133.9700   80.3670 N.3   161  PRO161     -0.2102
    132  CA       179.6600  132.5320   80.5940 C.3   161  PRO161      0.1504
    133  C        180.4760  131.6490   79.6600 C.2   161  PRO161      0.2575
    134  O        181.2340  130.7840   80.1090 O.2   161  PRO161     -0.2718
    135  CB       178.1570  132.3490   80.3480 C.3   161  PRO161      0.0282
    136  CG       177.5660  133.7080   80.5630 C.3   161  PRO161      0.0208
    137  CD       178.6000  134.6610   80.0620 C.3   161  PRO161      0.0893
    138  N        180.3430  131.8720   78.3530 N.am  162  PHE162     -0.1977
    139  CA       180.9300  130.9760   77.3650 C.3   162  PHE162      0.1639
    140  C        182.3810  131.2760   77.0470 C.2   162  PHE162      0.2290
    141  O        183.0530  130.4250   76.4590 O.2   162  PHE162     -0.2864
    142  CB       180.1390  131.0380   76.0630 C.3   162  PHE162      0.0560
    143  CG       178.8300  130.3280   76.1150 C.ar  162  PHE162     -0.0200
    144  CD1      178.5740  129.3850   77.0970 C.ar  162  PHE162     -0.0042
    145  CD2      177.8510  130.6060   75.1770 C.ar  162  PHE162     -0.0042
    146  CE1      177.3680  128.7300   77.1410 C.ar  162  PHE162     -0.0003
    147  CE2      176.6410  129.9550   75.2160 C.ar  162  PHE162     -0.0003
    148  CZ       176.4040  129.0180   76.1980 C.ar  162  PHE162     -0.0000
    149  N        185.2440  131.4810   78.5630 N.3   164  GLN164     -0.1231
    150  CA       186.3680  130.9490   79.3110 C.3   164  GLN164      0.1698
    151  C        187.1020  129.8510   78.5500 C.2   164  GLN164      0.2592
    152  O        188.2830  129.6100   78.8210 O.2   164  GLN164     -0.2718
    153  CB       185.8700  130.4140   80.6670 C.3   164  GLN164      0.0381
    154  CG       186.9400  130.0280   81.6770 C.3   164  GLN164      0.0905
    155  CD       187.7810  131.2120   82.0920 C.2   164  GLN164      0.2608
    156  OE1      187.2680  132.3160   82.2660 O.2   164  GLN164     -0.2717
    157  NE2      189.0810  130.9910   82.2590 N.am  164  GLN164     -0.0878
    158  N        186.4640  129.2530   77.5460 N.am  165  ILE165     -0.1980
    159  CA       186.8660  127.9380   77.0610 C.3   165  ILE165      0.1595
    160  C        187.9590  127.9330   75.9910 C.2   165  ILE165      0.2287
    161  O        188.6670  126.9250   75.8580 O.2   165  ILE165     -0.2864
    162  CB       185.6220  127.1950   76.5400 C.3   165  ILE165      0.0276
    163  CG1      184.9520  127.9810   75.4130 C.3   165  ILE165      0.0022
    164  CG2      184.6300  126.9710   77.6620 C.3   165  ILE165      0.0022
    165  CD1      183.8070  127.2520   74.7520 C.3   165  ILE165      0.0001
@<TRIPOS>BOND
     1    86    84    1
     2    84    85    1
     3    84    83    1
     4    82    81    2
     5    83    80    1
     6    80    81    1
     7    80    79    1
     8    75    74    2
     9    52    51   ar
    10    52    50   ar
    11    51    49   ar
    12    79    74   am
    13    74    73    1
    14    50    48   ar
    15   165   163    1
    16    49    47   ar
    17    45    44    2
    18   145   147   ar
    19   145   143   ar
    20   147   148   ar
    21    76    73    1
    22    76    77    1
    23   163   162    1
    24    73    72    1
    25    77    78    1
    26    87    93    1
    27    87    88    1
    28    93    92    1
    29   161   160    2
    30    48    47   ar
    31    47    46    1
    32   160   159    1
    33   142   143    1
    34   142   139    1
    35   143   144   ar
    36    44    43    1
    37   148   146   ar
    38   141   140    2
    39   162   159    1
    40   162   164    1
    41    72    78    1
    42    72    66   am
    43    88    91    1
    44    88    89    1
    45    92    91    1
    46   140   139    1
    47   159   158    1
    48   144   146   ar
    49    29    28    1
    50    46    43    1
    51    67    66    2
    52    43    42    1
    53   139   138    1
    54    70    69    2
    55   158   151   am
    56    66    65    1
    57    30    28    1
    58    28    27    1
    59    89    90    2
    60    26    25    2
    61   138   133   am
    62    69    71   am
    63    69    68    1
    64   151   152    2
    65   151   150    1
    66   149   150    1
    67    42    33   am
    68    65    68    1
    69    65    64    1
    70    34    33    2
    71    25    24    1
    72   150   153    1
    73    27    24    1
    74    33    32    1
    75   133   134    2
    76   133   132    1
    77    24    23    1
    78    64    55   am
    79   137   131    1
    80   137   136    1
    81   135   136    1
    82   135   132    1
    83   131   132    1
    84    32    31    1
    85    32    35    1
    86    20    19    2
    87   153   154    1
    88   101    99   am
    89   100    99    2
    90    55    56    2
    91    55    54    1
    92    23    19   am
    93    99    98    1
    94    16    14    1
    95    19    18    1
    96   154   155    1
    97    35    36    1
    98    54    57    1
    99    54    53    1
   100    12    11    2
   101   155   157   am
   102   155   156    2
   103    98    95    1
   104     4     3    2
   105    57    58    1
   106     7     6    1
   107     7     8    1
   108    37    36   ar
   109    37    39   ar
   110   109   107    1
   111    14    13    1
   112    14    15    1
   113    10    11    1
   114    10    13    1
   115    10     9    1
   116    59    58   ar
   117    59    61   ar
   118    36    38   ar
   119   130   128    1
   120    18    21    1
   121    18    17    1
   122     6     5    1
   123    58    60   ar
   124    22    21    1
   125     3     9   am
   126     3     2    1
   127    95    96    1
   128    95    94    1
   129    61    63   ar
   130   128   127    1
   131    39    41   ar
   132    97    96    2
   133   129   127    1
   134    60    62   ar
   135   107   108    1
   136   107   106    1
   137     5     2    1
   138    63    62   ar
   139    38    40   ar
   140     2     1    1
   141   127   124    1
   142   114   111    1
   143   106   103    1
   144    41    40   ar
   145   111   110    1
   146   111   112    1
   147   124   123    1
   148   124   125    1
   149   110   104   am
   150   105   104    2
   151   104   103    1
   152   118   117    2
   153   126   125    2
   154   103   102    1
   155   122   121    2
   156   117   116    1
   157   123   121   am
   158   116   115    1
   159   113   112    2
   160   121   120    1
   161   120   119    1
