@<TRIPOS>MOLECULE
tmp/5zgbF07.pdb
 124 121 0 0 0
SMALL
GASTEIGER

@<TRIPOS>ATOM
      1  N        182.7290  160.7000  161.4530 N.3    68  THR68      -0.1203
      2  CA       182.5170  159.5730  162.3470 C.3    68  THR68       0.1994
      3  C        183.8040  158.7950  162.5830 C.2    68  THR68       0.2618
      4  O        183.8360  157.5710  162.4330 O.2    68  THR68      -0.2717
      5  CB       181.4410  158.6520  161.7910 C.3    68  THR68       0.1784
      6  OG1      181.7950  158.2830  160.4600 O.3    68  THR68      -0.2211
      7  CG2      180.0950  159.3380  161.7840 C.3    68  THR68       0.0376
      8  N        184.8780  159.4990  162.9250 N.am   69  ASP69      -0.1959
      9  CA       186.1000  158.8530  163.3690 C.3    69  ASP69       0.1840
     10  C        186.2760  158.9000  164.8740 C.2    69  ASP69       0.2622
     11  O        187.0890  158.1410  165.4130 O.2    69  ASP69      -0.2715
     12  CB       187.3150  159.5180  162.7320 C.3    69  ASP69       0.1450
     13  CG       187.3200  159.3930  161.2490 C.2    69  ASP69       0.3671
     14  OD1      186.7400  158.4140  160.7460 O.co2  69  ASP69      -0.2456
     15  OD2      187.8980  160.2760  160.5870 O.co2  69  ASP69      -0.2456
     16  N        185.5440  159.7730  165.5540 N.am   70  GLY70      -0.1954
     17  CA       185.8000  160.0300  166.9520 C.3    70  GLY70       0.1869
     18  C        187.0920  160.7940  167.1260 C.2    70  GLY70       0.2309
     19  O        187.9090  160.4500  167.9780 O.2    70  GLY70      -0.2863
     20  N        179.0180  163.0540  166.4080 N.3    78  PHE78      -0.1227
     21  CA       178.5280  161.6840  166.3490 C.3    78  PHE78       0.1736
     22  C        178.6860  160.9000  167.6400 C.2    78  PHE78       0.2596
     23  O        177.7350  160.2360  168.0580 O.2    78  PHE78      -0.2718
     24  CB       179.2180  160.9200  165.2170 C.3    78  PHE78       0.0547
     25  CG       178.7910  159.4930  165.1260 C.ar   78  PHE78      -0.0202
     26  CD1      177.5270  159.1730  164.6790 C.ar   78  PHE78      -0.0042
     27  CD2      179.6520  158.4690  165.4840 C.ar   78  PHE78      -0.0042
     28  CE1      177.1220  157.8600  164.5940 C.ar   78  PHE78      -0.0003
     29  CE2      179.2530  157.1540  165.4000 C.ar   78  PHE78      -0.0003
     30  CZ       177.9860  156.8500  164.9540 C.ar   78  PHE78      -0.0000
     31  N        179.8650  160.9070  168.2650 N.am   79  THR79      -0.1953
     32  CA       180.1150  159.9240  169.3150 C.3    79  THR79       0.1897
     33  C        179.3870  160.2450  170.6120 C.2    79  THR79       0.2313
     34  O        179.0760  159.3320  171.3800 O.2    79  THR79      -0.2863
     35  CB       181.6100  159.7870  169.5900 C.3    79  THR79       0.1794
     36  OG1      182.1310  161.0420  170.0290 O.3    79  THR79      -0.2208
     37  CG2      182.3380  159.3440  168.3400 C.3    79  THR79       0.0378
     38  N        168.8200  153.0080  174.3060 N.3    89  THR89      -0.1203
     39  CA       168.2870  151.7110  173.9170 C.3    89  THR89       0.1994
     40  C        168.9200  150.5550  174.6620 C.2    89  THR89       0.2618
     41  O        168.4250  149.4300  174.5640 O.2    89  THR89      -0.2717
     42  CB       168.4010  151.4990  172.4190 C.3    89  THR89       0.1784
     43  OG1      169.7390  151.7610  171.9820 O.3    89  THR89      -0.2211
     44  CG2      167.4200  152.4050  171.7430 C.3    89  THR89       0.0376
     45  N        169.9870  150.7960  175.4100 N.am   90  GLY90      -0.1956
     46  CA       170.3440  149.8540  176.4470 C.3    90  GLY90       0.1869
     47  C        169.3730  149.9140  177.6020 C.2    90  GLY90       0.2309
     48  O        169.1160  148.8940  178.2500 O.2    90  GLY90      -0.2863
     49  N        166.2540  148.0830  175.9260 N.3    93  GLY93      -0.1210
     50  CA       166.5270  146.6630  175.8200 C.3    93  GLY93       0.1956
     51  C        166.5950  145.9820  177.1700 C.2    93  GLY93       0.2611
     52  O        166.1040  144.8610  177.3380 O.2    93  GLY93      -0.2717
     53  N        167.1500  146.6710  178.1620 N.am   94  TRP94      -0.1976
     54  CA       167.2500  146.0690  179.4790 C.3    94  TRP94       0.1640
     55  C        165.9050  146.0080  180.1810 C.2    94  TRP94       0.2290
     56  O        165.6370  145.0560  180.9210 O.2    94  TRP94      -0.2864
     57  CB       168.2380  146.8430  180.3210 C.3    94  TRP94       0.0576
     58  CG       168.4750  146.1780  181.5770 C.ar   94  TRP94       0.0006
     59  CD1      168.0020  146.5320  182.7960 C.ar   94  TRP94       0.0946
     60  CD2      169.2230  144.9860  181.7600 C.ar   94  TRP94       0.0152
     61  NE1      168.4330  145.6410  183.7440 N.ar   94  TRP94      -0.2442
     62  CE2      169.1860  144.6780  183.1260 C.ar   94  TRP94       0.0810
     63  CE3      169.9370  144.1560  180.8990 C.ar   94  TRP94       0.0012
     64  CZ2      169.8360  143.5700  183.6510 C.ar   94  TRP94       0.0191
     65  CZ3      170.5680  143.0610  181.4140 C.ar   94  TRP94       0.0001
     66  CH2      170.5220  142.7790  182.7780 C.ar   94  TRP94       0.0015
     67  N        164.0170  143.1080  178.5030 N.3    97  ARG97      -0.1245
     68  CA       164.5250  141.8130  178.9300 C.3    97  ARG97       0.1563
     69  C        164.1410  141.5150  180.3710 C.2    97  ARG97       0.2260
     70  O        163.7600  140.3840  180.6950 O.2    97  ARG97      -0.2867
     71  CB       166.0350  141.7630  178.7740 C.3    97  ARG97       0.0307
     72  CG       166.5820  140.4140  179.0860 C.3    97  ARG97       0.0489
     73  CD       168.0760  140.3830  179.0460 C.3    97  ARG97       0.2205
     74  NE       168.5290  139.0460  179.3760 N.pl3  97  ARG97      -0.0865
     75  CZ       168.7080  138.6170  180.6170 C.cat  97  ARG97       0.5346
     76  NH1      169.1090  137.3760  180.8320 N.pl3  97  ARG97       0.1354
     77  NH2      168.4750  139.4230  181.6430 N.pl3  97  ARG97       0.1354
     78  N        171.7680  149.9920  183.6840 N.3   131  TRP131     -0.1241
     79  CA       171.9590  148.7850  182.9100 C.3   131  TRP131      0.1605
     80  C        173.3900  148.4330  182.4790 C.2   131  TRP131      0.2264
     81  O        173.6080  147.2470  182.2290 O.2   131  TRP131     -0.2867
     82  CB       171.0430  148.8370  181.6870 C.3   131  TRP131      0.0550
     83  CG       171.4410  149.8580  180.7580 C.ar  131  TRP131      0.0003
     84  CD1      171.0880  151.1620  180.7760 C.ar  131  TRP131      0.0946
     85  CD2      172.3180  149.6890  179.6550 C.ar  131  TRP131      0.0152
     86  NE1      171.6940  151.8270  179.7460 N.ar  131  TRP131     -0.2442
     87  CE2      172.4620  150.9370  179.0440 C.ar  131  TRP131      0.0810
     88  CE3      173.0110  148.5980  179.1330 C.ar  131  TRP131      0.0012
     89  CZ2      173.2670  151.1290  177.9330 C.ar  131  TRP131      0.0191
     90  CZ3      173.8000  148.7860  178.0290 C.ar  131  TRP131      0.0001
     91  CH2      173.9180  150.0390  177.4330 C.ar  131  TRP131      0.0015
     92  N        173.8080  144.7810  183.7000 N.3   135  ALA135     -0.1245
     93  CA       174.1020  143.7010  182.7680 C.3   135  ALA135      0.1562
     94  C        175.5080  143.1750  182.9650 C.2   135  ALA135      0.2260
     95  O        175.7720  142.0040  182.6840 O.2   135  ALA135     -0.2867
     96  CB       173.9330  144.1600  181.3240 C.3   135  ALA135      0.0290
     97  N        175.9390  139.4260  183.9110 N.3   139  TYR139     -0.1241
     98  CA       176.7270  138.6450  182.9720 C.3   139  TYR139      0.1605
     99  C        177.8240  137.8710  183.6810 C.2   139  TYR139      0.2264
    100  O        178.1570  136.7550  183.2700 O.2   139  TYR139     -0.2867
    101  CB       177.3160  139.5530  181.9030 C.3   139  TYR139      0.0534
    102  CG       178.0970  138.8040  180.8670 C.ar  139  TYR139     -0.0201
    103  CD1      177.4500  138.0420  179.9100 C.ar  139  TYR139     -0.0009
    104  CD2      179.4820  138.8540  180.8440 C.ar  139  TYR139     -0.0009
    105  CE1      178.1560  137.3490  178.9590 C.ar  139  TYR139      0.0417
    106  CE2      180.2000  138.1630  179.8970 C.ar  139  TYR139      0.0417
    107  CZ       179.5280  137.4140  178.9560 C.ar  139  TYR139      0.1957
    108  OH       180.2340  136.7210  178.0040 O.3   139  TYR139     -0.2866
    109  N        172.8260  136.4160  182.1380 N.3   144  LEU144     -0.1231
    110  CA       172.4640  137.1880  180.9550 C.3   144  LEU144      0.1693
    111  C        172.2370  136.2900  179.7480 C.2   144  LEU144      0.2591
    112  O        171.2650  136.4710  179.0090 O.2   144  LEU144     -0.2718
    113  CB       173.5440  138.2200  180.6500 C.3   144  LEU144      0.0284
    114  CG       173.2530  139.0880  179.4310 C.3   144  LEU144      0.0019
    115  CD1      171.9660  139.8430  179.6410 C.3   144  LEU144      0.0001
    116  CD2      174.3910  140.0470  179.1810 C.3   144  LEU144      0.0001
    117  N        173.1020  135.3100  179.5420 N.am  145  LEU145     -0.1980
    118  CA       172.9840  134.4190  178.4030 C.3   145  LEU145      0.1596
    119  C        172.0320  133.2740  178.7300 C.2   145  LEU145      0.2287
    120  O        171.2660  133.3150  179.6950 O.2   145  LEU145     -0.2864
    121  CB       174.3490  133.8780  178.0060 C.3   145  LEU145      0.0297
    122  CG       175.3810  134.9220  177.6110 C.3   145  LEU145      0.0022
    123  CD1      176.7000  134.2540  177.2730 C.3   145  LEU145      0.0001
    124  CD2      174.8820  135.7350  176.4610 C.3   145  LEU145      0.0001
@<TRIPOS>BOND
     1     6     5    1
     2    15    13   ar
     3    14    13   ar
     4    13    12    1
     5     1     2    1
     6     7     5    1
     7     5     2    1
     8     2     3    1
     9     4     3    2
    10     3     8   am
    11    12     9    1
    12     8     9    1
    13     9    10    1
    14    28    26   ar
    15    28    30   ar
    16    26    25   ar
    17    10    11    2
    18    10    16   am
    19    30    29   ar
    20    25    24    1
    21    25    27   ar
    22    24    21    1
    23    29    27   ar
    24    16    17    1
    25    21    20    1
    26    21    22    1
    27    17    18    1
    28    18    19    2
    29    22    23    2
    30    22    31   am
    31    31    32    1
    32    37    35    1
    33    32    35    1
    34    32    33    1
    35    35    36    1
    36    33    34    2
    37    44    42    1
    38    43    42    1
    39    42    39    1
    40    39    38    1
    41    39    40    1
    42    41    40    2
    43    40    45   am
    44    45    46    1
    45    50    49    1
    46    50    51    1
    47    46    47    1
    48   124   122    1
    49    51    52    2
    50    51    53   am
    51   123   122    1
    52    91    89   ar
    53    91    90   ar
    54    47    48    2
    55   122   121    1
    56    89    87   ar
    57   108   107    1
    58   121   118    1
    59    90    88   ar
    60    53    54    1
    61   118   119    1
    62   118   117    1
    63    67    68    1
    64   119   120    2
    65    71    68    1
    66    71    72    1
    67    68    69    1
    68   107   105   ar
    69   107   106   ar
    70   105   103   ar
    71   112   111    2
    72    87    85   ar
    73    87    86   ar
    74    73    72    1
    75    73    74    1
    76    88    85   ar
    77   116   114    1
    78    74    75    2
    79   114   115    1
    80   114   113    1
    81    54    55    1
    82    54    57    1
    83   117   111   am
    84    85    83   ar
    85    86    84   ar
    86   111   110    1
    87   106   104   ar
    88   103   102   ar
    89    55    56    2
    90    57    58    1
    91    69    70    2
    92    75    76    1
    93    75    77    1
    94   113   110    1
    95    83    84   ar
    96    83    82    1
    97   104   102   ar
    98   102   101    1
    99    63    65   ar
   100    63    60   ar
   101   110   109    1
   102    96    93    1
   103    65    66   ar
   104    58    60   ar
   105    58    59   ar
   106    82    79    1
   107    60    62   ar
   108   101    98    1
   109    81    80    2
   110    80    79    1
   111    95    94    2
   112    93    94    1
   113    93    92    1
   114    66    64   ar
   115    59    61   ar
   116    79    78    1
   117    98    99    1
   118    98    97    1
   119    62    64   ar
   120    62    61   ar
   121   100    99    2
