@<TRIPOS>MOLECULE
tmp/5zgbQ02.pdb
 82 78 0 0 0
SMALL
GASTEIGER

@<TRIPOS>ATOM
      1  N        211.9690  112.3170  111.3930 N.3   152  ILE152     -0.1231
      2  CA       213.2220  112.8790  111.8970 C.3   152  ILE152      0.1692
      3  C        213.9160  113.7020  110.8210 C.2   152  ILE152      0.2591
      4  O        214.3370  114.8380  111.0680 O.2   152  ILE152     -0.2718
      5  CB       214.1420  111.7740  112.4460 C.3   152  ILE152      0.0266
      6  CG1      213.6710  111.3330  113.8210 C.3   152  ILE152      0.0019
      7  CG2      215.5750  112.2350  112.5430 C.3   152  ILE152      0.0020
      8  CD1      212.7980  110.1780  113.7880 C.3   152  ILE152      0.0001
      9  N        214.0090  113.1530  109.6070 N.am  153  ALA153     -0.1980
     10  CA       214.6830  113.8370  108.5070 C.3   153  ALA153      0.1597
     11  C        213.9810  115.1330  108.1310 C.2   153  ALA153      0.2287
     12  O        214.6330  116.0910  107.7000 O.2   153  ALA153     -0.2864
     13  CB       214.7690  112.9120  107.2980 C.3   153  ALA153      0.0319
     14  N        212.6340  116.7270  110.5900 N.3   155  GLY155     -0.1210
     15  CA       213.0990  117.4960  111.7350 C.3   155  GLY155      0.1956
     16  C        214.3990  118.2280  111.4570 C.2   155  GLY155      0.2612
     17  O        214.5310  119.4230  111.7390 O.2   155  GLY155     -0.2717
     18  N        215.3700  117.5250  110.8750 N.am  156  GLY156     -0.1956
     19  CA       216.6010  118.1750  110.4730 C.3   156  GLY156      0.1869
     20  C        216.4160  119.1260  109.3130 C.2   156  GLY156      0.2309
     21  O        217.0900  120.1560  109.2430 O.2   156  GLY156     -0.2863
     22  N        215.3260  122.1720  111.0580 N.3   159  HIS159     -0.1226
     23  CA       216.2180  122.8240  112.0140 C.3   159  HIS159      0.1752
     24  C        217.5620  123.2430  111.4410 C.2   159  HIS159      0.2595
     25  O        218.4040  123.7160  112.2070 O.2   159  HIS159     -0.2718
     26  CB       216.4410  121.9150  113.2120 C.3   159  HIS159      0.0759
     27  CG       215.2130  121.7080  114.0320 C.ar  159  HIS159      0.0818
     28  ND1      214.3010  120.7150  113.7590 N.ar  159  HIS159     -0.2268
     29  CD2      214.7370  122.3740  115.1080 C.ar  159  HIS159      0.1154
     30  CE1      213.3230  120.7650  114.6430 C.ar  159  HIS159      0.1986
     31  NE2      213.5590  121.7680  115.4670 N.ar  159  HIS159     -0.2212
     32  N        217.8070  123.0980  110.1440 N.am  160  GLN160     -0.1979
     33  CA       219.0140  123.6640  109.5500 C.3   160  GLN160      0.1601
     34  C        218.6950  125.0840  109.0980 C.2   160  GLN160      0.2287
     35  O        218.4770  125.3730  107.9190 O.2   160  GLN160     -0.2864
     36  CB       219.5130  122.7830  108.4200 C.3   160  GLN160      0.0394
     37  CG       220.0380  121.4700  108.9380 C.3   160  GLN160      0.0908
     38  CD       220.3960  120.5140  107.8380 C.2   160  GLN160      0.2608
     39  OE1      220.2300  120.8130  106.6580 O.2   160  GLN160     -0.2717
     40  NE2      220.8690  119.3400  108.2170 N.am  160  GLN160     -0.0878
     41  N        219.7970  128.0030  111.7550 N.3   162  LEU162     -0.1231
     42  CA       220.5180  128.9880  112.5600 C.3   162  LEU162      0.1693
     43  C        221.9070  129.2560  111.9990 C.2   162  LEU162      0.2592
     44  O        222.2620  130.4070  111.7180 O.2   162  LEU162     -0.2718
     45  CB       220.6150  128.5270  114.0150 C.3   162  LEU162      0.0284
     46  CG       221.2640  129.5650  114.9420 C.3   162  LEU162      0.0019
     47  CD1      220.4070  130.8250  115.0340 C.3   162  LEU162      0.0001
     48  CD2      221.5470  129.0000  116.3250 C.3   162  LEU162      0.0001
     49  N        222.7060  128.2110  111.8220 N.am  163  LEU163     -0.1966
     50  CA       224.0040  128.3630  111.1840 C.3   163  LEU163      0.1728
     51  C        223.9200  128.3000  109.6670 C.2   163  LEU163      0.2616
     52  O        224.9620  128.3490  109.0040 O.2   163  LEU163     -0.2715
     53  CB       224.9910  127.2970  111.6810 C.3   163  LEU163      0.0311
     54  CG       225.7630  127.5110  112.9890 C.3   163  LEU163      0.0022
     55  CD1      224.8910  127.3160  114.2250 C.3   163  LEU163      0.0001
     56  CD2      226.9860  126.5980  113.0330 C.3   163  LEU163      0.0001
     57  N        222.7200  128.1830  109.0990 N.am  164  THR164     -0.1951
     58  CA       222.5920  128.0810  107.6520 C.3   164  THR164      0.1897
     59  C        221.8550  129.2650  107.0400 C.2   164  THR164      0.2313
     60  O        222.4530  129.9920  106.2400 O.2   164  THR164     -0.2863
     61  CB       221.8960  126.7630  107.2980 C.3   164  THR164      0.1794
     62  OG1      222.6340  125.6750  107.8640 O.3   164  THR164     -0.2208
     63  CG2      221.8390  126.5810  105.7950 C.3   164  THR164      0.0378
     64  N        223.0140  123.6960  101.9560 N.3   171  GLN171     -0.1245
     65  CA       223.6680  122.9530  103.0250 C.3   171  GLN171      0.1566
     66  C        224.5360  121.8350  102.4600 C.2   171  GLN171      0.2260
     67  O        225.5940  121.5300  103.0200 O.2   171  GLN171     -0.2867
     68  CB       222.6210  122.4010  103.9940 C.3   171  GLN171      0.0367
     69  CG       223.1780  121.6540  105.1940 C.3   171  GLN171      0.0905
     70  CD       223.9630  122.5500  106.1290 C.2   171  GLN171      0.2608
     71  OE1      223.5670  123.6830  106.4030 O.2   171  GLN171     -0.2717
     72  NE2      225.0870  122.0450  106.6240 N.am  171  GLN171     -0.0878
     73  N        227.9690  122.9750  101.5230 N.3   174  HIS174     -0.1241
     74  CA       228.6360  123.4930  102.7150 C.3   174  HIS174      0.1621
     75  C        229.1010  122.2950  103.5320 C.2   174  HIS174      0.2264
     76  O        228.2720  121.5970  104.1240 O.2   174  HIS174     -0.2867
     77  CB       227.6880  124.3860  103.5190 C.3   174  HIS174      0.0745
     78  CG       228.3360  125.0880  104.6720 C.ar  174  HIS174      0.0817
     79  ND1      228.3940  124.5470  105.9380 N.ar  174  HIS174     -0.2268
     80  CD2      228.9500  126.2920  104.7490 C.ar  174  HIS174      0.1154
     81  CE1      229.0110  125.3910  106.7470 C.ar  174  HIS174      0.1986
     82  NE2      229.3620  126.4550  106.0490 N.ar  174  HIS174     -0.2212
@<TRIPOS>BOND
     1    73    74    1
     2    64    65    1
     3    66    67    2
     4    66    65    1
     5    74    77    1
     6    74    75    1
     7    65    68    1
     8    77    78    1
     9    75    76    2
    10    68    69    1
    11    78    80   ar
    12    78    79   ar
    13    80    82   ar
    14    69    70    1
    15    63    61    1
    16    79    81   ar
    17    82    81   ar
    18    70    71    2
    19    70    72   am
    20    60    59    2
    21    39    38    2
    22    59    58    1
    23    61    58    1
    24    61    62    1
    25    13    10    1
    26    58    57    1
    27    12    11    2
    28    38    40   am
    29    38    37    1
    30    35    34    2
    31    11    10    1
    32    36    37    1
    33    36    33    1
    34    10     9    1
    35    52    51    2
    36    34    33    1
    37    57    51   am
    38    21    20    2
    39    20    19    1
    40    33    32    1
    41     9     3   am
    42    51    50    1
    43    32    24   am
    44    19    18    1
    45    14    15    1
    46     3     4    2
    47     3     2    1
    48    18    16   am
    49    22    23    1
    50    50    53    1
    51    50    49    1
    52     1     2    1
    53    24    23    1
    54    24    25    2
    55    16    15    1
    56    16    17    2
    57    53    54    1
    58    44    43    2
    59    41    42    1
    60    49    43   am
    61     2     5    1
    62    43    42    1
    63    23    26    1
    64     5     7    1
    65     5     6    1
    66    42    45    1
    67    54    56    1
    68    54    55    1
    69    26    27    1
    70    28    27   ar
    71    28    30   ar
    72     8     6    1
    73    45    46    1
    74    27    29   ar
    75    30    31   ar
    76    46    47    1
    77    46    48    1
    78    29    31   ar
