@<TRIPOS>MOLECULE
tmp/5zgbP04.pdb
 146 142 0 0 0
SMALL
GASTEIGER

@<TRIPOS>ATOM
      1  N        164.9640  116.1890   91.4230 N.3    42  LYS42      -0.1245
      2  CA       164.3220  117.4600   91.1120 C.3    42  LYS42       0.1561
      3  C        165.3380  118.5950   91.0410 C.2    42  LYS42       0.2260
      4  O        165.2400  119.4620   90.1630 O.2    42  LYS42      -0.2867
      5  CB       163.2300  117.7480   92.1360 C.3    42  LYS42       0.0271
      6  CG       162.3480  118.9140   91.7750 C.3    42  LYS42       0.0035
      7  CD       161.1470  118.9690   92.6870 C.3    42  LYS42       0.0206
      8  CE       160.2650  120.1610   92.3850 C.3    42  LYS42       0.1093
      9  NZ       159.0920  120.2300   93.2940 N.3    42  LYS42      -0.1314
     10  N        167.0430  118.1530   87.6580 N.3    45  ARG45      -0.1231
     11  CA       166.2710  118.5500   86.4920 C.3    45  ARG45       0.1694
     12  C        166.1070  120.0610   86.4270 C.2    45  ARG45       0.2591
     13  O        166.1740  120.6440   85.3390 O.2    45  ARG45      -0.2718
     14  CB       164.9230  117.8340   86.5080 C.3    45  ARG45       0.0321
     15  CG       165.0880  116.3310   86.3730 C.3    45  ARG45       0.0489
     16  CD       163.7990  115.5750   86.5840 C.3    45  ARG45       0.2205
     17  NE       163.1990  115.8480   87.8820 N.pl3  45  ARG45      -0.0865
     18  CZ       162.0450  115.3270   88.2870 C.cat  45  ARG45       0.5346
     19  NH1      161.3910  114.4730   87.5100 N.pl3  45  ARG45       0.1354
     20  NH2      161.5620  115.6290   89.4840 N.pl3  45  ARG45       0.1354
     21  N        165.9250  120.7240   87.5700 N.am   46  VAL46      -0.1980
     22  CA       165.7430  122.1660   87.4800 C.3    46  VAL46       0.1595
     23  C        167.0920  122.8740   87.3510 C.2    46  VAL46       0.2287
     24  O        167.1840  123.9280   86.7080 O.2    46  VAL46      -0.2864
     25  CB       164.9060  122.6900   88.6610 C.3    46  VAL46       0.0276
     26  CG1      165.6830  122.7010   89.9470 C.3    46  VAL46       0.0022
     27  CG2      164.3650  124.0600   88.3540 C.3    46  VAL46       0.0022
     28  N        167.6870  122.3880   83.5330 N.3    49  LEU49      -0.1245
     29  CA       167.0440  123.4170   82.7280 C.3    49  LEU49       0.1561
     30  C        167.6790  124.7790   82.9490 C.2    49  LEU49       0.2260
     31  O        167.7320  125.5940   82.0220 O.2    49  LEU49      -0.2867
     32  CB       165.5600  123.4910   83.0570 C.3    49  LEU49       0.0270
     33  CG       164.7290  122.2620   82.7210 C.3    49  LEU49       0.0019
     34  CD1      163.2970  122.4860   83.1640 C.3    49  LEU49       0.0001
     35  CD2      164.8080  121.9570   81.2380 C.3    49  LEU49       0.0001
     36  N        162.0480  137.3150   72.6230 N.3    63  PRO63      -0.2102
     37  CA       160.7660  137.8300   72.0930 C.3    63  PRO63       0.1504
     38  C        160.2120  139.0800   72.7740 C.2    63  PRO63       0.2576
     39  O        159.3430  139.0320   73.6470 O.2    63  PRO63      -0.2718
     40  CB       159.8290  136.6340   72.2790 C.3    63  PRO63       0.0282
     41  CG       160.3520  135.9500   73.4840 C.3    63  PRO63       0.0208
     42  CD       161.8410  136.1410   73.4880 C.3    63  PRO63       0.0893
     43  N        160.7580  140.2310   72.3700 N.am   64  PHE64      -0.1963
     44  CA       160.1860  141.5760   72.4860 C.3    64  PHE64       0.1771
     45  C        160.2300  142.1440   73.9120 C.2    64  PHE64       0.2619
     46  O        160.0480  143.3570   74.0840 O.2    64  PHE64      -0.2715
     47  CB       158.7440  141.6010   71.9200 C.3    64  PHE64       0.0574
     48  CG       158.0870  142.9570   71.8820 C.ar   64  PHE64      -0.0200
     49  CD1      158.4440  143.8970   70.9270 C.ar   64  PHE64      -0.0042
     50  CD2      157.0900  143.2760   72.7940 C.ar   64  PHE64      -0.0042
     51  CE1      157.8280  145.1390   70.8930 C.ar   64  PHE64      -0.0003
     52  CE2      156.4710  144.5140   72.7670 C.ar   64  PHE64      -0.0003
     53  CZ       156.8400  145.4450   71.8150 C.ar   64  PHE64      -0.0000
     54  N        160.5690  141.3530   74.9270 N.am   65  PHE65      -0.1974
     55  CA       160.4650  141.8500   76.2960 C.3    65  PHE65       0.1639
     56  C        161.7970  142.2130   76.9320 C.2    65  PHE65       0.2290
     57  O        161.8570  143.1710   77.7050 O.2    65  PHE65      -0.2864
     58  CB       159.7350  140.8320   77.1930 C.3    65  PHE65       0.0560
     59  CG       160.4880  139.5470   77.4230 C.ar   65  PHE65      -0.0200
     60  CD1      160.3910  138.5090   76.5220 C.ar   65  PHE65      -0.0042
     61  CD2      161.2430  139.3560   78.5690 C.ar   65  PHE65      -0.0042
     62  CE1      161.0610  137.3310   76.7280 C.ar   65  PHE65      -0.0003
     63  CE2      161.9180  138.1730   78.7720 C.ar   65  PHE65      -0.0003
     64  CZ       161.8190  137.1620   77.8460 C.ar   65  PHE65      -0.0000
     65  N        155.7030  133.6430   87.4460 N.3    88  ILE88      -0.1245
     66  CA       156.1910  132.3040   87.1560 C.3    88  ILE88       0.1561
     67  C        156.2250  131.4480   88.4200 C.2    88  ILE88       0.2260
     68  O        156.1890  130.2160   88.3200 O.2    88  ILE88      -0.2867
     69  CB       157.5530  132.3690   86.4420 C.3    88  ILE88       0.0252
     70  CG1      157.7910  131.0970   85.6360 C.3    88  ILE88       0.0019
     71  CG2      158.6870  132.5320   87.4170 C.3    88  ILE88       0.0019
     72  CD1      156.8110  130.9210   84.5090 C.3    88  ILE88       0.0001
     73  N        152.6820  130.1790   88.1220 N.3    91  PHE91      -0.1227
     74  CA       152.5850  129.1250   87.1160 C.3    91  PHE91       0.1736
     75  C        153.2050  127.8230   87.5990 C.2    91  PHE91       0.2595
     76  O        152.6140  126.7490   87.4300 O.2    91  PHE91      -0.2718
     77  CB       153.2570  129.5730   85.8200 C.3    91  PHE91       0.0547
     78  CG       153.2520  128.5250   84.7500 C.ar   91  PHE91      -0.0202
     79  CD1      152.0810  128.2150   84.0750 C.ar   91  PHE91      -0.0042
     80  CD2      154.4160  127.8500   84.4170 C.ar   91  PHE91      -0.0042
     81  CE1      152.0690  127.2480   83.0890 C.ar   91  PHE91      -0.0003
     82  CE2      154.4120  126.8830   83.4330 C.ar   91  PHE91      -0.0003
     83  CZ       153.2360  126.5820   82.7670 C.ar   91  PHE91      -0.0000
     84  N        154.3910  127.9040   88.2100 N.am   92  ILE92      -0.1980
     85  CA       155.0190  126.7290   88.8060 C.3    92  ILE92       0.1595
     86  C        154.1710  126.1740   89.9410 C.2    92  ILE92       0.2287
     87  O        154.0630  124.9490   90.0960 O.2    92  ILE92      -0.2864
     88  CB       156.4610  127.0830   89.2310 C.3    92  ILE92       0.0276
     89  CG1      157.3360  127.1510   87.9790 C.3    92  ILE92       0.0022
     90  CG2      157.0330  126.1170   90.2520 C.3    92  ILE92       0.0022
     91  CD1      158.7030  127.7070   88.1960 C.3    92  ILE92       0.0001
     92  N        151.6850  124.1870   88.3720 N.3    95  LEU95      -0.1231
     93  CA       152.2130  122.8710   88.0510 C.3    95  LEU95       0.1693
     94  C        152.2090  121.9820   89.2830 C.2    95  LEU95       0.2591
     95  O        151.7290  120.8460   89.2400 O.2    95  LEU95      -0.2718
     96  CB       153.6260  122.9850   87.4810 C.3    95  LEU95       0.0284
     97  CG       153.7630  123.6850   86.1320 C.3    95  LEU95       0.0019
     98  CD1      155.2290  123.7930   85.7660 C.3    95  LEU95       0.0001
     99  CD2      152.9840  122.9460   85.0570 C.3    95  LEU95       0.0001
    100  N        152.6840  122.5010   90.4070 N.am   96  GLU96      -0.1979
    101  CA       152.9920  121.6340   91.5290 C.3    96  GLU96       0.1602
    102  C        151.7560  121.3210   92.3710 C.2    96  GLU96       0.2287
    103  O        151.8470  120.5480   93.3320 O.2    96  GLU96      -0.2864
    104  CB       154.1210  122.2740   92.3430 C.3    96  GLU96       0.0415
    105  CG       154.9390  121.2980   93.1510 C.3    96  GLU96       0.1163
    106  CD       156.2350  121.9000   93.6380 C.2    96  GLU96       0.3649
    107  OE1      156.4300  123.1140   93.4130 O.co2  96  GLU96      -0.2457
    108  OE2      157.0540  121.1610   94.1860 O.co2  96  GLU96      -0.2457
    109  N        151.4410  118.0260   89.8860 N.3    99  LEU99      -0.1231
    110  CA       152.5670  117.0980   89.7930 C.3    99  LEU99       0.1693
    111  C        152.6380  116.1610   90.9910 C.2    99  LEU99       0.2592
    112  O        152.5120  114.9390   90.8500 O.2    99  LEU99      -0.2718
    113  CB       153.8740  117.8760   89.6400 C.3    99  LEU99       0.0284
    114  CG       154.4190  118.1030   88.2260 C.3    99  LEU99       0.0019
    115  CD1      153.5380  118.9560   87.3440 C.3    99  LEU99       0.0001
    116  CD2      155.7950  118.7260   88.3410 C.3    99  LEU99       0.0001
    117  N        152.8280  116.7110   92.1820 N.am  100  HIS100     -0.1976
    118  CA       153.0940  115.8490   93.3220 C.3   100  HIS100      0.1656
    119  C        151.8300  115.4560   94.0690 C.2   100  HIS100      0.2291
    120  O        151.7780  114.3570   94.6300 O.2   100  HIS100     -0.2864
    121  CB       154.0820  116.5340   94.2640 C.3   100  HIS100      0.0771
    122  CG       155.4290  116.7490   93.6530 C.ar  100  HIS100      0.0820
    123  ND1      156.3250  115.7220   93.4530 N.ar  100  HIS100     -0.2267
    124  CD2      156.0280  117.8680   93.1840 C.ar  100  HIS100      0.1154
    125  CE1      157.4210  116.2000   92.8920 C.ar  100  HIS100      0.1986
    126  NE2      157.2670  117.5000   92.7200 N.ar  100  HIS100     -0.2212
    127  N        156.8350  111.9780   88.6070 N.3   118  GLU118     -0.1245
    128  CA       155.4260  112.2410   88.8570 C.3   118  GLU118      0.1567
    129  C        154.6120  112.2100   87.5680 C.2   118  GLU118      0.2260
    130  O        155.0190  112.7800   86.5490 O.2   118  GLU118     -0.2867
    131  CB       155.2560  113.5710   89.5960 C.3   118  GLU118      0.0388
    132  CG       155.8650  114.7850   88.9220 C.3   118  GLU118      0.1160
    133  CD       157.3010  115.0410   89.3480 C.2   118  GLU118      0.3649
    134  OE1      157.9230  114.1350   89.9420 O.co2 118  GLU118     -0.2457
    135  OE2      157.8070  116.1520   89.0870 O.co2 118  GLU118     -0.2457
    136  N        155.3460  112.0570   83.0050 N.3   121  PHE121     -0.1241
    137  CA       155.4980  113.0260   81.9280 C.3   121  PHE121      0.1605
    138  C        156.4200  112.4500   80.8730 C.2   121  PHE121      0.2264
    139  O        157.6450  112.5740   80.9670 O.2   121  PHE121     -0.2867
    140  CB       156.0510  114.3620   82.4270 C.3   121  PHE121      0.0534
    141  CG       155.0190  115.2640   83.0360 C.ar  121  PHE121     -0.0203
    142  CD1      153.6650  115.0110   82.8700 C.ar  121  PHE121     -0.0042
    143  CD2      155.4040  116.3880   83.7480 C.ar  121  PHE121     -0.0042
    144  CE1      152.7130  115.8510   83.4220 C.ar  121  PHE121     -0.0003
    145  CE2      154.4590  117.2320   84.3030 C.ar  121  PHE121     -0.0003
    146  CZ       153.1130  116.9620   84.1400 C.ar  121  PHE121     -0.0000
@<TRIPOS>BOND
     1    51    49   ar
     2    51    53   ar
     3    49    48   ar
     4    53    52   ar
     5    48    47    1
     6    48    50   ar
     7    47    44    1
     8    37    40    1
     9    37    36    1
    10    37    38    1
    11    40    41    1
    12    43    44    1
    13    43    38   am
    14    44    45    1
    15    36    42    1
    16    52    50   ar
    17    38    39    2
    18    41    42    1
    19    45    46    2
    20    45    54   am
    21    54    55    1
    22    55    56    1
    23    55    58    1
    24    60    62   ar
    25    60    59   ar
    26    62    64   ar
    27    56    57    2
    28    58    59    1
    29    59    61   ar
    30    64    63   ar
    31    61    63   ar
    32   138   139    2
    33   138   137    1
    34    35    33    1
    35   137   140    1
    36   137   136    1
    37    31    30    2
    38   140   141    1
    39    33    32    1
    40    33    34    1
    41    29    30    1
    42    29    32    1
    43    29    28    1
    44    83    81   ar
    45    83    82   ar
    46   142   141   ar
    47   142   144   ar
    48   141   143   ar
    49    81    79   ar
    50   144   146   ar
    51    82    80   ar
    52   143   145   ar
    53    79    78   ar
    54   146   145   ar
    55    80    78   ar
    56    72    70    1
    57    78    77    1
    58    99    97    1
    59    13    12    2
    60    70    69    1
    61    98    97    1
    62    77    74    1
    63    97    96    1
    64    15    14    1
    65    15    16    1
    66    12    11    1
    67    12    21   am
    68    69    66    1
    69    69    71    1
    70    11    14    1
    71    11    10    1
    72   130   129    2
    73    16    17    1
    74    24    23    2
    75    74    75    1
    76    74    73    1
    77    66    65    1
    78    66    67    1
    79   115   114    1
    80    23    22    1
    81    76    75    2
    82    22    21    1
    83    22    25    1
    84    96    93    1
    85    19    18    1
    86   129   128    1
    87    75    84   am
    88    17    18    2
    89    89    91    1
    90    89    88    1
    91    93    92    1
    92    93    94    1
    93    84    85    1
    94   114   116    1
    95   114   113    1
    96    18    20    1
    97    68    67    2
    98    27    25    1
    99   127   128    1
   100    25    26    1
   101    85    88    1
   102    85    86    1
   103   128   131    1
   104   132   133    1
   105   132   131    1
   106   135   133   ar
   107    88    90    1
   108    95    94    2
   109    94   100   am
   110   133   134   ar
   111   113   110    1
   112   110   109    1
   113   110   111    1
   114    86    87    2
   115     4     3    2
   116   100   101    1
   117   112   111    2
   118   111   117   am
   119     3     2    1
   120     2     1    1
   121     2     5    1
   122   101   104    1
   123   101   102    1
   124     6     5    1
   125     6     7    1
   126   117   118    1
   127   104   105    1
   128   102   103    2
   129     8     7    1
   130     8     9    1
   131   126   125   ar
   132   126   124   ar
   133   125   123   ar
   134   105   106    1
   135   124   122   ar
   136   118   119    1
   137   118   121    1
   138   107   106   ar
   139   123   122   ar
   140   106   108   ar
   141   122   121    1
   142   119   120    2
