@<TRIPOS>MOLECULE
tmp/5zgbJ11.pdb
 95 92 0 0 0
SMALL
GASTEIGER

@<TRIPOS>ATOM
      1  N        137.8240  132.3180  100.8230 N.3    37  TYR37      -0.1227
      2  CA       137.0970  133.4800  100.3350 C.3    37  TYR37       0.1736
      3  C        137.0140  134.5490  101.4050 C.2    37  TYR37       0.2595
      4  O        136.9680  135.7420  101.0940 O.2    37  TYR37      -0.2718
      5  CB       135.6910  133.0870   99.8960 C.3    37  TYR37       0.0548
      6  CG       134.9180  134.2390   99.3100 C.ar   37  TYR37      -0.0200
      7  CD1      135.1620  134.6630   98.0190 C.ar   37  TYR37      -0.0009
      8  CD2      133.9620  134.9140  100.0530 C.ar   37  TYR37      -0.0009
      9  CE1      134.4770  135.7160   97.4780 C.ar   37  TYR37       0.0417
     10  CE2      133.2700  135.9700   99.5200 C.ar   37  TYR37       0.0417
     11  CZ       133.5300  136.3630   98.2310 C.ar   37  TYR37       0.1957
     12  OH       132.8420  137.4190   97.6880 O.3    37  TYR37      -0.2866
     13  N        136.9820  134.1320  102.6640 N.am   38  PHE38      -0.1976
     14  CA       136.8570  135.0830  103.7570 C.3    38  PHE38       0.1639
     15  C        138.1330  135.8930  103.9600 C.2    38  PHE38       0.2290
     16  O        138.0820  137.1190  104.1040 O.2    38  PHE38      -0.2864
     17  CB       136.4850  134.3290  105.0250 C.3    38  PHE38       0.0560
     18  CG       136.5580  135.1560  106.2380 C.ar   38  PHE38      -0.0200
     19  CD1      135.6090  136.1100  106.4850 C.ar   38  PHE38      -0.0042
     20  CD2      137.5910  134.9880  107.1400 C.ar   38  PHE38      -0.0042
     21  CE1      135.6840  136.8790  107.6030 C.ar   38  PHE38      -0.0003
     22  CE2      137.6690  135.7690  108.2520 C.ar   38  PHE38      -0.0003
     23  CZ       136.7120  136.7140  108.4900 C.ar   38  PHE38      -0.0000
     24  N        140.6210  137.0240  102.3320 N.3    40  ILE40      -0.1231
     25  CA       141.0950  138.1250  101.5070 C.3    40  ILE40       0.1692
     26  C        140.6910  139.4510  102.1310 C.2    40  ILE40       0.2593
     27  O        141.4330  140.4380  102.0430 O.2    40  ILE40      -0.2718
     28  CB       140.5570  137.9520  100.0750 C.3    40  ILE40       0.0266
     29  CG1      141.1230  136.6770   99.4670 C.3    40  ILE40       0.0019
     30  CG2      140.9120  139.1210   99.1770 C.3    40  ILE40       0.0020
     31  CD1      142.6060  136.7130   99.2720 C.3    40  ILE40       0.0001
     32  N        139.5550  139.4660  102.8310 N.am   41  GLY41      -0.1943
     33  CA       138.9400  140.6530  103.3780 C.3    41  GLY41       0.1998
     34  C        139.8110  141.5000  104.2830 C.2    41  GLY41       0.2480
     35  O        140.1820  142.6210  103.9290 O.2    41  GLY41      -0.2729
     36  N        140.1950  140.9810  105.4460 N.am   42  PRO42      -0.2726
     37  CA       141.0240  141.7890  106.3490 C.3    42  PRO42       0.1402
     38  C        142.5080  141.7550  106.0240 C.2    42  PRO42       0.2269
     39  O        143.3430  141.6500  106.9240 O.2    42  PRO42      -0.2865
     40  CB       140.7610  141.1600  107.7190 C.3    42  PRO42       0.0296
     41  CG       139.5140  140.3690  107.5520 C.3    42  PRO42       0.0237
     42  CD       139.5590  139.8650  106.1570 C.3    42  PRO42       0.0939
     43  N        143.0700  143.2660  102.4060 N.3    44  VAL44      -0.1231
     44  CA       142.9690  144.2420  101.3360 C.3    44  VAL44       0.1692
     45  C        142.7350  145.6290  101.9050 C.2    44  VAL44       0.2592
     46  O        143.4930  146.5670  101.6330 O.2    44  VAL44      -0.2718
     47  CB       141.8490  143.8450  100.3650 C.3    44  VAL44       0.0266
     48  CG1      141.5940  144.9620   99.3890 C.3    44  VAL44       0.0020
     49  CG2      142.2210  142.5740   99.6410 C.3    44  VAL44       0.0020
     50  N        141.6830  145.7770  102.7050 N.am   45  GLN45      -0.1966
     51  CA       141.3120  147.1010  103.1740 C.3    45  GLN45       0.1733
     52  C        142.2490  147.5970  104.2650 C.2    45  GLN45       0.2616
     53  O        142.5000  148.8030  104.3580 O.2    45  GLN45      -0.2715
     54  CB       139.8630  147.0890  103.6620 C.3    45  GLN45       0.0408
     55  CG       139.3050  148.4600  104.0060 C.3    45  GLN45       0.0908
     56  CD       137.8600  148.4200  104.4520 C.2    45  GLN45       0.2608
     57  OE1      137.2370  147.3600  104.4940 O.2    45  GLN45      -0.2717
     58  NE2      137.3240  149.5790  104.8090 N.am   45  GLN45      -0.0878
     59  N        142.8120  146.6960  105.0660 N.am   46  LEU46      -0.1977
     60  CA       143.5660  147.1060  106.2400 C.3    46  LEU46       0.1596
     61  C        145.0280  146.6910  106.2390 C.2    46  LEU46       0.2287
     62  O        145.7320  147.0130  107.1940 O.2    46  LEU46      -0.2864
     63  CB       142.8980  146.5760  107.5160 C.3    46  LEU46       0.0297
     64  CG       141.7910  147.4170  108.1570 C.3    46  LEU46       0.0022
     65  CD1      140.5150  147.4450  107.3540 C.3    46  LEU46       0.0001
     66  CD2      141.4840  146.8860  109.5280 C.3    46  LEU46       0.0001
     67  N        138.0510  135.3130   95.5240 N.3   113  ALA113     -0.1245
     68  CA       137.7850  136.6610   96.0140 C.3   113  ALA113      0.1562
     69  C        138.6430  137.6880   95.2950 C.2   113  ALA113      0.2260
     70  O        138.1880  138.8110   95.0640 O.2   113  ALA113     -0.2867
     71  CB       138.0160  136.7480   97.5240 C.3   113  ALA113      0.0290
     72  N        137.0410  138.2500   92.0680 N.3   116  LEU116     -0.1231
     73  CA       135.7790  138.9380   92.3040 C.3   116  LEU116      0.1693
     74  C        135.9470  140.3040   92.9480 C.2   116  LEU116      0.2591
     75  O        134.9430  140.9670   93.2200 O.2   116  LEU116     -0.2718
     76  CB       134.8360  138.0800   93.1480 C.3   116  LEU116      0.0284
     77  CG       133.8370  137.2580   92.3240 C.3   116  LEU116      0.0019
     78  CD1      134.4800  136.1140   91.5590 C.3   116  LEU116      0.0001
     79  CD2      132.6810  136.7580   93.1910 C.3   116  LEU116      0.0001
     80  N        137.1740  140.7430   93.2000 N.am  117  LEU117     -0.1980
     81  CA       137.4270  142.1500   93.4630 C.3   117  LEU117      0.1596
     82  C        137.7620  142.9170   92.1970 C.2   117  LEU117      0.2287
     83  O        138.2080  144.0640   92.2800 O.2   117  LEU117     -0.2864
     84  CB       138.5460  142.3200   94.4880 C.3   117  LEU117      0.0297
     85  CG       138.1470  141.9780   95.9210 C.3   117  LEU117      0.0022
     86  CD1      139.3330  142.0900   96.8560 C.3   117  LEU117      0.0001
     87  CD2      137.0190  142.8820   96.3760 C.3   117  LEU117      0.0001
     88  N        135.3620  143.6030   89.8470 N.3   119  LEU119     -0.1245
     89  CA       134.2110  144.4850   89.7350 C.3   119  LEU119      0.1561
     90  C        134.1390  145.4380   90.9200 C.2   119  LEU119      0.2260
     91  O        133.4340  145.1780   91.8930 O.2   119  LEU119     -0.2867
     92  CB       132.9240  143.6720   89.6380 C.3   119  LEU119      0.0270
     93  CG       132.8040  142.7990   88.3920 C.3   119  LEU119      0.0019
     94  CD1      131.5340  141.9710   88.4480 C.3   119  LEU119      0.0001
     95  CD2      132.8430  143.6480   87.1350 C.3   119  LEU119      0.0001
@<TRIPOS>BOND
     1    95    93    1
     2    93    94    1
     3    93    92    1
     4    92    89    1
     5    89    88    1
     6    89    90    1
     7    90    91    2
     8    78    77    1
     9    72    73    1
    10    82    83    2
    11    82    81    1
    12    73    74    1
    13    73    76    1
    14    77    76    1
    15    77    79    1
    16    74    80   am
    17    74    75    2
    18    80    81    1
    19    81    84    1
    20    84    85    1
    21    70    69    2
    22    69    68    1
    23    67    68    1
    24    85    87    1
    25    85    86    1
    26    68    71    1
    27     9     7   ar
    28     9    11   ar
    29    12    11    1
    30     7     6   ar
    31    11    10   ar
    32    30    28    1
    33    31    29    1
    34     6     5    1
    35     6     8   ar
    36    48    47    1
    37    29    28    1
    38    10     8   ar
    39    49    47    1
    40     5     2    1
    41    28    25    1
    42     2     1    1
    43     2     3    1
    44    47    44    1
    45     4     3    2
    46    44    45    1
    47    44    43    1
    48     3    13   am
    49    25    26    1
    50    25    24    1
    51    46    45    2
    52    45    50   am
    53    27    26    2
    54    26    32   am
    55    13    14    1
    56    50    51    1
    57    32    33    1
    58    51    54    1
    59    51    52    1
    60    33    34    1
    61    54    55    1
    62    14    15    1
    63    14    17    1
    64    35    34    2
    65    15    16    2
    66    55    56    1
    67    52    53    2
    68    52    59   am
    69    34    36   am
    70    56    57    2
    71    56    58   am
    72    17    18    1
    73    59    60    1
    74    36    42    1
    75    36    37    1
    76    38    37    1
    77    38    39    2
    78    42    41    1
    79    18    19   ar
    80    18    20   ar
    81    61    60    1
    82    61    62    2
    83    60    63    1
    84    37    40    1
    85    19    21   ar
    86    20    22   ar
    87    65    64    1
    88    63    64    1
    89    41    40    1
    90    21    23   ar
    91    64    66    1
    92    22    23   ar
