@<TRIPOS>MOLECULE
tmp/5zghC14.pdb
 180 168 0 0 0
SMALL
GASTEIGER

@<TRIPOS>ATOM
      1  N         80.9270  164.8020  177.5770 N.3     4  ALA4       -0.1245
      2  CA        81.1510  165.8930  176.6350 C.3     4  ALA4        0.1562
      3  C         80.7750  165.5540  175.1870 C.2     4  ALA4        0.2260
      4  O         79.9010  166.2270  174.6290 O.2     4  ALA4       -0.2867
      5  CB        82.6010  166.3810  176.7150 C.3     4  ALA4        0.0290
      6  N         90.2110  156.3050  177.9020 N.3    12  GLU12      -0.1245
      7  CA        91.0490  156.8740  178.9510 C.3    12  GLU12       0.1567
      8  C         90.2250  157.3750  180.1280 C.2    12  GLU12       0.2260
      9  O         89.3180  158.1940  179.9590 O.2    12  GLU12      -0.2867
     10  CB        91.8800  158.0160  178.3870 C.3    12  GLU12       0.0388
     11  CG        92.7030  158.7620  179.4260 C.3    12  GLU12       0.1160
     12  CD        93.8060  157.9330  180.0380 C.2    12  GLU12       0.3649
     13  OE1       94.3060  157.0030  179.3720 O.co2  12  GLU12      -0.2457
     14  OE2       94.1810  158.2180  181.1930 O.co2  12  GLU12      -0.2457
     15  N         93.9560  161.3880  185.7570 N.3    16  ALA16      -0.1231
     16  CA        94.5050  162.5800  185.1350 C.3    16  ALA16       0.1694
     17  C         94.0000  163.8850  185.7260 C.2    16  ALA16       0.2593
     18  O         94.6790  164.9060  185.5800 O.2    16  ALA16      -0.2718
     19  CB        94.2130  162.5820  183.6280 C.3    16  ALA16       0.0304
     20  N         92.8470  163.8870  186.3840 N.am   17  GLY17      -0.1942
     21  CA        92.1740  165.1210  186.7260 C.3    17  GLY17       0.2014
     22  C         91.3900  165.6530  185.5410 C.2    17  GLY17       0.2639
     23  O         91.5880  165.2520  184.3900 O.2    17  GLY17      -0.2714
     24  N         90.4850  166.5900  185.8430 N.am   18  SER18      -0.1949
     25  CA        89.5300  167.1790  184.8930 C.3    18  SER18       0.1924
     26  C         88.7160  166.0950  184.1870 C.2    18  SER18       0.2314
     27  O         88.8120  165.8860  182.9770 O.2    18  SER18      -0.2863
     28  CB        90.2250  168.0980  183.8800 C.3    18  SER18       0.2116
     29  OG        91.0380  167.3600  182.9860 O.3    18  SER18      -0.2180
     30  N         86.3880  164.8160  182.3500 N.3    20  ALA20      -0.1231
     31  CA        85.3950  164.9010  181.2900 C.3    20  ALA20       0.1694
     32  C         85.8110  163.9620  180.1690 C.2    20  ALA20       0.2592
     33  O         84.9590  163.3440  179.5300 O.2    20  ALA20      -0.2718
     34  CB        85.2470  166.3350  180.7820 C.3    20  ALA20       0.0304
     35  N         87.1240  163.8610  179.9450 N.am   21  GLU21      -0.1966
     36  CA        87.7550  162.9550  178.9780 C.3    21  GLU21       0.1733
     37  C         87.2590  163.2170  177.5530 C.2    21  GLU21       0.2616
     38  O         86.8030  162.3270  176.8370 O.2    21  GLU21      -0.2715
     39  CB        87.5660  161.4920  179.3910 C.3    21  GLU21       0.0429
     40  CG        88.2530  161.1630  180.7030 C.3    21  GLU21       0.1163
     41  CD        89.7650  161.2410  180.6060 C.2    21  GLU21       0.3649
     42  OE1       90.3100  160.9620  179.5200 O.co2  21  GLU21      -0.2457
     43  OE2       90.4100  161.5770  181.6190 O.co2  21  GLU21      -0.2457
     44  N         87.3810  164.4770  177.1570 N.am   22  PHE22      -0.1960
     45  CA        87.0350  164.9630  175.8260 C.3    22  PHE22       0.1771
     46  C         88.1330  164.5310  174.8630 C.2    22  PHE22       0.2619
     47  O         89.1190  165.2350  174.6480 O.2    22  PHE22      -0.2715
     48  CB        86.8610  166.4750  175.8780 C.3    22  PHE22       0.0574
     49  CG        86.6120  167.1280  174.5610 C.ar   22  PHE22      -0.0200
     50  CD1       85.3890  167.0040  173.9270 C.ar   22  PHE22      -0.0042
     51  CD2       87.5840  167.9320  173.9910 C.ar   22  PHE22      -0.0042
     52  CE1       85.1620  167.6340  172.7220 C.ar   22  PHE22      -0.0003
     53  CE2       87.3640  168.5600  172.7930 C.ar   22  PHE22      -0.0003
     54  CZ        86.1520  168.4180  172.1620 C.ar   22  PHE22      -0.0000
     55  N         87.9690  163.3410  174.2800 N.am   23  ASP23      -0.1971
     56  CA        88.9090  162.7880  173.3060 C.3    23  ASP23       0.1709
     57  C         88.2000  162.5320  171.9830 C.2    23  ASP23       0.2293
     58  O         87.7590  161.4040  171.7190 O.2    23  ASP23      -0.2864
     59  CB        89.5420  161.4910  173.8080 C.3    23  ASP23       0.1436
     60  CG        90.5450  161.7200  174.9060 C.2    23  ASP23       0.3671
     61  OD1       91.1280  162.8140  174.9360 O.co2  23  ASP23      -0.2456
     62  OD2       90.7680  160.8070  175.7260 O.co2  23  ASP23      -0.2456
     63  N         89.9280  163.0160  169.0320 N.3    25  LEU25      -0.1245
     64  CA        90.9760  162.5570  168.1360 C.3    25  LEU25       0.1561
     65  C         91.8300  161.4350  168.7000 C.2    25  LEU25       0.2260
     66  O         92.6600  160.9040  167.9550 O.2    25  LEU25      -0.2867
     67  CB        91.8910  163.7160  167.7370 C.3    25  LEU25       0.0270
     68  CG        91.2740  164.7260  166.7780 C.3    25  LEU25       0.0019
     69  CD1       92.2560  165.8410  166.4770 C.3    25  LEU25       0.0001
     70  CD2       90.8440  164.0300  165.5030 C.3    25  LEU25       0.0001
     71  N         94.3350  161.3530  170.9130 N.3    27  ILE27      -0.1231
     72  CA        95.7790  161.5550  171.0090 C.3    27  ILE27       0.1692
     73  C         96.3150  160.9630  172.3040 C.2    27  ILE27       0.2592
     74  O         97.5280  160.7520  172.4360 O.2    27  ILE27      -0.2718
     75  CB        96.0750  163.0540  170.8040 C.3    27  ILE27       0.0266
     76  CG1       95.3830  163.5320  169.5310 C.3    27  ILE27       0.0019
     77  CG2       97.5530  163.3110  170.5500 C.3    27  ILE27       0.0020
     78  CD1       95.5200  165.0130  169.2680 C.3    27  ILE27       0.0001
     79  N         95.4230  160.6560  173.2510 N.am   28  THR28      -0.1953
     80  CA        95.7480  159.7560  174.3510 C.3    28  THR28       0.1897
     81  C         96.2510  158.4110  173.8440 C.2    28  THR28       0.2313
     82  O         97.2400  157.8750  174.3570 O.2    28  THR28      -0.2863
     83  CB        94.5150  159.5520  175.2230 C.3    28  THR28       0.1794
     84  OG1       94.0900  160.8130  175.7540 O.3    28  THR28      -0.2208
     85  CG2       94.8250  158.6040  176.3560 C.3    28  THR28       0.0378
     86  N        100.0120  159.0100  172.8960 N.3    31  LEU31      -0.1245
     87  CA       100.9170  159.7860  173.7330 C.3    31  LEU31       0.1561
     88  C        100.5320  159.5950  175.1900 C.2    31  LEU31       0.2260
     89  O         99.3410  159.4780  175.5010 O.2    31  LEU31      -0.2867
     90  CB       100.8820  161.2800  173.3830 C.3    31  LEU31       0.0270
     91  CG       101.4500  161.7960  172.0690 C.3    31  LEU31       0.0019
     92  CD1      101.1240  163.2640  171.9390 C.3    31  LEU31       0.0001
     93  CD2      102.9470  161.5750  172.0300 C.3    31  LEU31       0.0001
     94  N         99.5190  160.5050  178.9140 N.3    33  ILE33      -0.1245
     95  CA        98.7440  161.6440  179.3980 C.3    33  ILE33       0.1561
     96  C         99.4100  162.4060  180.5270 C.2    33  ILE33       0.2260
     97  O         98.9100  163.4680  180.9110 O.2    33  ILE33      -0.2867
     98  CB        97.3340  161.1860  179.8130 C.3    33  ILE33       0.0252
     99  CG1       97.3880  159.8640  180.5930 C.3    33  ILE33       0.0019
    100  CG2       96.4340  161.0950  178.6030 C.3    33  ILE33       0.0019
    101  CD1       97.5090  159.9900  182.1060 C.3    33  ILE33       0.0001
    102  N        101.0800  164.9670  178.1820 N.3    36  MET36      -0.1230
    103  CA       100.0650  165.8380  177.6120 C.3    36  MET36       0.1702
    104  C         99.3960  166.6790  178.6810 C.2    36  MET36       0.2592
    105  O         98.9940  167.8130  178.4120 O.2    36  MET36      -0.2718
    106  CB        99.0230  164.9940  176.8990 C.3    36  MET36       0.0401
    107  CG        99.6120  164.0610  175.8800 C.3    36  MET36       0.0596
    108  SD        98.3290  163.0050  175.2160 S.3    36  MET36      -0.1393
    109  CE        97.5350  164.1920  174.1670 C.3    36  MET36       0.0692
    110  N         99.2680  166.1370  179.8910 N.am   37  ARG37      -0.1980
    111  CA        98.7040  166.9000  180.9930 C.3    37  ARG37       0.1597
    112  C         99.6880  167.9430  181.4860 C.2    37  ARG37       0.2287
    113  O         99.2830  168.9990  181.9810 O.2    37  ARG37      -0.2864
    114  CB        98.2990  165.9510  182.1140 C.3    37  ARG37       0.0334
    115  CG        97.5270  166.5890  183.2410 C.3    37  ARG37       0.0492
    116  CD        96.1710  167.0480  182.7690 C.3    37  ARG37       0.2205
    117  NE        95.3690  167.5270  183.8840 N.pl3  37  ARG37      -0.0865
    118  CZ        94.1830  168.1050  183.7550 C.cat  37  ARG37       0.5346
    119  NH1       93.5200  168.5040  184.8300 N.pl3  37  ARG37       0.1354
    120  NH2       93.6570  168.2760  182.5510 N.pl3  37  ARG37       0.1354
    121  N        101.5160  169.4590  179.3610 N.3    39  SER39      -0.1202
    122  CA       101.3220  170.4970  178.3550 C.3    39  SER39       0.2020
    123  C        100.0350  171.2760  178.5720 C.2    39  SER39       0.2618
    124  O         99.9830  172.4760  178.2710 O.2    39  SER39      -0.2717
    125  CB       101.3360  169.8860  176.9580 C.3    39  SER39       0.2103
    126  OG       102.6200  169.3740  176.6580 O.3    39  SER39      -0.2182
    127  N         98.9950  170.5890  179.0460 N.am   40  GLU40      -0.1979
    128  CA        97.7710  171.2210  179.5230 C.3    40  GLU40       0.1602
    129  C         98.0730  172.2710  180.5770 C.2    40  GLU40       0.2287
    130  O         97.7650  173.4590  180.4100 O.2    40  GLU40      -0.2864
    131  CB        96.8540  170.1390  180.0960 C.3    40  GLU40       0.0415
    132  CG        95.6530  170.6470  180.8490 C.3    40  GLU40       0.1163
    133  CD        94.6280  171.2500  179.9470 C.2    40  GLU40       0.3649
    134  OE1       94.5560  170.8110  178.7960 O.co2  40  GLU40      -0.2457
    135  OE2       93.8830  172.1520  180.3830 O.co2  40  GLU40      -0.2457
    136  N        101.0920  174.9690  179.3220 N.3    43  HIS43      -0.1241
    137  CA       100.5430  176.0410  178.4990 C.3    43  HIS43       0.1621
    138  C         99.5290  176.8710  179.2640 C.2    43  HIS43       0.2264
    139  O         99.3720  178.0680  178.9790 O.2    43  HIS43      -0.2867
    140  CB        99.8730  175.4960  177.2500 C.3    43  HIS43       0.0745
    141  CG       100.8200  175.1210  176.1630 C.ar   43  HIS43       0.0817
    142  ND1      101.3190  173.8480  176.0110 N.ar   43  HIS43      -0.2268
    143  CD2      101.3460  175.8560  175.1570 C.ar   43  HIS43       0.1154
    144  CE1      102.1140  173.8150  174.9570 C.ar   43  HIS43       0.1986
    145  NE2      102.1520  175.0230  174.4260 N.ar   43  HIS43      -0.2212
    146  N         92.7740  176.7930  179.9690 N.3   144  ARG144     -0.1245
    147  CA        92.2530  176.7450  178.6090 C.3   144  ARG144      0.1563
    148  C         91.3560  177.9400  178.3040 C.2   144  ARG144      0.2260
    149  O         91.3270  178.4140  177.1600 O.2   144  ARG144     -0.2867
    150  CB        91.5180  175.4250  178.4010 C.3   144  ARG144      0.0307
    151  CG        90.4070  175.1830  179.3930 C.3   144  ARG144      0.0489
    152  CD        89.7270  173.8720  179.1660 C.3   144  ARG144      0.2205
    153  NE        90.5960  172.7040  179.2750 N.pl3 144  ARG144     -0.0865
    154  CZ        90.7240  171.9610  180.3640 C.cat 144  ARG144      0.5346
    155  NH1       90.0390  172.2570  181.4550 N.pl3 144  ARG144      0.1354
    156  NH2       91.5230  170.9100  180.3540 N.pl3 144  ARG144      0.1354
    157  N         93.5350  180.6830  177.5930 N.3   147  MET147     -0.1230
    158  CA        94.2520  180.3860  176.3650 C.3   147  MET147      0.1702
    159  C         93.4300  180.8080  175.1480 C.2   147  MET147      0.2592
    160  O         93.9300  181.4920  174.2330 O.2   147  MET147     -0.2718
    161  CB        94.5440  178.8930  176.3720 C.3   147  MET147      0.0401
    162  CG        95.6610  178.4350  175.5310 C.3   147  MET147      0.0596
    163  SD        95.8990  176.6770  175.8470 S.3   147  MET147     -0.1393
    164  CE        96.3900  176.7060  177.5640 C.3   147  MET147      0.0692
    165  N         92.1490  180.4190  175.1510 N.am  148  ILE148     -0.1980
    166  CA        91.1740  180.9430  174.1960 C.3   148  ILE148      0.1595
    167  C         91.1020  182.4620  174.2900 C.2   148  ILE148      0.2287
    168  O         90.9900  183.1620  173.2720 O.2   148  ILE148     -0.2864
    169  CB        89.8050  180.2770  174.4380 C.3   148  ILE148      0.0276
    170  CG1       89.8890  178.7840  174.1350 C.3   148  ILE148      0.0022
    171  CG2       88.6970  180.9130  173.6110 C.3   148  ILE148      0.0022
    172  CD1       88.6510  178.0230  174.5290 C.3   148  ILE148      0.0001
    173  N         93.9520  183.7820  172.1060 N.3   151  LEU151     -0.1245
    174  CA        93.6620  184.0880  170.7010 C.3   151  LEU151      0.1561
    175  C         92.6390  185.2010  170.5640 C.2   151  LEU151      0.2260
    176  O         92.6000  185.8670  169.5210 O.2   151  LEU151     -0.2867
    177  CB        93.1630  182.8740  169.9180 C.3   151  LEU151      0.0270
    178  CG        93.1430  182.9660  168.3800 C.3   151  LEU151      0.0019
    179  CD1       94.5460  183.1590  167.8320 C.3   151  LEU151      0.0001
    180  CD2       92.4730  181.7980  167.7070 C.3   151  LEU151      0.0001
@<TRIPOS>BOND
     1    70    68    1
     2    69    68    1
     3    68    67    1
     4   180   178    1
     5    67    64    1
     6   179   178    1
     7    66    65    2
     8    64    65    1
     9    64    63    1
    10   178   177    1
    11    78    76    1
    12   176   175    2
    13    76    75    1
    14   177   174    1
    15    77    75    1
    16   175   174    1
    17   174   173    1
    18    75    72    1
    19    71    72    1
    20    72    73    1
    21    58    57    2
    22    92    91    1
    23    57    56    1
    24    93    91    1
    25    91    90    1
    26    54    52   ar
    27    54    53   ar
    28    73    74    2
    29    73    79   am
    30    52    50   ar
    31    53    51   ar
    32    86    87    1
    33    79    80    1
    34   168   167    2
    35    56    59    1
    36    56    55    1
    37    90    87    1
    38   171   169    1
    39    87    88    1
    40    59    60    1
    41    81    80    1
    42    81    82    2
    43    50    49   ar
    44    51    49   ar
    45   170   169    1
    46   170   172    1
    47   109   108    1
    48   166   167    1
    49   166   169    1
    50   166   165    1
    51   160   159    2
    52    55    46   am
    53    80    83    1
    54   145   144   ar
    55   145   143   ar
    56    49    48    1
    57     4     3    2
    58    47    46    2
    59    46    45    1
    60    60    61   ar
    61    60    62   ar
    62   144   142   ar
    63   159   165   am
    64   159   158    1
    65   143   141   ar
    66     3     2    1
    67    88    89    2
    68   108   107    1
    69    83    84    1
    70    83    85    1
    71   162   163    1
    72   162   161    1
    73    45    48    1
    74    45    44    1
    75   163   164    1
    76   107   106    1
    77   142   141   ar
    78   141   140    1
    79   158   161    1
    80   158   157    1
    81     2     5    1
    82     2     1    1
    83   126   125    1
    84    38    37    2
    85   106   103    1
    86   125   122    1
    87    44    37   am
    88   149   148    2
    89   140   137    1
    90    37    36    1
    91   103   102    1
    92   103   104    1
    93     6     7    1
    94   124   123    2
    95   148   147    1
    96   122   123    1
    97   122   121    1
    98    10     7    1
    99    10    11    1
   100   150   147    1
   101   150   151    1
   102   105   104    2
   103   137   138    1
   104   137   136    1
   105   123   127   am
   106   100    98    1
   107   147   146    1
   108   104   110   am
   109   134   133   ar
   110    94    95    1
   111     7     8    1
   112    36    39    1
   113    36    35    1
   114   139   138    2
   115   127   128    1
   116   152   153    1
   117   152   151    1
   118   153   154    2
   119    13    12   ar
   120    39    40    1
   121    95    98    1
   122    95    96    1
   123    11    12    1
   124    42    41   ar
   125   128   131    1
   126   128   129    1
   127    33    32    2
   128    98    99    1
   129   110   111    1
   130    35    32   am
   131   133   135   ar
   132   133   132    1
   133     9     8    2
   134    12    14   ar
   135   131   132    1
   136    32    31    1
   137   156   154    1
   138   154   155    1
   139   130   129    2
   140    96    97    2
   141    99   101    1
   142    41    40    1
   143    41    43   ar
   144    34    31    1
   145   111   112    1
   146   111   114    1
   147    31    30    1
   148   112   113    2
   149   114   115    1
   150   120   118    1
   151   116   115    1
   152   116   117    1
   153    27    26    2
   154    29    28    1
   155    19    16    1
   156   118   117    2
   157   118   119    1
   158    28    25    1
   159    26    25    1
   160    23    22    2
   161    25    24    1
   162    16    17    1
   163    16    15    1
   164    22    24   am
   165    22    21    1
   166    18    17    2
   167    17    20   am
   168    20    21    1
