@<TRIPOS>MOLECULE
tmp/5zghC08.pdb
 138 137 0 0 0
SMALL
GASTEIGER

@<TRIPOS>ATOM
      1  N        101.0710  173.3420  181.6270 N.3    42  LYS42      -0.1245
      2  CA       102.2150  174.2060  181.3660 C.3    42  LYS42       0.1561
      3  C        101.9000  175.2840  180.3360 C.2    42  LYS42       0.2260
      4  O        102.3900  176.4120  180.4530 O.2    42  LYS42      -0.2867
      5  CB       103.4000  173.3610  180.9210 C.3    42  LYS42       0.0271
      6  CG       104.7010  174.1080  180.8190 C.3    42  LYS42       0.0035
      7  CD       105.8010  173.1140  180.5670 C.3    42  LYS42       0.0206
      8  CE       107.1530  173.7570  180.4210 C.3    42  LYS42       0.1093
      9  NZ       108.1520  172.6960  180.1400 N.3    42  LYS42      -0.1314
     10  N         99.7330  177.8060  182.3280 N.3    45  ARG45      -0.1231
     11  CA       100.5140  178.7780  183.0920 C.3    45  ARG45       0.1694
     12  C        100.7910  180.0360  182.2830 C.2    45  ARG45       0.2591
     13  O        100.5640  181.1600  182.7510 O.2    45  ARG45      -0.2718
     14  CB       101.8420  178.1520  183.4960 C.3    45  ARG45       0.0321
     15  CG       101.7480  176.9380  184.3640 C.3    45  ARG45       0.0489
     16  CD       101.4060  177.3200  185.7500 C.3    45  ARG45       0.2205
     17  NE       101.5450  176.2020  186.6740 N.pl3  45  ARG45      -0.0865
     18  CZ       100.5320  175.5000  187.1600 C.cat  45  ARG45       0.5346
     19  NH1       99.2930  175.8180  186.8290 N.pl3  45  ARG45       0.1354
     20  NH2      100.7530  174.4860  187.9810 N.pl3  45  ARG45       0.1354
     21  N        101.2880  179.8560  181.0610 N.am   46  ILE46      -0.1980
     22  CA       101.6400  180.9830  180.2120 C.3    46  ILE46       0.1595
     23  C        100.3820  181.6930  179.7370 C.2    46  ILE46       0.2287
     24  O        100.3970  182.9070  179.4970 O.2    46  ILE46      -0.2864
     25  CB       102.5090  180.4810  179.0460 C.3    46  ILE46       0.0276
     26  CG1      103.6590  179.6320  179.5820 C.3    46  ILE46       0.0022
     27  CG2      103.1080  181.6300  178.2790 C.3    46  ILE46       0.0022
     28  CD1      104.5940  180.3780  180.4990 C.3    46  ILE46       0.0001
     29  N         99.5510  183.9020  183.0990 N.3    49  LEU49      -0.1245
     30  CA       100.4780  184.9590  183.4500 C.3    49  LEU49       0.1561
     31  C        100.7680  185.8570  182.2600 C.2    49  LEU49       0.2260
     32  O        101.1050  187.0310  182.4440 O.2    49  LEU49      -0.2867
     33  CB       101.7390  184.3080  184.0250 C.3    49  LEU49       0.0270
     34  CG       102.7130  185.0510  184.9340 C.3    49  LEU49       0.0019
     35  CD1      103.2210  184.1020  185.9810 C.3    49  LEU49       0.0001
     36  CD2      103.8830  185.5710  184.1770 C.3    49  LEU49       0.0001
     37  N        108.3900  199.1840  184.9550 N.3    63  PRO63      -0.2102
     38  CA       109.8350  199.3200  185.2170 C.3    63  PRO63       0.1504
     39  C        110.4510  200.5970  184.6580 C.2    63  PRO63       0.2576
     40  O        111.6330  200.8500  184.9290 O.2    63  PRO63      -0.2718
     41  CB       110.4310  198.0820  184.5420 C.3    63  PRO63       0.0282
     42  CG       109.3330  197.0950  184.5590 C.3    63  PRO63       0.0208
     43  CD       108.0690  197.8690  184.3720 C.3    63  PRO63       0.0893
     44  N        109.6930  201.3780  183.8790 N.am   64  TRP64      -0.1963
     45  CA       110.0220  202.7370  183.4390 C.3    64  TRP64       0.1771
     46  C        111.3030  202.7900  182.6020 C.2    64  TRP64       0.2619
     47  O        112.3330  203.3350  183.0000 O.2    64  TRP64      -0.2715
     48  CB       110.0950  203.6980  184.6260 C.3    64  TRP64       0.0590
     49  CG       108.7680  203.9160  185.2120 C.ar   64  TRP64       0.0006
     50  CD1      108.2890  203.3890  186.3630 C.ar   64  TRP64       0.0946
     51  CD2      107.7030  204.6810  184.6430 C.ar   64  TRP64       0.0152
     52  NE1      106.9970  203.7970  186.5700 N.ar   64  TRP64      -0.2442
     53  CE2      106.6130  204.5940  185.5250 C.ar   64  TRP64       0.0810
     54  CE3      107.5710  205.4450  183.4800 C.ar   64  TRP64       0.0012
     55  CZ2      105.4030  205.2400  185.2840 C.ar   64  TRP64       0.0191
     56  CZ3      106.3700  206.0870  183.2400 C.ar   64  TRP64       0.0001
     57  CH2      105.3010  205.9800  184.1370 C.ar   64  TRP64       0.0015
     58  N        111.2030  202.1870  181.4210 N.am   65  TYR65      -0.1974
     59  CA       112.1640  202.4610  180.3610 C.3    65  TYR65       0.1639
     60  C        111.4820  202.5970  179.0030 C.2    65  TYR65       0.2290
     61  O        112.1440  202.4440  177.9700 O.2    65  TYR65      -0.2864
     62  CB       113.2550  201.3790  180.3050 C.3    65  TYR65       0.0560
     63  CG       112.7590  199.9520  180.1530 C.ar   65  TYR65      -0.0198
     64  CD1      112.4960  199.4070  178.8990 C.ar   65  TYR65      -0.0009
     65  CD2      112.5690  199.1460  181.2680 C.ar   65  TYR65      -0.0009
     66  CE1      112.0470  198.1120  178.7640 C.ar   65  TYR65       0.0417
     67  CE2      112.1280  197.8440  181.1410 C.ar   65  TYR65       0.0417
     68  CZ       111.8660  197.3360  179.8880 C.ar   65  TYR65       0.1957
     69  OH       111.4250  196.0440  179.7590 O.3    65  TYR65      -0.2866
     70  N        114.5170  187.2020  179.2800 N.3    87  ILE87      -0.1245
     71  CA       113.2510  186.5720  179.6230 C.3    87  ILE87       0.1561
     72  C        113.2250  185.1790  179.0210 C.2    87  ILE87       0.2260
     73  O        112.6660  184.2510  179.6080 O.2    87  ILE87      -0.2867
     74  CB       112.0480  187.4090  179.1580 C.3    87  ILE87       0.0252
     75  CG1      112.2070  188.8600  179.5890 C.3    87  ILE87       0.0019
     76  CG2      110.7670  186.8790  179.7900 C.3    87  ILE87       0.0019
     77  CD1      112.2070  189.0690  181.0690 C.3    87  ILE87       0.0001
     78  N        116.2980  183.2160  181.3420 N.3    90  PHE90      -0.1227
     79  CA       115.9800  182.8370  182.7120 C.3    90  PHE90       0.1736
     80  C        114.7800  181.9140  182.8230 C.2    90  PHE90       0.2596
     81  O        114.3850  181.5780  183.9420 O.2    90  PHE90      -0.2718
     82  CB       115.7630  184.0750  183.5780 C.3    90  PHE90       0.0547
     83  CG       117.0340  184.7490  183.9710 C.ar   90  PHE90      -0.0202
     84  CD1      117.7890  184.2520  185.0150 C.ar   90  PHE90      -0.0042
     85  CD2      117.4860  185.8650  183.2930 C.ar   90  PHE90      -0.0042
     86  CE1      118.9640  184.8630  185.3770 C.ar   90  PHE90      -0.0003
     87  CE2      118.6610  186.4780  183.6460 C.ar   90  PHE90      -0.0003
     88  CZ       119.3980  185.9790  184.6890 C.ar   90  PHE90      -0.0000
     89  N        114.1890  181.5020  181.7100 N.am   91  THR91      -0.1953
     90  CA       113.2970  180.3610  181.7250 C.3    91  THR91       0.1897
     91  C        113.8440  179.1780  180.9520 C.2    91  THR91       0.2313
     92  O        113.3170  178.0710  181.0960 O.2    91  THR91      -0.2863
     93  CB       111.9190  180.7280  181.1740 C.3    91  THR91       0.1794
     94  OG1      111.0710  179.5830  181.2550 O.3    91  THR91      -0.2208
     95  CG2      112.0230  181.1200  179.7620 C.3    91  THR91       0.0378
     96  N        115.6250  177.7450  184.0310 N.3    94  PHE94      -0.1227
     97  CA       114.6730  176.9710  184.8170 C.3    94  PHE94       0.1736
     98  C        114.1840  175.7620  184.0420 C.2    94  PHE94       0.2595
     99  O        113.8060  174.7500  184.6380 O.2    94  PHE94      -0.2718
    100  CB       113.4830  177.8440  185.2160 C.3    94  PHE94       0.0547
    101  CG       112.4720  177.1440  186.0840 C.ar   94  PHE94      -0.0202
    102  CD1      112.6870  177.0060  187.4420 C.ar   94  PHE94      -0.0042
    103  CD2      111.3140  176.6110  185.5380 C.ar   94  PHE94      -0.0042
    104  CE1      111.7590  176.3640  188.2390 C.ar   94  PHE94      -0.0003
    105  CE2      110.3880  175.9670  186.3250 C.ar   94  PHE94      -0.0003
    106  CZ       110.6090  175.8430  187.6780 C.ar   94  PHE94      -0.0000
    107  N        114.1850  175.8480  182.7200 N.am   95  GLU95      -0.1979
    108  CA       113.5260  174.8340  181.9170 C.3    95  GLU95       0.1602
    109  C        114.3900  173.5930  181.7500 C.2    95  GLU95       0.2287
    110  O        113.8880  172.4700  181.8560 O.2    95  GLU95      -0.2864
    111  CB       113.1800  175.4170  180.5580 C.3    95  GLU95       0.0415
    112  CG       112.4090  174.4920  179.6830 C.3    95  GLU95       0.1163
    113  CD       110.9540  174.3790  180.0510 C.2    95  GLU95       0.3649
    114  OE1      110.4100  175.3140  180.6700 O.co2  95  GLU95      -0.2457
    115  OE2      110.3460  173.3590  179.6820 O.co2  95  GLU95      -0.2457
    116  N        104.1820  169.5380  189.0130 N.3   116  TYR116     -0.1241
    117  CA       105.5710  169.6910  189.4630 C.3   116  TYR116      0.1605
    118  C        105.6490  170.4490  190.7930 C.2   116  TYR116      0.2264
    119  O        106.0390  171.6150  190.8650 O.2   116  TYR116     -0.2867
    120  CB       106.4780  170.2530  188.3500 C.3   116  TYR116      0.0534
    121  CG       106.2740  171.6420  187.7760 C.ar  116  TYR116     -0.0201
    122  CD1      105.3900  171.8610  186.7250 C.ar  116  TYR116     -0.0009
    123  CD2      107.0670  172.7040  188.1920 C.ar  116  TYR116     -0.0009
    124  CE1      105.2310  173.1170  186.1870 C.ar  116  TYR116      0.0417
    125  CE2      106.9140  173.9540  187.6640 C.ar  116  TYR116      0.0417
    126  CZ       106.0010  174.1540  186.6600 C.ar  116  TYR116      0.1957
    127  OH       105.8600  175.4050  186.1310 O.3   116  TYR116     -0.2866
    128  N        106.0850  175.7590  195.0490 N.3   119  PHE119     -0.1241
    129  CA       105.9040  176.7800  196.0690 C.3   119  PHE119      0.1605
    130  C        104.4270  176.9930  196.3430 C.2   119  PHE119      0.2264
    131  O        103.6060  177.0430  195.4220 O.2   119  PHE119     -0.2867
    132  CB       106.5780  178.0930  195.6490 C.3   119  PHE119      0.0534
    133  CG       105.9940  178.7350  194.4120 C.ar  119  PHE119     -0.0203
    134  CD1      106.4320  178.3690  193.1520 C.ar  119  PHE119     -0.0042
    135  CD2      105.0480  179.7460  194.5170 C.ar  119  PHE119     -0.0042
    136  CE1      105.9090  178.9660  192.0220 C.ar  119  PHE119     -0.0003
    137  CE2      104.5220  180.3430  193.3890 C.ar  119  PHE119     -0.0003
    138  CZ       104.9550  179.9540  192.1420 C.ar  119  PHE119     -0.0000
@<TRIPOS>BOND
     1    61    60    2
     2    27    25    1
     3    66    64   ar
     4    66    68   ar
     5    64    63   ar
     6    60    59    1
     7    72    73    2
     8    72    71    1
     9    25    26    1
    10    25    22    1
    11    74    75    1
    12    74    71    1
    13    74    76    1
    14    70    71    1
    15    24    23    2
    16    26    28    1
    17    75    77    1
    18   115   113   ar
    19   112   113    1
    20   112   111    1
    21    23    22    1
    22    69    68    1
    23    95    93    1
    24    68    67   ar
    25   113   114   ar
    26     9     8    1
    27    63    62    1
    28    63    65   ar
    29    22    21    1
    30    62    59    1
    31     3     4    2
    32     3     2    1
    33    59    58    1
    34     8     7    1
    35   111   108    1
    36     7     6    1
    37     6     5    1
    38     5     2    1
    39    91    92    2
    40    91    90    1
    41    21    12   am
    42    67    65   ar
    43    93    94    1
    44    93    90    1
    45    78    79    1
    46     2     1    1
    47    58    46   am
    48    89    90    1
    49    89    80   am
    50   109   110    2
    51   109   108    1
    52   108   107    1
    53    31    32    2
    54    31    30    1
    55    12    13    2
    56    12    11    1
    57    10    11    1
    58    46    47    2
    59    46    45    1
    60    79    80    1
    61    79    82    1
    62   107    98   am
    63    80    81    2
    64    11    14    1
    65    29    30    1
    66    56    54   ar
    67    56    57   ar
    68    85    87   ar
    69    85    83   ar
    70    45    44    1
    71    45    48    1
    72    30    33    1
    73    54    51   ar
    74    14    15    1
    75    82    83    1
    76    87    88   ar
    77    44    39   am
    78    83    84   ar
    79    33    34    1
    80    96    97    1
    81    98    99    2
    82    98    97    1
    83    57    55   ar
    84    36    34    1
    85    15    16    1
    86    43    42    1
    87    43    37    1
    88    41    42    1
    89    41    38    1
    90    48    49    1
    91    51    49   ar
    92    51    53   ar
    93    39    40    2
    94    39    38    1
    95    88    86   ar
    96    97   100    1
    97    34    35    1
    98    37    38    1
    99    84    86   ar
   100    49    50   ar
   101   100   101    1
   102    55    53   ar
   103    53    52   ar
   104   103   101   ar
   105   103   105   ar
   106    16    17    1
   107   101   102   ar
   108   127   126    1
   109   124   126   ar
   110   124   122   ar
   111   105   106   ar
   112    50    52   ar
   113   126   125   ar
   114    17    18    2
   115   122   121   ar
   116    19    18    1
   117    18    20    1
   118   102   104   ar
   119   125   123   ar
   120   106   104   ar
   121   121   123   ar
   122   121   120    1
   123   120   117    1
   124   116   117    1
   125   117   118    1
   126   118   119    2
   127   136   138   ar
   128   136   134   ar
   129   138   137   ar
   130   134   133   ar
   131   137   135   ar
   132   133   135   ar
   133   133   132    1
   134   128   129    1
   135   131   130    2
   136   132   129    1
   137   129   130    1
