@<TRIPOS>MOLECULE
tmp/5zghC16.pdb
 165 159 0 0 0
SMALL
GASTEIGER

@<TRIPOS>ATOM
      1  N        101.2880  179.8560  181.0610 N.3    46  ILE46      -0.1245
      2  CA       101.6400  180.9830  180.2120 C.3    46  ILE46       0.1561
      3  C        100.3820  181.6930  179.7370 C.2    46  ILE46       0.2260
      4  O        100.3970  182.9070  179.4970 O.2    46  ILE46      -0.2867
      5  CB       102.5090  180.4810  179.0460 C.3    46  ILE46       0.0252
      6  CG1      103.6590  179.6320  179.5820 C.3    46  ILE46       0.0019
      7  CG2      103.1080  181.6300  178.2790 C.3    46  ILE46       0.0019
      8  CD1      104.5940  180.3780  180.4990 C.3    46  ILE46       0.0001
      9  N         99.5510  183.9020  183.0990 N.3    49  LEU49      -0.1231
     10  CA       100.4780  184.9590  183.4500 C.3    49  LEU49       0.1693
     11  C        100.7680  185.8570  182.2600 C.2    49  LEU49       0.2591
     12  O        101.1050  187.0310  182.4440 O.2    49  LEU49      -0.2718
     13  CB       101.7390  184.3080  184.0250 C.3    49  LEU49       0.0284
     14  CG       102.7130  185.0510  184.9340 C.3    49  LEU49       0.0019
     15  CD1      103.2210  184.1020  185.9810 C.3    49  LEU49       0.0001
     16  CD2      103.8830  185.5710  184.1770 C.3    49  LEU49       0.0001
     17  N        100.5810  185.3450  181.0470 N.am   50  ALA50      -0.1980
     18  CA       100.6380  186.1970  179.8730 C.3    50  ALA50       0.1597
     19  C         99.3290  186.9350  179.6390 C.2    50  ALA50       0.2287
     20  O         99.3450  188.0210  179.0470 O.2    50  ALA50      -0.2864
     21  CB       100.9960  185.3720  178.6430 C.3    50  ALA50       0.0319
     22  N         97.3200  188.1840  182.1220 N.3    52  VAL52      -0.1231
     23  CA        97.4640  189.3960  182.9240 C.3    52  VAL52       0.1692
     24  C         98.7330  190.1540  182.5840 C.2    52  VAL52       0.2592
     25  O         98.8660  191.3170  182.9800 O.2    52  VAL52      -0.2718
     26  CB        97.4400  189.1120  184.4340 C.3    52  VAL52       0.0266
     27  CG1       96.1250  188.4680  184.8230 C.3    52  VAL52       0.0020
     28  CG2       98.5840  188.2400  184.8030 C.3    52  VAL52       0.0020
     29  N         99.6710  189.5300  181.8640 N.am   53  GLY53      -0.1957
     30  CA       100.7530  190.2900  181.2670 C.3    53  GLY53       0.1869
     31  C        100.2620  191.2630  180.2170 C.2    53  GLY53       0.2309
     32  O        100.8320  192.3440  180.0500 O.2    53  GLY53      -0.2863
     33  N         98.2890  193.9240  182.2980 N.3    56  ALA56      -0.1231
     34  CA        99.2310  194.8840  182.8500 C.3    56  ALA56       0.1694
     35  C        100.1620  195.4530  181.7890 C.2    56  ALA56       0.2591
     36  O        101.1260  196.1440  182.1290 O.2    56  ALA56      -0.2718
     37  CB       100.0460  194.2470  183.9750 C.3    56  ALA56       0.0304
     38  N         99.8980  195.1690  180.5130 N.am   57  GLN57      -0.1979
     39  CA       100.7160  195.7280  179.4450 C.3    57  GLN57       0.1601
     40  C        100.4720  197.2200  179.2950 C.2    57  GLN57       0.2287
     41  O        101.3870  197.9660  178.9330 O.2    57  GLN57      -0.2864
     42  CB       100.4090  195.0080  178.1360 C.3    57  GLN57       0.0394
     43  CG       101.3700  195.2660  177.0060 C.3    57  GLN57       0.0908
     44  CD       102.7420  194.7210  177.3020 C.2    57  GLN57       0.2608
     45  OE1      103.6810  195.4750  177.5300 O.2    57  GLN57      -0.2717
     46  NE2      102.8620  193.3990  177.3250 N.am   57  GLN57      -0.0878
     47  N         99.2080  200.5530  185.4020 N.3    60  TYR60      -0.1227
     48  CA        99.9670  201.4070  186.3070 C.3    60  TYR60       0.1736
     49  C        101.4230  200.9400  186.3800 C.2    60  TYR60       0.2595
     50  O        101.8510  200.0770  185.6080 O.2    60  TYR60      -0.2718
     51  CB        99.2980  201.4340  187.6770 C.3    60  TYR60       0.0548
     52  CG        97.9480  202.1140  187.6740 C.ar   60  TYR60      -0.0200
     53  CD1       97.8430  203.4970  187.7660 C.ar   60  TYR60      -0.0009
     54  CD2       96.7780  201.3730  187.5620 C.ar   60  TYR60      -0.0009
     55  CE1       96.6080  204.1230  187.7590 C.ar   60  TYR60       0.0417
     56  CE2       95.5380  201.9890  187.5550 C.ar   60  TYR60       0.0417
     57  CZ        95.4590  203.3620  187.6530 C.ar   60  TYR60       0.1957
     58  OH        94.2250  203.9730  187.6440 O.3    60  TYR60      -0.2866
     59  N        102.1410  201.4590  187.3890 N.am   61  GLN61      -0.1965
     60  CA       103.5940  201.6790  187.4530 C.3    61  GLN61       0.1733
     61  C        104.4470  200.5950  186.8030 C.2    61  GLN61       0.2616
     62  O        104.2990  199.4060  187.0920 O.2    61  GLN61      -0.2715
     63  CB       104.0060  201.8350  188.9200 C.3    61  GLN61       0.0408
     64  CG       105.4830  202.1380  189.1290 C.3    61  GLN61       0.0908
     65  CD       105.8290  202.3930  190.5820 C.2    61  GLN61       0.2608
     66  OE1      104.9720  202.3050  191.4630 O.2    61  GLN61      -0.2717
     67  NE2      107.0900  202.7210  190.8400 N.am   61  GLN61      -0.0878
     68  N        105.3450  201.0310  185.9230 N.am   62  PHE62      -0.1960
     69  CA       106.1390  200.2010  185.0270 C.3    62  PHE62       0.1756
     70  C        107.5200  199.9480  185.6250 C.2    62  PHE62       0.2461
     71  O        107.8000  200.4020  186.7400 O.2    62  PHE62      -0.2730
     72  CB       106.2570  200.8860  183.6570 C.3    62  PHE62       0.0574
     73  CG       104.9830  200.8820  182.8470 C.ar   62  PHE62      -0.0200
     74  CD1      103.9100  200.0770  183.2010 C.ar   62  PHE62      -0.0042
     75  CD2      104.8780  201.6630  181.7090 C.ar   62  PHE62      -0.0042
     76  CE1      102.7530  200.0680  182.4530 C.ar   62  PHE62      -0.0003
     77  CE2      103.7220  201.6570  180.9530 C.ar   62  PHE62      -0.0003
     78  CZ       102.6580  200.8580  181.3280 C.ar   62  PHE62      -0.0000
     79  N        108.3900  199.1840  184.9550 N.am   63  PRO63      -0.2727
     80  CA       109.8350  199.3200  185.2170 C.3    63  PRO63       0.1402
     81  C        110.4510  200.5970  184.6580 C.2    63  PRO63       0.2269
     82  O        111.6330  200.8500  184.9290 O.2    63  PRO63      -0.2865
     83  CB       110.4310  198.0820  184.5420 C.3    63  PRO63       0.0296
     84  CG       109.3330  197.0950  184.5590 C.3    63  PRO63       0.0237
     85  CD       108.0690  197.8690  184.3720 C.3    63  PRO63       0.0939
     86  N        111.2030  202.1870  181.4210 N.3    65  TYR65      -0.1227
     87  CA       112.1640  202.4610  180.3610 C.3    65  TYR65       0.1736
     88  C        111.4820  202.5970  179.0030 C.2    65  TYR65       0.2595
     89  O        112.1440  202.4440  177.9700 O.2    65  TYR65      -0.2718
     90  CB       113.2550  201.3790  180.3050 C.3    65  TYR65       0.0548
     91  CG       112.7590  199.9520  180.1530 C.ar   65  TYR65      -0.0200
     92  CD1      112.4960  199.4070  178.8990 C.ar   65  TYR65      -0.0009
     93  CD2      112.5690  199.1460  181.2680 C.ar   65  TYR65      -0.0009
     94  CE1      112.0470  198.1120  178.7640 C.ar   65  TYR65       0.0417
     95  CE2      112.1280  197.8440  181.1410 C.ar   65  TYR65       0.0417
     96  CZ       111.8660  197.3360  179.8880 C.ar   65  TYR65       0.1957
     97  OH       111.4250  196.0440  179.7590 O.3    65  TYR65      -0.2866
     98  N        110.1880  202.8990  178.9740 N.am   66  LYS66      -0.1980
     99  CA       109.3930  202.7100  177.7680 C.3    66  LYS66       0.1596
    100  C        108.2780  203.7510  177.7330 C.2    66  LYS66       0.2287
    101  O        108.2450  204.6850  178.5390 O.2    66  LYS66      -0.2864
    102  CB       108.8720  201.2620  177.6960 C.3    66  LYS66       0.0298
    103  CG       107.6660  200.8770  178.5920 C.3    66  LYS66       0.0038
    104  CD       108.0290  200.6940  180.0500 C.3    66  LYS66       0.0206
    105  CE       108.9180  199.4930  180.2300 C.3    66  LYS66       0.1093
    106  NZ       109.2900  199.3660  181.6440 N.3    66  LYS66      -0.1314
    107  N        107.0520  201.5350  172.8630 N.3    69  PRO69      -0.2102
    108  CA       106.6400  200.2210  172.3490 C.3    69  PRO69       0.1504
    109  C        105.5120  199.5850  173.1600 C.2    69  PRO69       0.2576
    110  O        105.6050  198.4290  173.5890 O.2    69  PRO69      -0.2718
    111  CB       107.9200  199.4010  172.4420 C.3    69  PRO69       0.0282
    112  CG       108.5390  199.9020  173.6600 C.3    69  PRO69       0.0208
    113  CD       108.2460  201.3660  173.7220 C.3    69  PRO69       0.0893
    114  N        104.4230  200.3240  173.3600 N.am   70  THR70      -0.1953
    115  CA       103.3370  199.8350  174.2010 C.3    70  THR70       0.1897
    116  C        102.4470  198.8170  173.5030 C.2    70  THR70       0.2313
    117  O        101.5400  198.2760  174.1430 O.2    70  THR70      -0.2863
    118  CB       102.4880  201.0050  174.6890 C.3    70  THR70       0.1794
    119  OG1      101.9550  201.7100  173.5610 O.3    70  THR70      -0.2208
    120  CG2      103.3270  201.9520  175.5260 C.3    70  THR70       0.0378
    121  N        101.9430  195.1520  171.0680 N.3    72  LEU72      -0.1245
    122  CA       102.2240  193.7560  171.3690 C.3    72  LEU72       0.1561
    123  C        103.3730  193.2250  170.5230 C.2    72  LEU72       0.2260
    124  O        104.3890  192.7720  171.0590 O.2    72  LEU72      -0.2867
    125  CB       100.9650  192.9160  171.1380 C.3    72  LEU72       0.0270
    126  CG       100.9970  191.5530  171.8060 C.3    72  LEU72       0.0019
    127  CD1      100.9620  191.8220  173.2870 C.3    72  LEU72       0.0001
    128  CD2       99.8240  190.6950  171.3890 C.3    72  LEU72       0.0001
    129  N        106.2930  195.3760  171.1270 N.3    75  ALA75      -0.1245
    130  CA       107.0510  194.8960  172.2740 C.3    75  ALA75       0.1562
    131  C        107.9760  193.7640  171.8630 C.2    75  ALA75       0.2260
    132  O        109.1510  193.7430  172.2440 O.2    75  ALA75      -0.2867
    133  CB       106.1040  194.4420  173.3810 C.3    75  ALA75       0.0290
    134  N        112.1850  194.5100  172.1830 N.3    79  PHE79      -0.1241
    135  CA       112.7550  194.0190  173.4290 C.3    79  PHE79       0.1605
    136  C        113.6440  192.8000  173.2630 C.2    79  PHE79       0.2264
    137  O        114.4660  192.5360  174.1480 O.2    79  PHE79      -0.2867
    138  CB       111.6260  193.6970  174.4020 C.3    79  PHE79       0.0534
    139  CG       110.9030  194.9020  174.8870 C.ar   79  PHE79      -0.0203
    140  CD1      111.5430  196.1280  174.9460 C.ar   79  PHE79      -0.0042
    141  CD2      109.5680  194.8300  175.2150 C.ar   79  PHE79      -0.0042
    142  CE1      110.8760  197.2460  175.3760 C.ar   79  PHE79      -0.0003
    143  CE2      108.8930  195.9440  175.6310 C.ar   79  PHE79      -0.0003
    144  CZ       109.5470  197.1520  175.7230 C.ar   79  PHE79      -0.0000
    145  N        116.1710  193.5780  175.8720 N.3    83  ALA83      -0.1231
    146  CA       115.5010  193.5070  177.1630 C.3    83  ALA83       0.1694
    147  C        114.7220  192.2220  177.3930 C.2    83  ALA83       0.2591
    148  O        114.1840  192.0320  178.4860 O.2    83  ALA83      -0.2718
    149  CB       114.5600  194.7020  177.3200 C.3    83  ALA83       0.0304
    150  N        114.6490  191.3350  176.4100 N.am   84  LEU84      -0.1980
    151  CA       113.7900  190.1690  176.5180 C.3    84  LEU84       0.1596
    152  C        114.5020  188.8590  176.2100 C.2    84  LEU84       0.2287
    153  O        113.9240  187.7930  176.4470 O.2    84  LEU84      -0.2864
    154  CB       112.5620  190.3560  175.6080 C.3    84  LEU84       0.0297
    155  CG       111.3180  189.4840  175.5130 C.3    84  LEU84       0.0022
    156  CD1      110.1080  190.3400  175.2670 C.3    84  LEU84       0.0001
    157  CD2      111.4980  188.5650  174.3490 C.3    84  LEU84       0.0001
    158  N        114.5170  187.2020  179.2800 N.3    87  ILE87      -0.1245
    159  CA       113.2510  186.5720  179.6230 C.3    87  ILE87       0.1561
    160  C        113.2250  185.1790  179.0210 C.2    87  ILE87       0.2260
    161  O        112.6660  184.2510  179.6080 O.2    87  ILE87      -0.2867
    162  CB       112.0480  187.4090  179.1580 C.3    87  ILE87       0.0252
    163  CG1      112.2070  188.8600  179.5890 C.3    87  ILE87       0.0019
    164  CG2      110.7670  186.8790  179.7900 C.3    87  ILE87       0.0019
    165  CD1      112.2070  189.0690  181.0690 C.3    87  ILE87       0.0001
@<TRIPOS>BOND
     1   123   124    2
     2   123   122    1
     3   121   122    1
     4   129   130    1
     5   125   122    1
     6   125   126    1
     7   128   126    1
     8   126   127    1
     9   131   132    2
    10   131   130    1
    11   134   135    1
    12   130   133    1
    13   108   111    1
    14   108   107    1
    15   108   109    1
    16   111   112    1
    17   107   113    1
    18   109   114   am
    19   109   110    2
    20   136   135    1
    21   136   137    2
    22   114   115    1
    23   135   138    1
    24   116   117    2
    25   116   115    1
    26   119   118    1
    27   112   113    1
    28   115   118    1
    29   157   155    1
    30   138   139    1
    31   118   120    1
    32   139   140   ar
    33   139   141   ar
    34   140   142   ar
    35   141   143   ar
    36   156   155    1
    37   142   144   ar
    38   155   154    1
    39   154   151    1
    40   143   144   ar
    41   145   146    1
    42   152   153    2
    43   152   151    1
    44   150   151    1
    45   150   147   am
    46    43    44    1
    47    43    42    1
    48   146   149    1
    49   146   147    1
    50    44    46   am
    51    44    45    2
    52   147   148    2
    53   102    99    1
    54   102   103    1
    55   100    99    1
    56   100   101    2
    57    99    98    1
    58    89    88    2
    59    42    39    1
    60     7     5    1
    61   103   104    1
    62    21    18    1
    63    94    92   ar
    64    94    96   ar
    65    92    91   ar
    66    41    40    2
    67    98    88   am
    68    88    87    1
    69   160   161    2
    70   160   159    1
    71     5     6    1
    72     5     2    1
    73    20    19    2
    74   162   163    1
    75   162   159    1
    76   162   164    1
    77   158   159    1
    78    40    39    1
    79    39    38    1
    80     4     3    2
    81     6     8    1
    82   163   165    1
    83    19    18    1
    84     3     2    1
    85    97    96    1
    86    18    17    1
    87    96    95   ar
    88   104   105    1
    89    32    31    2
    90    91    90    1
    91    91    93   ar
    92     2     1    1
    93    31    30    1
    94   105   106    1
    95    90    87    1
    96    87    86    1
    97    38    35   am
    98    77    78   ar
    99    77    75   ar
   100    17    11   am
   101    95    93   ar
   102    30    29    1
   103    78    76   ar
   104    75    73   ar
   105    35    36    2
   106    35    34    1
   107    29    24   am
   108    22    23    1
   109    11    12    2
   110    11    10    1
   111    33    34    1
   112    76    74   ar
   113    24    23    1
   114    24    25    2
   115    73    74   ar
   116    73    72    1
   117    34    37    1
   118    23    26    1
   119     9    10    1
   120    10    13    1
   121    72    69    1
   122    13    14    1
   123    16    14    1
   124    85    84    1
   125    85    79    1
   126    26    28    1
   127    26    27    1
   128    83    84    1
   129    83    80    1
   130    81    82    2
   131    81    80    1
   132    14    15    1
   133    79    80    1
   134    79    70   am
   135    69    70    1
   136    69    68    1
   137    47    48    1
   138    50    49    2
   139    70    71    2
   140    68    61   am
   141    48    49    1
   142    48    51    1
   143    49    59   am
   144    61    62    2
   145    61    60    1
   146    59    60    1
   147    60    63    1
   148    56    54   ar
   149    56    57   ar
   150    54    52   ar
   151    58    57    1
   152    57    55   ar
   153    52    51    1
   154    52    53   ar
   155    55    53   ar
   156    63    64    1
   157    64    65    1
   158    65    67   am
   159    65    66    2
