@<TRIPOS>MOLECULE
tmp/5zghC19.pdb
 118 112 0 0 0
SMALL
GASTEIGER

@<TRIPOS>ATOM
      1  N        102.5760  163.4610  180.1210 N.3    35  TRP35      -0.1241
      2  CA       103.1990  164.4160  179.2140 C.3    35  TRP35       0.1605
      3  C        102.1910  165.4490  178.7400 C.2    35  TRP35       0.2264
      4  O        102.3970  166.6620  178.8820 O.2    35  TRP35      -0.2867
      5  CB       103.7690  163.6580  178.0190 C.3    35  TRP35       0.0550
      6  CG       104.5070  164.4940  177.0670 C.ar   35  TRP35       0.0003
      7  CD1      104.0040  165.1290  175.9780 C.ar   35  TRP35       0.0946
      8  CD2      105.9130  164.7180  177.0530 C.ar   35  TRP35       0.0152
      9  NE1      105.0040  165.7870  175.3100 N.ar   35  TRP35      -0.2442
     10  CE2      106.1900  165.5450  175.9500 C.ar   35  TRP35       0.0810
     11  CE3      106.9650  164.3230  177.8810 C.ar   35  TRP35       0.0012
     12  CZ2      107.4760  165.9770  175.6490 C.ar   35  TRP35       0.0191
     13  CZ3      108.2400  164.7530  177.5810 C.ar   35  TRP35       0.0001
     14  CH2      108.4860  165.5750  176.4780 C.ar   35  TRP35       0.0015
     15  N        100.9830  167.6830  181.3310 N.3    38  GLU38      -0.1231
     16  CA       101.9420  168.7200  181.6580 C.3    38  GLU38       0.1699
     17  C        101.9770  169.7840  180.5710 C.2    38  GLU38       0.2592
     18  O        102.4020  170.9110  180.8350 O.2    38  GLU38      -0.2718
     19  CB       103.3220  168.1040  181.8770 C.3    38  GLU38       0.0402
     20  CG       104.1690  168.8340  182.9160 C.3    38  GLU38       0.1161
     21  CD       104.9490  169.9920  182.3540 C.2    38  GLU38       0.3649
     22  OE1      105.3090  169.9240  181.1680 O.co2  38  GLU38      -0.2457
     23  OE2      105.1980  170.9650  183.0960 O.co2  38  GLU38      -0.2457
     24  N        101.5160  169.4590  179.3610 N.am   39  SER39      -0.1952
     25  CA       101.3220  170.4970  178.3550 C.3    39  SER39       0.1924
     26  C        100.0350  171.2760  178.5720 C.2    39  SER39       0.2314
     27  O         99.9830  172.4760  178.2710 O.2    39  SER39      -0.2863
     28  CB       101.3360  169.8860  176.9580 C.3    39  SER39       0.2116
     29  OG       102.6200  169.3740  176.6580 O.3    39  SER39      -0.2180
     30  N        101.0710  173.3420  181.6270 N.3    42  LYS42      -0.1231
     31  CA       102.2150  174.2060  181.3660 C.3    42  LYS42       0.1693
     32  C        101.9000  175.2840  180.3360 C.2    42  LYS42       0.2592
     33  O        102.3900  176.4120  180.4530 O.2    42  LYS42      -0.2718
     34  CB       103.4000  173.3610  180.9210 C.3    42  LYS42       0.0285
     35  CG       104.7010  174.1080  180.8190 C.3    42  LYS42       0.0035
     36  CD       105.8010  173.1140  180.5670 C.3    42  LYS42       0.0206
     37  CE       107.1530  173.7570  180.4210 C.3    42  LYS42       0.1093
     38  NZ       108.1520  172.6960  180.1400 N.3    42  LYS42      -0.1314
     39  N        101.0920  174.9690  179.3220 N.am   43  HIS43      -0.1976
     40  CA       100.5430  176.0410  178.4990 C.3    43  HIS43       0.1656
     41  C         99.5290  176.8710  179.2640 C.2    43  HIS43       0.2291
     42  O         99.3720  178.0680  178.9790 O.2    43  HIS43      -0.2864
     43  CB        99.8730  175.4960  177.2500 C.3    43  HIS43       0.0771
     44  CG       100.8200  175.1210  176.1630 C.ar   43  HIS43       0.0820
     45  ND1      101.3190  173.8480  176.0110 N.ar   43  HIS43      -0.2267
     46  CD2      101.3460  175.8560  175.1570 C.ar   43  HIS43       0.1154
     47  CE1      102.1140  173.8150  174.9570 C.ar   43  HIS43       0.1986
     48  NE2      102.1520  175.0230  174.4260 N.ar   43  HIS43      -0.2212
     49  N        101.2880  179.8560  181.0610 N.3    46  ILE46      -0.1245
     50  CA       101.6400  180.9830  180.2120 C.3    46  ILE46       0.1561
     51  C        100.3820  181.6930  179.7370 C.2    46  ILE46       0.2260
     52  O        100.3970  182.9070  179.4970 O.2    46  ILE46      -0.2867
     53  CB       102.5090  180.4810  179.0460 C.3    46  ILE46       0.0252
     54  CG1      103.6590  179.6320  179.5820 C.3    46  ILE46       0.0019
     55  CG2      103.1080  181.6300  178.2790 C.3    46  ILE46       0.0019
     56  CD1      104.5940  180.3780  180.4990 C.3    46  ILE46       0.0001
     57  N        113.8580  185.0060  177.8590 N.3    88  LEU88      -0.1245
     58  CA       114.1000  183.6750  177.3160 C.3    88  LEU88       0.1561
     59  C        115.1190  182.9050  178.1450 C.2    88  LEU88       0.2260
     60  O        114.9390  181.7100  178.4030 O.2    88  LEU88      -0.2867
     61  CB       114.5890  183.7860  175.8770 C.3    88  LEU88       0.0270
     62  CG       114.9720  182.4830  175.1820 C.3    88  LEU88       0.0019
     63  CD1      113.7510  181.6380  174.9550 C.3    88  LEU88       0.0001
     64  CD2      115.7090  182.7350  173.8790 C.3    88  LEU88       0.0001
     65  N        114.1890  181.5020  181.7100 N.3    91  THR91      -0.1203
     66  CA       113.2970  180.3610  181.7250 C.3    91  THR91       0.1994
     67  C        113.8440  179.1780  180.9520 C.2    91  THR91       0.2618
     68  O        113.3170  178.0710  181.0960 O.2    91  THR91      -0.2717
     69  CB       111.9190  180.7280  181.1740 C.3    91  THR91       0.1784
     70  OG1      111.0710  179.5830  181.2550 O.3    91  THR91      -0.2211
     71  CG2      112.0230  181.1200  179.7620 C.3    91  THR91       0.0376
     72  N        114.8780  179.3760  180.1360 N.am   92  SER92      -0.1951
     73  CA       115.6390  178.2350  179.6500 C.3    92  SER92       0.1924
     74  C        116.4680  177.6400  180.7750 C.2    92  SER92       0.2314
     75  O        116.6560  176.4210  180.8420 O.2    92  SER92      -0.2863
     76  CB       116.5380  178.6530  178.4920 C.3    92  SER92       0.2116
     77  OG       117.5570  179.5240  178.9400 O.3    92  SER92      -0.2180
     78  N        114.1850  175.8480  182.7200 N.3    95  GLU95      -0.1231
     79  CA       113.5260  174.8340  181.9170 C.3    95  GLU95       0.1699
     80  C        114.3900  173.5930  181.7500 C.2    95  GLU95       0.2592
     81  O        113.8880  172.4700  181.8560 O.2    95  GLU95      -0.2718
     82  CB       113.1800  175.4170  180.5580 C.3    95  GLU95       0.0402
     83  CG       112.4090  174.4920  179.6830 C.3    95  GLU95       0.1161
     84  CD       110.9540  174.3790  180.0510 C.2    95  GLU95       0.3649
     85  OE1      110.4100  175.3140  180.6700 O.co2  95  GLU95      -0.2457
     86  OE2      110.3460  173.3590  179.6820 O.co2  95  GLU95      -0.2457
     87  N        115.6890  173.7680  181.4880 N.am   96  ILE96      -0.1980
     88  CA       116.5420  172.6160  181.2020 C.3    96  ILE96       0.1595
     89  C        116.9240  171.8360  182.4430 C.2    96  ILE96       0.2287
     90  O        117.4500  170.7240  182.3220 O.2    96  ILE96      -0.2864
     91  CB       117.8490  172.9950  180.4840 C.3    96  ILE96       0.0276
     92  CG1      118.7190  173.8800  181.3750 C.3    96  ILE96       0.0022
     93  CG2      117.5460  173.6670  179.1640 C.3    96  ILE96       0.0022
     94  CD1      120.1170  174.0940  180.8370 C.3    96  ILE96       0.0001
     95  N        112.0270  171.5960  183.8670 N.3    99  GLY99      -0.1210
     96  CA       111.0500  170.9670  182.9990 C.3    99  GLY99       0.1956
     97  C        111.5550  169.7030  182.3380 C.2    99  GLY99       0.2611
     98  O        110.7760  168.7800  182.0920 O.2    99  GLY99      -0.2717
     99  N        112.8490  169.6440  182.0380 N.am  100  VAL100     -0.1979
    100  CA       113.4650  168.4540  181.4520 C.3   100  VAL100      0.1595
    101  C        113.4120  167.2650  182.4180 C.2   100  VAL100      0.2287
    102  O        112.9590  166.1920  181.9880 O.2   100  VAL100     -0.2864
    103  CB       114.8920  168.7600  180.9520 C.3   100  VAL100      0.0276
    104  CG1      115.6330  167.4940  180.6000 C.3   100  VAL100      0.0022
    105  CG2      114.8410  169.6650  179.7530 C.3   100  VAL100      0.0022
    106  N        109.2840  166.5590  182.7930 N.3   103  ALA103     -0.1231
    107  CA       108.6250  165.9190  181.6640 C.3   103  ALA103      0.1694
    108  C        109.2870  164.5960  181.3140 C.2   103  ALA103      0.2591
    109  O        108.5960  163.6100  181.0330 O.2   103  ALA103     -0.2718
    110  CB       108.6220  166.8580  180.4630 C.3   103  ALA103      0.0304
    111  N        110.6210  164.5420  181.3540 N.am  104  ILE104     -0.1980
    112  CA       111.2990  163.2790  181.0800 C.3   104  ILE104      0.1595
    113  C        111.1150  162.3110  182.2480 C.2   104  ILE104      0.2287
    114  O        111.0880  161.0880  182.0550 O.2   104  ILE104     -0.2864
    115  CB       112.7740  163.5560  180.7060 C.3   104  ILE104      0.0276
    116  CG1      112.8280  164.1860  179.3140 C.3   104  ILE104      0.0022
    117  CG2      113.6540  162.3130  180.6900 C.3   104  ILE104      0.0022
    118  CD1      114.2160  164.5660  178.8530 C.3   104  ILE104      0.0001
@<TRIPOS>BOND
     1    64    62    1
     2    48    47   ar
     3    48    46   ar
     4    63    62    1
     5    47    45   ar
     6    46    44   ar
     7    62    61    1
     8     9    10   ar
     9     9     7   ar
    10    12    10   ar
    11    12    14   ar
    12    61    58    1
    13    10     8   ar
    14     7     6   ar
    15    45    44   ar
    16    44    43    1
    17    14    13   ar
    18    29    28    1
    19    28    25    1
    20     8     6   ar
    21     8    11   ar
    22     6     5    1
    23    43    40    1
    24    58    57    1
    25    58    59    1
    26    13    11   ar
    27     5     2    1
    28    59    60    2
    29    27    26    2
    30    55    53    1
    31    25    26    1
    32    25    24    1
    33    76    77    1
    34    76    73    1
    35    40    41    1
    36    40    39    1
    37     3     4    2
    38     3     2    1
    39   118   116    1
    40    42    41    2
    41    53    54    1
    42    53    50    1
    43    93    91    1
    44     2     1    1
    45   116   115    1
    46    39    32   am
    47    24    17   am
    48    52    51    2
    49    54    56    1
    50    73    72    1
    51    73    74    1
    52    86    84   ar
    53    83    84    1
    54    83    82    1
    55    51    50    1
    56   105   103    1
    57    71    69    1
    58    84    85   ar
    59    72    67   am
    60    38    37    1
    61    50    49    1
    62    32    33    2
    63    32    31    1
    64    37    36    1
    65   110   107    1
    66    91    88    1
    67    91    92    1
    68    82    79    1
    69    36    35    1
    70    17    18    2
    71    17    16    1
    72   104   103    1
    73   117   115    1
    74   115   112    1
    75    74    75    2
    76    35    34    1
    77    94    92    1
    78    34    31    1
    79    67    68    2
    80    67    66    1
    81   103   100    1
    82   109   108    2
    83   112   111    1
    84   112   113    1
    85    22    21   ar
    86    69    70    1
    87    69    66    1
    88    88    87    1
    89    88    89    1
    90   108   111   am
    91   108   107    1
    92    15    16    1
    93    31    30    1
    94   100    99    1
    95   100   101    1
    96    87    80   am
    97    16    19    1
    98   107   106    1
    99    65    66    1
   100    80    81    2
   101    80    79    1
   102    19    20    1
   103    79    78    1
   104   102   101    2
   105    99    97   am
   106   114   113    2
   107    98    97    2
   108    90    89    2
   109    97    96    1
   110    21    20    1
   111    21    23   ar
   112    96    95    1
