@<TRIPOS>MOLECULE
tmp/5zghD12.pdb
 98 90 0 0 0
SMALL
GASTEIGER

@<TRIPOS>ATOM
      1  N        110.0320  146.3420  155.4530 N.3   311  ILE311     -0.1245
      2  CA       110.9010  145.8870  154.3750 C.3   311  ILE311      0.1561
      3  C        110.5310  144.4710  153.9610 C.2   311  ILE311      0.2260
      4  O        110.6930  144.0930  152.7920 O.2   311  ILE311     -0.2867
      5  CB       112.3660  146.0040  154.8200 C.3   311  ILE311      0.0252
      6  CG1      112.6270  147.4090  155.3380 C.3   311  ILE311      0.0019
      7  CG2      113.3170  145.7520  153.6720 C.3   311  ILE311      0.0019
      8  CD1      112.4110  148.4720  154.3020 C.3   311  ILE311      0.0001
      9  N        107.7700  144.4500  151.4270 N.3   314  ILE314     -0.1231
     10  CA       108.2550  144.9390  150.1440 C.3   314  ILE314      0.1692
     11  C        109.0110  143.8450  149.4130 C.2   314  ILE314      0.2591
     12  O        108.7320  143.5460  148.2470 O.2   314  ILE314     -0.2718
     13  CB       109.1410  146.1770  150.3360 C.3   314  ILE314      0.0266
     14  CG1      108.3320  147.3290  150.9020 C.3   314  ILE314      0.0019
     15  CG2      109.7650  146.5840  149.0250 C.3   314  ILE314      0.0020
     16  CD1      109.1930  148.4830  151.2980 C.3   314  ILE314      0.0001
     17  N        109.9720  143.2260  150.0980 N.am  315  LEU315     -0.1980
     18  CA       110.8330  142.2440  149.4560 C.3   315  LEU315      0.1596
     19  C        110.0830  140.9650  149.1030 C.2   315  LEU315      0.2287
     20  O        110.4770  140.2560  148.1740 O.2   315  LEU315     -0.2864
     21  CB       112.0180  141.9370  150.3630 C.3   315  LEU315      0.0297
     22  CG       112.9610  143.1120  150.5970 C.3   315  LEU315      0.0022
     23  CD1      114.0260  142.7270  151.5860 C.3   315  LEU315      0.0001
     24  CD2      113.5790  143.5610  149.3050 C.3   315  LEU315      0.0001
     25  N        108.0590  141.2120  145.3800 N.3   318  HIS318     -0.1241
     26  CA       108.7490  141.1280  144.0960 C.3   318  HIS318      0.1621
     27  C        109.1150  139.6800  143.7860 C.2   318  HIS318      0.2264
     28  O        110.2660  139.3180  143.5710 O.2   318  HIS318     -0.2867
     29  CB       109.9620  142.0380  144.1180 C.3   318  HIS318      0.0745
     30  CG       109.6090  143.4560  144.4200 C.ar  318  HIS318      0.0817
     31  ND1      109.4540  143.9210  145.7070 N.ar  318  HIS318     -0.2268
     32  CD2      109.3470  144.5040  143.6070 C.ar  318  HIS318      0.1154
     33  CE1      109.1230  145.1980  145.6730 C.ar  318  HIS318      0.1986
     34  NE2      109.0580  145.5780  144.4120 N.ar  318  HIS318     -0.2212
     35  N        113.3930  134.5450  139.1100 N.3   323  THR323     -0.1218
     36  CA       114.0880  134.3080  140.3650 C.3   323  THR323      0.1862
     37  C        113.3940  133.2840  141.2410 C.2   323  THR323      0.2287
     38  O        114.0390  132.7110  142.1230 O.2   323  THR323     -0.2866
     39  CB       114.2160  135.6040  141.1660 C.3   323  THR323      0.1770
     40  OG1      112.9100  136.0580  141.5340 O.3   323  THR323     -0.2211
     41  CG2      114.8950  136.6640  140.3380 C.3   323  THR323      0.0375
     42  N        112.6180  138.1960  146.6780 N.3   327  HIS327     -0.1241
     43  CA       113.6440  138.6840  147.5910 C.3   327  HIS327      0.1621
     44  C        113.4650  138.1880  149.0130 C.2   327  HIS327      0.2264
     45  O        113.9150  138.8700  149.9390 O.2   327  HIS327     -0.2867
     46  CB       113.6750  140.2090  147.6160 C.3   327  HIS327      0.0745
     47  CG       114.0720  140.8400  146.3260 C.ar  327  HIS327      0.0817
     48  ND1      113.1560  141.2060  145.3670 N.ar  327  HIS327     -0.2268
     49  CD2      115.2840  141.2020  145.8490 C.ar  327  HIS327      0.1154
     50  CE1      113.7880  141.7570  144.3490 C.ar  327  HIS327      0.1986
     51  NE2      115.0800  141.7600  144.6140 N.ar  327  HIS327     -0.2212
     52  N        116.0880  138.6230  152.5780 N.3   330  LEU330     -0.1245
     53  CA       117.0510  139.7170  152.6520 C.3   330  LEU330      0.1561
     54  C        116.8110  140.6210  153.8500 C.2   330  LEU330      0.2260
     55  O        117.7560  141.2370  154.3510 O.2   330  LEU330     -0.2867
     56  CB       117.0210  140.5320  151.3660 C.3   330  LEU330      0.0270
     57  CG       117.5640  139.7790  150.1630 C.3   330  LEU330      0.0019
     58  CD1      117.3700  140.5850  148.9090 C.3   330  LEU330      0.0001
     59  CD2      119.0200  139.5130  150.3910 C.3   330  LEU330      0.0001
     60  N        119.9890  141.1090  156.2730 N.3   334  LEU334     -0.1245
     61  CA       120.5350  142.4260  156.5400 C.3   334  LEU334      0.1561
     62  C        120.2360  142.9410  157.9320 C.2   334  LEU334      0.2260
     63  O        120.7310  144.0100  158.2950 O.2   334  LEU334     -0.2867
     64  CB       120.0050  143.4070  155.5070 C.3   334  LEU334      0.0270
     65  CG       120.6520  143.1300  154.1680 C.3   334  LEU334      0.0019
     66  CD1      120.0050  143.9410  153.0890 C.3   334  LEU334      0.0001
     67  CD2      122.0890  143.5180  154.3320 C.3   334  LEU334      0.0001
     68  N        127.0490  146.6620  151.6510 N.3   344  ILE344     -0.1245
     69  CA       126.1920  147.5870  150.9180 C.3   344  ILE344      0.1561
     70  C        126.5860  149.0260  151.2020 C.2   344  ILE344      0.2260
     71  O        126.7020  149.8450  150.2820 O.2   344  ILE344     -0.2867
     72  CB       124.7180  147.3540  151.2560 C.3   344  ILE344      0.0252
     73  CG1      124.3300  145.9190  150.9900 C.3   344  ILE344      0.0019
     74  CG2      123.8710  148.2090  150.3800 C.3   344  ILE344      0.0019
     75  CD1      122.9380  145.6170  151.4280 C.3   344  ILE344      0.0001
     76  N        116.5420  135.4260  145.4360 N.3   415  VAL415     -0.1231
     77  CA       117.3120  136.1610  144.4510 C.3   415  VAL415      0.1692
     78  C        118.8100  135.9960  144.6920 C.2   415  VAL415      0.2591
     79  O        119.6030  136.0290  143.7440 O.2   415  VAL415     -0.2718
     80  CB       116.8290  137.6210  144.4920 C.3   415  VAL415      0.0266
     81  CG1      117.5850  138.4690  143.5930 C.3   415  VAL415      0.0020
     82  CG2      115.4050  137.6840  144.0400 C.3   415  VAL415      0.0020
     83  N        119.2180  135.7160  145.9310 N.am  416  LEU416     -0.1980
     84  CA       120.6400  135.6620  146.2470 C.3   416  LEU416      0.1596
     85  C        121.3290  134.4390  145.6710 C.2   416  LEU416      0.2287
     86  O        122.1770  134.5620  144.7860 O.2   416  LEU416     -0.2864
     87  CB       120.8530  135.6720  147.7620 C.3   416  LEU416      0.0297
     88  CG       122.2720  135.8360  148.3250 C.3   416  LEU416      0.0022
     89  CD1      122.1520  136.5770  149.6100 C.3   416  LEU416      0.0001
     90  CD2      123.0150  134.5370  148.6110 C.3   416  LEU416      0.0001
     91  N        121.9470  133.3540  141.9670 N.3   419  MET419     -0.1245
     92  CA       123.1980  133.7610  141.3340 C.3   419  MET419      0.1570
     93  C        124.2540  132.6810  141.4700 C.2   419  MET419      0.2261
     94  O        124.8900  132.2900  140.4830 O.2   419  MET419     -0.2867
     95  CB       123.7340  135.0550  141.9350 C.3   419  MET419      0.0387
     96  CG       122.9930  136.3040  141.5770 C.3   419  MET419      0.0595
     97  SD       123.9100  137.6820  142.2740 S.3   419  MET419     -0.1393
     98  CE       125.3740  137.6630  141.2520 C.3   419  MET419      0.0692
@<TRIPOS>BOND
     1    35    36    1
     2    41    39    1
     3    36    39    1
     4    36    37    1
     5    94    93    2
     6    39    40    1
     7    37    38    2
     8    98    97    1
     9    92    93    1
    10    92    95    1
    11    92    91    1
    12    96    95    1
    13    96    97    1
    14    28    27    2
    15    81    80    1
    16    32    34   ar
    17    32    30   ar
    18    79    78    2
    19    27    26    1
    20    82    80    1
    21    26    29    1
    22    26    25    1
    23    29    30    1
    24    50    51   ar
    25    50    48   ar
    26    34    33   ar
    27    30    31   ar
    28    77    80    1
    29    77    78    1
    30    77    76    1
    31    51    49   ar
    32    78    83   am
    33    86    85    2
    34    48    47   ar
    35    85    84    1
    36    33    31   ar
    37    49    47   ar
    38    83    84    1
    39    84    87    1
    40    47    46    1
    41    42    43    1
    42    43    46    1
    43    43    44    1
    44    87    88    1
    45    20    19    2
    46    12    11    2
    47    88    90    1
    48    88    89    1
    49    58    57    1
    50    44    45    2
    51    15    13    1
    52    19    18    1
    53    24    22    1
    54    11    17   am
    55    11    10    1
    56    18    17    1
    57    18    21    1
    58    10    13    1
    59    10     9    1
    60    57    59    1
    61    57    56    1
    62    71    70    2
    63    13    14    1
    64    21    22    1
    65    74    72    1
    66    22    23    1
    67    14    16    1
    68    69    70    1
    69    69    72    1
    70    69    68    1
    71    73    72    1
    72    73    75    1
    73    56    53    1
    74    52    53    1
    75    53    54    1
    76     4     3    2
    77    66    65    1
    78     7     5    1
    79    54    55    2
    80     3     2    1
    81    65    67    1
    82    65    64    1
    83     8     6    1
    84     2     5    1
    85     2     1    1
    86     5     6    1
    87    64    61    1
    88    60    61    1
    89    61    62    1
    90    62    63    2
