@<TRIPOS>MOLECULE
tmp/5zghC05.pdb
 132 125 0 0 0
SMALL
GASTEIGER

@<TRIPOS>ATOM
      1  N         97.7180  182.0670  181.7200 N.3    48  MET48      -0.1230
      2  CA        97.4060  182.8730  182.8940 C.3    48  MET48       0.1702
      3  C         98.2540  184.1320  182.9340 C.2    48  MET48       0.2592
      4  O         97.7660  185.2660  182.8030 O.2    48  MET48      -0.2718
      5  CB        97.7150  182.1270  184.1930 C.3    48  MET48       0.0401
      6  CG        97.0580  180.8140  184.4880 C.3    48  MET48       0.0596
      7  SD        95.2840  180.7310  184.6030 S.3    48  MET48      -0.1393
      8  CE        95.1460  179.0090  185.0340 C.3    48  MET48       0.0692
      9  N         99.5510  183.9020  183.0990 N.am   49  LEU49      -0.1980
     10  CA       100.4780  184.9590  183.4500 C.3    49  LEU49       0.1596
     11  C        100.7680  185.8570  182.2600 C.2    49  LEU49       0.2287
     12  O        101.1050  187.0310  182.4440 O.2    49  LEU49      -0.2864
     13  CB       101.7390  184.3080  184.0250 C.3    49  LEU49       0.0297
     14  CG       102.7130  185.0510  184.9340 C.3    49  LEU49       0.0022
     15  CD1      103.2210  184.1020  185.9810 C.3    49  LEU49       0.0001
     16  CD2      103.8830  185.5710  184.1770 C.3    49  LEU49       0.0001
     17  N         98.1960  186.3600  180.0700 N.3    51  PHE51      -0.1227
     18  CA        96.9230  187.0770  179.9860 C.3    51  PHE51       0.1736
     19  C         96.9470  188.3280  180.8480 C.2    51  PHE51       0.2595
     20  O         96.6360  189.4280  180.3770 O.2    51  PHE51      -0.2718
     21  CB        95.7580  186.1820  180.4070 C.3    51  PHE51       0.0547
     22  CG        94.4220  186.8800  180.3850 C.ar   51  PHE51      -0.0202
     23  CD1       93.7580  187.0900  179.1870 C.ar   51  PHE51      -0.0042
     24  CD2       93.8360  187.3380  181.5570 C.ar   51  PHE51      -0.0042
     25  CE1       92.5310  187.7340  179.1590 C.ar   51  PHE51      -0.0003
     26  CE2       92.6190  187.9910  181.5300 C.ar   51  PHE51      -0.0003
     27  CZ        91.9620  188.1800  180.3300 C.ar   51  PHE51      -0.0000
     28  N         97.3200  188.1840  182.1220 N.am   52  VAL52      -0.1980
     29  CA        97.4640  189.3960  182.9240 C.3    52  VAL52       0.1595
     30  C         98.7330  190.1540  182.5840 C.2    52  VAL52       0.2287
     31  O         98.8660  191.3170  182.9800 O.2    52  VAL52      -0.2864
     32  CB        97.4400  189.1120  184.4340 C.3    52  VAL52       0.0276
     33  CG1       96.1250  188.4680  184.8230 C.3    52  VAL52       0.0022
     34  CG2       98.5840  188.2400  184.8030 C.3    52  VAL52       0.0022
     35  N        106.0850  175.7590  195.0490 N.3   119  PHE119     -0.1227
     36  CA       105.9040  176.7800  196.0690 C.3   119  PHE119      0.1736
     37  C        104.4270  176.9930  196.3430 C.2   119  PHE119      0.2595
     38  O        103.6060  177.0430  195.4220 O.2   119  PHE119     -0.2718
     39  CB       106.5780  178.0930  195.6490 C.3   119  PHE119      0.0547
     40  CG       105.9940  178.7350  194.4120 C.ar  119  PHE119     -0.0202
     41  CD1      106.4320  178.3690  193.1520 C.ar  119  PHE119     -0.0042
     42  CD2      105.0480  179.7460  194.5170 C.ar  119  PHE119     -0.0042
     43  CE1      105.9090  178.9660  192.0220 C.ar  119  PHE119     -0.0003
     44  CE2      104.5220  180.3430  193.3890 C.ar  119  PHE119     -0.0003
     45  CZ       104.9550  179.9540  192.1420 C.ar  119  PHE119     -0.0000
     46  N        104.0850  177.0740  197.6180 N.am  120  ASP120     -0.1960
     47  CA       102.6720  177.1610  197.9320 C.3   120  ASP120      0.1825
     48  C        102.4650  177.8650  199.2680 C.2   120  ASP120      0.2464
     49  O        102.1530  177.2040  200.2650 O.2   120  ASP120     -0.2730
     50  CB       102.0720  175.7580  197.9730 C.3   120  ASP120      0.1450
     51  CG       100.6230  175.7380  197.5750 C.2   120  ASP120      0.3671
     52  OD1      100.1180  176.7930  197.1560 O.co2 120  ASP120     -0.2456
     53  OD2       99.9920  174.6660  197.6730 O.co2 120  ASP120     -0.2456
     54  N        102.6210  179.1910  199.3440 N.am  121  PRO121     -0.2715
     55  CA       102.3190  179.8950  200.5960 C.3   121  PRO121      0.1536
     56  C        100.8350  180.0930  200.8400 C.2   121  PRO121      0.2598
     57  O        100.4580  180.5590  201.9200 O.2   121  PRO121     -0.2715
     58  CB       103.0230  181.2410  200.4070 C.3   121  PRO121      0.0310
     59  CG       102.9710  181.4650  198.9560 C.3   121  PRO121      0.0237
     60  CD       103.1090  180.1200  198.3080 C.3   121  PRO121      0.0939
     61  N         99.9940  179.7670  199.8630 N.am  122  LEU122     -0.1978
     62  CA        98.5480  179.7820  200.0230 C.3   122  LEU122      0.1596
     63  C         98.0250  178.4070  199.6420 C.2   122  LEU122      0.2287
     64  O         98.8050  177.4560  199.5590 O.2   122  LEU122     -0.2864
     65  CB        97.8950  180.8790  199.1800 C.3   122  LEU122      0.0297
     66  CG        97.8970  182.3210  199.7080 C.3   122  LEU122      0.0022
     67  CD1       99.2480  183.0190  199.5370 C.3   122  LEU122      0.0001
     68  CD2       96.7790  183.1360  199.0650 C.3   122  LEU122      0.0001
     69  N         90.5670  177.3490  183.9540 N.3   142  ASN142     -0.1240
     70  CA        91.0530  178.7180  183.8210 C.3   142  ASN142      0.1653
     71  C         92.2320  178.8050  182.8590 C.2   142  ASN142      0.2266
     72  O         92.4510  179.8530  182.2450 O.2   142  ASN142     -0.2867
     73  CB        91.4450  179.2810  185.1860 C.3   142  ASN142      0.1155
     74  CG        90.2470  179.6090  186.0530 C.2   142  ASN142      0.2627
     75  OD1       89.2610  180.1760  185.5870 O.2   142  ASN142     -0.2716
     76  ND2       90.3340  179.2620  187.3290 N.am  142  ASN142     -0.0877
     77  N         90.6600  178.4640  179.3160 N.3   145  LEU145     -0.1231
     78  CA        89.8330  179.6450  179.1080 C.3   145  LEU145      0.1693
     79  C         90.6920  180.8840  178.8950 C.2   145  LEU145      0.2591
     80  O         90.3920  181.7190  178.0300 O.2   145  LEU145     -0.2718
     81  CB        88.8910  179.8240  180.2930 C.3   145  LEU145      0.0284
     82  CG        87.9440  181.0100  180.1900 C.3   145  LEU145      0.0019
     83  CD1       87.0970  180.8800  178.9440 C.3   145  LEU145      0.0001
     84  CD2       87.0690  181.0850  181.4220 C.3   145  LEU145      0.0001
     85  N         91.7840  181.0020  179.6550 N.am  146  ALA146     -0.1980
     86  CA        92.7450  182.0730  179.4250 C.3   146  ALA146      0.1597
     87  C         93.4610  181.9080  178.0940 C.2   146  ALA146      0.2287
     88  O         93.9400  182.8880  177.5190 O.2   146  ALA146     -0.2864
     89  CB        93.7660  182.1100  180.5580 C.3   146  ALA146      0.0319
     90  N         91.2340  182.9990  175.5050 N.3   149  ALA149     -0.1245
     91  CA        91.4110  184.4340  175.6550 C.3   149  ALA149      0.1562
     92  C         92.7140  184.9350  175.0460 C.2   149  ALA149      0.2260
     93  O         92.7980  186.1160  174.7080 O.2   149  ALA149     -0.2867
     94  CB        91.3570  184.8290  177.1250 C.3   149  ALA149      0.0290
     95  N         91.8050  185.4080  171.5850 N.3   152  ALA152     -0.1231
     96  CA        90.9620  186.5950  171.6160 C.3   152  ALA152      0.1694
     97  C         91.8210  187.8510  171.5680 C.2   152  ALA152      0.2591
     98  O         91.8350  188.5600  170.5580 O.2   152  ALA152     -0.2718
     99  CB        90.0700  186.5790  172.8580 C.3   152  ALA152      0.0304
    100  N         92.6560  188.0540  172.5910 N.am  153  LEU153     -0.1980
    101  CA        93.5480  189.2080  172.6520 C.3   153  LEU153      0.1596
    102  C         94.6190  189.2220  171.5710 C.2   153  LEU153      0.2287
    103  O         95.2450  190.2680  171.3680 O.2   153  LEU153     -0.2864
    104  CB        94.2330  189.3040  174.0120 C.3   153  LEU153      0.0297
    105  CG        93.4440  190.0340  175.0990 C.3   153  LEU153      0.0022
    106  CD1       92.4220  189.1600  175.7670 C.3   153  LEU153      0.0001
    107  CD2       94.3660  190.6240  176.1200 C.3   153  LEU153      0.0001
    108  N         92.1320  190.5370  168.8320 N.3   156  GLN156     -0.1245
    109  CA        91.5690  191.8420  169.1320 C.3   156  GLN156      0.1566
    110  C         92.5180  192.9730  168.7670 C.2   156  GLN156      0.2260
    111  O         92.2840  194.1170  169.1700 O.2   156  GLN156     -0.2867
    112  CB        91.1770  191.9520  170.6090 C.3   156  GLN156      0.0367
    113  CG        90.0090  191.0730  171.0350 C.3   156  GLN156      0.0905
    114  CD        88.7600  191.2820  170.2100 C.2   156  GLN156      0.2608
    115  OE1       88.4570  190.4820  169.3320 O.2   156  GLN156     -0.2717
    116  NE2       88.0010  192.3220  170.5220 N.am  156  GLN156     -0.0878
    117  N         93.5370  196.8120  174.3020 N.3   165  VAL165     -0.1245
    118  CA        92.5260  195.8010  174.5630 C.3   165  VAL165      0.1561
    119  C         91.3840  196.3610  175.3960 C.2   165  VAL165      0.2260
    120  O         90.2130  196.1970  175.0520 O.2   165  VAL165     -0.2867
    121  CB        93.1730  194.5810  175.2500 C.3   165  VAL165      0.0252
    122  CG1       92.1200  193.5480  175.5860 C.3   165  VAL165      0.0019
    123  CG2       94.2480  193.9990  174.3600 C.3   165  VAL165      0.0019
    124  N         89.3250  199.0490  173.5610 N.3   168  GLN168     -0.1245
    125  CA        88.7070  198.6710  172.2980 C.3   168  GLN168      0.1566
    126  C         87.1980  198.8670  172.3350 C.2   168  GLN168      0.2260
    127  O         86.5880  199.2020  171.3120 O.2   168  GLN168     -0.2867
    128  CB        89.0580  197.2250  171.9730 C.3   168  GLN168      0.0367
    129  CG        88.6500  196.7930  170.5960 C.3   168  GLN168      0.0905
    130  CD        89.0220  195.3660  170.3370 C.2   168  GLN168      0.2608
    131  OE1       89.5330  194.6850  171.2210 O.2   168  GLN168     -0.2717
    132  NE2       88.7670  194.8960  169.1250 N.am  168  GLN168     -0.0878
@<TRIPOS>BOND
     1   110   109    1
     2   110   111    2
     3   108   109    1
     4   132   130   am
     5   109   112    1
     6   115   114    2
     7   114   116   am
     8   114   113    1
     9   130   129    1
    10   130   131    2
    11    98    97    2
    12   129   128    1
    13   112   113    1
    14   127   126    2
    15   103   102    2
    16    97    96    1
    17    97   100   am
    18   102   101    1
    19    95    96    1
    20    96    99    1
    21   128   125    1
    22   125   126    1
    23   125   124    1
    24   100   101    1
    25   101   104    1
    26   104   105    1
    27   117   118    1
    28   123   121    1
    29   118   121    1
    30   118   119    1
    31    93    92    2
    32    92    91    1
    33   120   119    2
    34   105   106    1
    35   105   107    1
    36   121   122    1
    37    90    91    1
    38    91    94    1
    39    88    87    2
    40    80    79    2
    41    87    86    1
    42    79    78    1
    43    79    85   am
    44    83    82    1
    45    78    77    1
    46    78    81    1
    47    25    23   ar
    48    25    27   ar
    49    23    22   ar
    50    86    85    1
    51    86    89    1
    52    18    17    1
    53    18    21    1
    54    18    19    1
    55    82    81    1
    56    82    84    1
    57    27    26   ar
    58    20    19    2
    59    22    21    1
    60    22    24   ar
    61    19    28   am
    62    26    24   ar
    63     1     2    1
    64    28    29    1
    65    72    71    2
    66    11    12    2
    67    11    10    1
    68    30    29    1
    69    30    31    2
    70     4     3    2
    71    71    70    1
    72     2     3    1
    73     2     5    1
    74    29    32    1
    75     3     9   am
    76     9    10    1
    77    10    13    1
    78    70    69    1
    79    70    73    1
    80    13    14    1
    81    16    14    1
    82     5     6    1
    83    32    34    1
    84    32    33    1
    85     6     7    1
    86     7     8    1
    87    14    15    1
    88    73    74    1
    89    75    74    2
    90    74    76   am
    91    43    45   ar
    92    43    41   ar
    93    45    44   ar
    94    41    40   ar
    95    44    42   ar
    96    40    42   ar
    97    40    39    1
    98    35    36    1
    99    38    37    2
   100    39    36    1
   101    36    37    1
   102    37    46   am
   103    52    51   ar
   104    51    53   ar
   105    51    50    1
   106    46    47    1
   107    47    50    1
   108    47    48    1
   109    60    59    1
   110    60    54    1
   111    59    58    1
   112    68    66    1
   113    65    66    1
   114    65    62    1
   115    48    54   am
   116    48    49    2
   117    54    55    1
   118    67    66    1
   119    64    63    2
   120    63    62    1
   121    61    62    1
   122    61    56   am
   123    58    55    1
   124    55    56    1
   125    56    57    2
