@<TRIPOS>MOLECULE
tmp/5zghC03.pdb
 84 79 0 0 0
SMALL
GASTEIGER

@<TRIPOS>ATOM
      1  N         90.6600  178.4640  179.3160 N.3   145  LEU145     -0.1245
      2  CA        89.8330  179.6450  179.1080 C.3   145  LEU145      0.1561
      3  C         90.6920  180.8840  178.8950 C.2   145  LEU145      0.2260
      4  O         90.3920  181.7190  178.0300 O.2   145  LEU145     -0.2867
      5  CB        88.8910  179.8240  180.2930 C.3   145  LEU145      0.0270
      6  CG        87.9440  181.0100  180.1900 C.3   145  LEU145      0.0019
      7  CD1       87.0970  180.8800  178.9440 C.3   145  LEU145      0.0001
      8  CD2       87.0690  181.0850  181.4220 C.3   145  LEU145      0.0001
      9  N         92.1490  180.4190  175.1510 N.3   148  ILE148     -0.1231
     10  CA        91.1740  180.9430  174.1960 C.3   148  ILE148      0.1692
     11  C         91.1020  182.4620  174.2900 C.2   148  ILE148      0.2591
     12  O         90.9900  183.1620  173.2720 O.2   148  ILE148     -0.2718
     13  CB        89.8050  180.2770  174.4380 C.3   148  ILE148      0.0266
     14  CG1       89.8890  178.7840  174.1350 C.3   148  ILE148      0.0019
     15  CG2       88.6970  180.9130  173.6110 C.3   148  ILE148      0.0020
     16  CD1       88.6510  178.0230  174.5290 C.3   148  ILE148      0.0001
     17  N         91.2340  182.9990  175.5050 N.am  149  ALA149     -0.1980
     18  CA        91.4110  184.4340  175.6550 C.3   149  ALA149      0.1597
     19  C         92.7140  184.9350  175.0460 C.2   149  ALA149      0.2287
     20  O         92.7980  186.1160  174.7080 O.2   149  ALA149     -0.2864
     21  CB        91.3570  184.8290  177.1250 C.3   149  ALA149      0.0319
     22  N         93.9520  183.7820  172.1060 N.3   151  LEU151     -0.1231
     23  CA        93.6620  184.0880  170.7010 C.3   151  LEU151      0.1693
     24  C         92.6390  185.2010  170.5640 C.2   151  LEU151      0.2591
     25  O         92.6000  185.8670  169.5210 O.2   151  LEU151     -0.2718
     26  CB        93.1630  182.8740  169.9180 C.3   151  LEU151      0.0284
     27  CG        93.1430  182.9660  168.3800 C.3   151  LEU151      0.0019
     28  CD1       94.5460  183.1590  167.8320 C.3   151  LEU151      0.0001
     29  CD2       92.4730  181.7980  167.7070 C.3   151  LEU151      0.0001
     30  N         91.8050  185.4080  171.5850 N.am  152  ALA152     -0.1980
     31  CA        90.9620  186.5950  171.6160 C.3   152  ALA152      0.1597
     32  C         91.8210  187.8510  171.5680 C.2   152  ALA152      0.2287
     33  O         91.8350  188.5600  170.5580 O.2   152  ALA152     -0.2864
     34  CB        90.0700  186.5790  172.8580 C.3   152  ALA152      0.0319
     35  N         93.6040  188.2810  168.3510 N.3   155  HIS155     -0.1226
     36  CA        92.7150  188.7280  167.2900 C.3   155  HIS155      0.1752
     37  C         91.8340  189.8950  167.7060 C.2   155  HIS155      0.2595
     38  O         90.8660  190.2060  167.0060 O.2   155  HIS155     -0.2718
     39  CB        91.8550  187.5630  166.8060 C.3   155  HIS155      0.0759
     40  CG        92.6010  186.5840  165.9560 C.ar  155  HIS155      0.0818
     41  ND1       92.1130  185.3310  165.6570 N.ar  155  HIS155     -0.2268
     42  CD2       93.7860  186.6900  165.3120 C.ar  155  HIS155      0.1154
     43  CE1       92.9780  184.6980  164.8850 C.ar  155  HIS155      0.1986
     44  NE2       94.0020  185.5010  164.6610 N.ar  155  HIS155     -0.2212
     45  N         92.1320  190.5370  168.8320 N.am  156  GLN156     -0.1979
     46  CA        91.5690  191.8420  169.1320 C.3   156  GLN156      0.1601
     47  C         92.5180  192.9730  168.7670 C.2   156  GLN156      0.2287
     48  O         92.2840  194.1170  169.1700 O.2   156  GLN156     -0.2864
     49  CB        91.1770  191.9520  170.6090 C.3   156  GLN156      0.0394
     50  CG        90.0090  191.0730  171.0350 C.3   156  GLN156      0.0908
     51  CD        88.7600  191.2820  170.2100 C.2   156  GLN156      0.2608
     52  OE1       88.4570  190.4820  169.3320 O.2   156  GLN156     -0.2717
     53  NE2       88.0010  192.3220  170.5220 N.am  156  GLN156     -0.0878
     54  N         92.8850  192.1020  163.3960 N.3   159  LEU159     -0.1231
     55  CA        91.7460  192.5300  162.6040 C.3   159  LEU159      0.1693
     56  C         90.9630  193.6400  163.2910 C.2   159  LEU159      0.2592
     57  O         89.7840  193.8450  162.9810 O.2   159  LEU159     -0.2718
     58  CB        90.8350  191.3390  162.2960 C.3   159  LEU159      0.0284
     59  CG        91.2520  190.3740  161.1750 C.3   159  LEU159      0.0019
     60  CD1       92.3470  189.3890  161.5810 C.3   159  LEU159      0.0001
     61  CD2       90.0470  189.6270  160.6500 C.3   159  LEU159      0.0001
     62  N         91.5950  194.3480  164.2260 N.am  160  SER160     -0.1952
     63  CA        90.9710  195.4440  164.9440 C.3   160  SER160      0.1924
     64  C         91.7730  196.7330  164.9000 C.2   160  SER160      0.2314
     65  O         91.2510  197.7780  165.3050 O.2   160  SER160     -0.2863
     66  CB        90.7370  195.0560  166.4090 C.3   160  SER160      0.2116
     67  OG        89.8350  193.9690  166.5050 O.3   160  SER160     -0.2180
     68  N         89.3250  199.0490  173.5610 N.3   168  GLN168     -0.1231
     69  CA        88.7070  198.6710  172.2980 C.3   168  GLN168      0.1698
     70  C         87.1980  198.8670  172.3350 C.2   168  GLN168      0.2592
     71  O         86.5880  199.2020  171.3120 O.2   168  GLN168     -0.2718
     72  CB        89.0580  197.2250  171.9730 C.3   168  GLN168      0.0381
     73  CG        88.6500  196.7930  170.5960 C.3   168  GLN168      0.0905
     74  CD        89.0220  195.3660  170.3370 C.2   168  GLN168      0.2608
     75  OE1       89.5330  194.6850  171.2210 O.2   168  GLN168     -0.2717
     76  NE2       88.7670  194.8960  169.1250 N.am  168  GLN168     -0.0878
     77  N         86.5860  198.7080  173.5090 N.am  169  LEU169     -0.1980
     78  CA        85.1800  199.0430  173.6900 C.3   169  LEU169      0.1596
     79  C         84.9320  200.5440  173.7090 C.2   169  LEU169      0.2287
     80  O         83.7650  200.9520  173.6580 O.2   169  LEU169     -0.2864
     81  CB        84.6550  198.4250  174.9860 C.3   169  LEU169      0.0297
     82  CG        84.6200  196.8990  175.0220 C.3   169  LEU169      0.0022
     83  CD1       84.2080  196.4100  176.4000 C.3   169  LEU169      0.0001
     84  CD2       83.6850  196.3600  173.9500 C.3   169  LEU169      0.0001
@<TRIPOS>BOND
     1    61    59    1
     2    59    60    1
     3    59    58    1
     4    58    55    1
     5    55    56    1
     6    55    54    1
     7    57    56    2
     8    56    62   am
     9    62    63    1
    10    44    43   ar
    11    44    42   ar
    12    43    41   ar
    13    64    63    1
    14    64    65    2
    15    63    66    1
    16    42    40   ar
    17    41    40   ar
    18    40    39    1
    19    66    67    1
    20    39    36    1
    21    38    37    2
    22    36    37    1
    23    36    35    1
    24    37    45   am
    25    29    27    1
    26    28    27    1
    27    27    26    1
    28    47    46    1
    29    47    48    2
    30    45    46    1
    31    76    74   am
    32    46    49    1
    33    52    51    2
    34    25    24    2
    35    26    23    1
    36    51    53   am
    37    51    50    1
    38    74    73    1
    39    74    75    2
    40    33    32    2
    41    24    23    1
    42    24    30   am
    43    73    72    1
    44    49    50    1
    45    23    22    1
    46    71    70    2
    47    32    31    1
    48    30    31    1
    49    31    34    1
    50    72    69    1
    51    69    70    1
    52    69    68    1
    53    70    77   am
    54    12    11    2
    55    77    78    1
    56    15    13    1
    57    80    79    2
    58    78    79    1
    59    78    81    1
    60    84    82    1
    61    14    13    1
    62    14    16    1
    63    10    11    1
    64    10    13    1
    65    10     9    1
    66    11    17   am
    67    20    19    2
    68    81    82    1
    69    82    83    1
    70    19    18    1
    71    17    18    1
    72    18    21    1
    73     4     3    2
    74     3     2    1
    75     7     6    1
    76     2     1    1
    77     2     5    1
    78     6     5    1
    79     6     8    1
