@<TRIPOS>MOLECULE
tmp/5zghD60.pdb
 142 137 0 0 0
SMALL
GASTEIGER

@<TRIPOS>ATOM
      1  N        112.6600  150.6390  173.3810 N.3     4  VAL4       -0.1245
      2  CA       114.0960  150.7450  173.5920 C.3     4  VAL4        0.1561
      3  C        114.4160  150.1130  174.9370 C.2     4  VAL4        0.2260
      4  O        114.1870  150.7200  175.9900 O.2     4  VAL4       -0.2867
      5  CB       114.5560  152.2040  173.5390 C.3     4  VAL4        0.0252
      6  CG1      116.0390  152.2980  173.7340 C.3     4  VAL4        0.0019
      7  CG2      114.1570  152.8090  172.2340 C.3     4  VAL4        0.0019
      8  N        117.3300  148.8560  177.3330 N.3     6  VAL6       -0.1245
      9  CA       118.7350  149.1990  177.5020 C.3     6  VAL6        0.1561
     10  C        119.2490  148.5360  178.7690 C.2     6  VAL6        0.2260
     11  O        118.7230  148.7820  179.8600 O.2     6  VAL6       -0.2867
     12  CB       118.9350  150.7190  177.5710 C.3     6  VAL6        0.0252
     13  CG1      120.3650  151.0380  177.8900 C.3     6  VAL6        0.0019
     14  CG2      118.5570  151.3580  176.2680 C.3     6  VAL6        0.0019
     15  N        121.7820  148.3110  181.7870 N.3     8  ARG8       -0.1245
     16  CA       122.5320  149.2800  182.5710 C.3     8  ARG8        0.1563
     17  C        123.5460  148.5670  183.4490 C.2     8  ARG8        0.2260
     18  O        123.2600  147.4950  183.9920 O.2     8  ARG8       -0.2867
     19  CB       121.5980  150.1340  183.4130 C.3     8  ARG8        0.0307
     20  CG       120.8270  151.1160  182.5740 C.3     8  ARG8        0.0489
     21  CD       119.8320  151.9050  183.3790 C.3     8  ARG8        0.2205
     22  NE       119.1620  152.8840  182.5380 N.pl3   8  ARG8       -0.0865
     23  CZ       118.0850  152.6230  181.8080 C.cat   8  ARG8        0.5346
     24  NH1      117.5550  151.4050  181.8040 N.pl3   8  ARG8        0.1354
     25  NH2      117.5390  153.5780  181.0740 N.pl3   8  ARG8        0.1354
     26  N        128.2650  149.4300  168.0270 N.3    63  PHE63      -0.1241
     27  CA       127.5450  150.6910  168.1910 C.3    63  PHE63       0.1605
     28  C        128.2420  151.6210  169.1610 C.2    63  PHE63       0.2264
     29  O        128.1850  152.8400  168.9970 O.2    63  PHE63      -0.2867
     30  CB       126.1250  150.4480  168.6720 C.3    63  PHE63       0.0534
     31  CG       125.3630  151.7060  168.9460 C.ar   63  PHE63      -0.0203
     32  CD1      124.9500  152.5050  167.9060 C.ar   63  PHE63      -0.0042
     33  CD2      125.0670  152.0900  170.2380 C.ar   63  PHE63      -0.0042
     34  CE1      124.2530  153.6620  168.1470 C.ar   63  PHE63      -0.0003
     35  CE2      124.3740  153.2440  170.4820 C.ar   63  PHE63      -0.0003
     36  CZ       123.9650  154.0300  169.4360 C.ar   63  PHE63      -0.0000
     37  N        130.9670  155.6980  168.0770 N.3    67  PHE67      -0.1241
     38  CA       131.1810  156.9400  168.7990 C.3    67  PHE67       0.1605
     39  C        132.6570  157.2230  168.9920 C.2    67  PHE67       0.2264
     40  O        133.0510  158.3840  169.1080 O.2    67  PHE67      -0.2867
     41  CB       130.5070  156.8900  170.1530 C.3    67  PHE67       0.0534
     42  CG       129.0250  156.8480  170.0990 C.ar   67  PHE67      -0.0203
     43  CD1      128.2950  157.9940  169.8890 C.ar   67  PHE67      -0.0042
     44  CD2      128.3600  155.6700  170.3050 C.ar   67  PHE67      -0.0042
     45  CE1      126.9250  157.9580  169.8680 C.ar   67  PHE67      -0.0003
     46  CE2      126.9930  155.6220  170.2710 C.ar   67  PHE67      -0.0003
     47  CZ       126.2740  156.7680  170.0580 C.ar   67  PHE67      -0.0000
     48  N        133.4970  158.7530  165.5480 N.3    70  LEU70      -0.1245
     49  CA       133.0480  160.1370  165.4860 C.3    70  LEU70       0.1561
     50  C        133.8170  161.0160  166.4500 C.2    70  LEU70       0.2260
     51  O        133.9380  162.2200  166.2180 O.2    70  LEU70      -0.2867
     52  CB       131.5590  160.2320  165.7840 C.3    70  LEU70       0.0270
     53  CG       130.6640  159.5460  164.7640 C.3    70  LEU70       0.0019
     54  CD1      129.2180  159.6560  165.1770 C.3    70  LEU70       0.0001
     55  CD2      130.8770  160.1570  163.4110 C.3    70  LEU70       0.0001
     56  N        132.0750  168.3580  171.1000 N.3   158  MET158     -0.1245
     57  CA       131.4020  167.2020  170.5240 C.3   158  MET158      0.1570
     58  C        132.2730  165.9590  170.5820 C.2   158  MET158      0.2261
     59  O        131.7420  164.8500  170.6630 O.2   158  MET158     -0.2867
     60  CB       130.9880  167.4870  169.0870 C.3   158  MET158      0.0387
     61  CG       129.9030  168.5220  168.9730 C.3   158  MET158      0.0595
     62  SD       128.4440  168.0010  169.8770 S.3   158  MET158     -0.1393
     63  CE       127.9440  166.5850  168.9060 C.3   158  MET158      0.0692
     64  N        131.5540  164.6750  173.8570 N.3   161  LEU161     -0.1231
     65  CA       130.2540  164.0220  173.8680 C.3   161  LEU161      0.1693
     66  C        130.2650  162.6860  173.1440 C.2   161  LEU161      0.2591
     67  O        129.4200  161.8370  173.4370 O.2   161  LEU161     -0.2718
     68  CB       129.1900  164.9260  173.2590 C.3   161  LEU161      0.0284
     69  CG       128.8230  166.1280  174.1230 C.3   161  LEU161      0.0019
     70  CD1      127.8270  167.0130  173.4060 C.3   161  LEU161      0.0001
     71  CD2      128.2660  165.6720  175.4540 C.3   161  LEU161      0.0001
     72  N        131.1980  162.4650  172.2220 N.am  162  MET162     -0.1979
     73  CA       131.2600  161.1660  171.5720 C.3   162  MET162      0.1605
     74  C        132.0990  160.1620  172.3460 C.2   162  MET162      0.2287
     75  O        131.7880  158.9670  172.3180 O.2   162  MET162     -0.2864
     76  CB       131.7890  161.3000  170.1450 C.3   162  MET162      0.0413
     77  CG       130.8720  162.0820  169.2490 C.3   162  MET162      0.0598
     78  SD       129.2240  161.3860  169.1930 S.3   162  MET162     -0.1393
     79  CE       128.3480  162.6830  168.3310 C.3   162  MET162      0.0692
     80  N        132.2890  160.2930  175.7200 N.3   164  PHE164     -0.1227
     81  CA       131.3520  160.0160  176.8010 C.3   164  PHE164      0.1736
     82  C        130.1230  159.2690  176.3090 C.2   164  PHE164      0.2595
     83  O        129.5250  158.4910  177.0600 O.2   164  PHE164     -0.2718
     84  CB       130.9490  161.3210  177.4770 C.3   164  PHE164      0.0547
     85  CG       129.9060  161.1530  178.5230 C.ar  164  PHE164     -0.0202
     86  CD1      130.2070  160.5340  179.7170 C.ar  164  PHE164     -0.0042
     87  CD2      128.6200  161.6140  178.3140 C.ar  164  PHE164     -0.0042
     88  CE1      129.2440  160.3710  180.6850 C.ar  164  PHE164     -0.0003
     89  CE2      127.6520  161.4590  179.2770 C.ar  164  PHE164     -0.0003
     90  CZ       127.9630  160.8350  180.4640 C.ar  164  PHE164     -0.0000
     91  N        129.7560  159.4580  175.0460 N.am  165  ALA165     -0.1980
     92  CA       128.6270  158.7220  174.5010 C.3   165  ALA165      0.1597
     93  C        128.9740  157.2640  174.2540 C.2   165  ALA165      0.2287
     94  O        128.1490  156.3790  174.4920 O.2   165  ALA165     -0.2864
     95  CB       128.1600  159.3710  173.2140 C.3   165  ALA165      0.0319
     96  N        129.3440  155.6110  177.4980 N.3   168  PHE168     -0.1227
     97  CA       128.0120  155.5130  178.0630 C.3   168  PHE168      0.1736
     98  C        127.1940  154.4240  177.3890 C.2   168  PHE168      0.2595
     99  O        126.2940  153.8570  178.0150 O.2   168  PHE168     -0.2718
    100  CB       127.3200  156.8590  177.9320 C.3   168  PHE168      0.0547
    101  CG       125.9940  156.9120  178.5780 C.ar  168  PHE168     -0.0202
    102  CD1      125.8950  157.0330  179.9420 C.ar  168  PHE168     -0.0042
    103  CD2      124.8430  156.8420  177.8250 C.ar  168  PHE168     -0.0042
    104  CE1      124.6690  157.0840  180.5480 C.ar  168  PHE168     -0.0003
    105  CE2      123.6200  156.8860  178.4220 C.ar  168  PHE168     -0.0003
    106  CZ       123.5280  157.0140  179.7860 C.ar  168  PHE168     -0.0000
    107  N        127.4910  154.1100  176.1310 N.am  169  HIS169     -0.1975
    108  CA       126.7310  153.1200  175.3820 C.3   169  HIS169      0.1656
    109  C        127.4510  151.8050  175.1920 C.2   169  HIS169      0.2291
    110  O        126.9660  150.9550  174.4440 O.2   169  HIS169     -0.2864
    111  CB       126.3120  153.6710  174.0300 C.3   169  HIS169      0.0771
    112  CG       125.1290  154.5610  174.1100 C.ar  169  HIS169      0.0820
    113  ND1      123.8420  154.0790  174.1440 N.ar  169  HIS169     -0.2267
    114  CD2      125.0360  155.8990  174.2330 C.ar  169  HIS169      0.1154
    115  CE1      123.0010  155.0910  174.2390 C.ar  169  HIS169      0.1986
    116  NE2      123.7040  156.2030  174.3090 N.ar  169  HIS169     -0.2212
    117  N        125.0060  152.3420  179.9410 N.3   173  ALA173     -0.1245
    118  CA       123.6710  152.1870  179.3480 C.3   173  ALA173      0.1562
    119  C        123.8390  151.6490  177.9260 C.2   173  ALA173      0.2260
    120  O        123.9670  152.4210  176.9770 O.2   173  ALA173     -0.2867
    121  CB       122.8880  153.4900  179.3440 C.3   173  ALA173      0.0290
    122  N        122.2650  149.0810  174.7870 N.3   175  PRO175     -0.2116
    123  CA       120.9540  148.5510  174.4010 C.3   175  PRO175      0.1372
    124  C        120.9730  147.0570  174.1050 C.2   175  PRO175      0.2244
    125  O        122.0090  146.3950  174.1100 O.2   175  PRO175     -0.2868
    126  CB       120.6250  149.3420  173.1380 C.3   175  PRO175      0.0268
    127  CG       121.9370  149.6560  172.5720 C.3   175  PRO175      0.0207
    128  CD       122.8620  149.8840  173.7110 C.3   175  PRO175      0.0892
    129  N        116.5040  146.6200  169.9600 N.3   179  TRP179     -0.1241
    130  CA       116.6810  147.9950  169.5240 C.3   179  TRP179      0.1605
    131  C        117.3080  148.0510  168.1360 C.2   179  TRP179      0.2264
    132  O        116.9490  148.9050  167.3200 O.2   179  TRP179     -0.2867
    133  CB       117.5500  148.7320  170.5330 C.3   179  TRP179      0.0550
    134  CG       117.6800  150.1660  170.2740 C.ar  179  TRP179      0.0003
    135  CD1      116.7110  151.0980  170.3820 C.ar  179  TRP179      0.0946
    136  CD2      118.8560  150.8520  169.8660 C.ar  179  TRP179      0.0152
    137  NE1      117.2030  152.3340  170.0590 N.ar  179  TRP179     -0.2442
    138  CE2      118.5250  152.2070  169.7370 C.ar  179  TRP179      0.0810
    139  CE3      120.1570  150.4510  169.5860 C.ar  179  TRP179      0.0012
    140  CZ2      119.4510  153.1650  169.3520 C.ar  179  TRP179      0.0191
    141  CZ3      121.0720  151.4030  169.2060 C.ar  179  TRP179      0.0001
    142  CH2      120.7150  152.7410  169.0870 C.ar  179  TRP179      0.0015
@<TRIPOS>BOND
     1    55    53    1
     2    53    54    1
     3    53    52    1
     4    49    48    1
     5    49    52    1
     6    49    50    1
     7    51    50    2
     8   132   131    2
     9    32    34   ar
    10    32    31   ar
    11    26    27    1
    12    37    38    1
    13   131   130    1
    14    34    36   ar
    15    27    30    1
    16    27    28    1
    17    79    78    1
    18    30    31    1
    19    38    39    1
    20    38    41    1
    21    63    62    1
    22    31    33   ar
    23    61    60    1
    24    61    62    1
    25    39    40    2
    26    29    28    2
    27    60    57    1
    28   142   141   ar
    29   142   140   ar
    30    78    77    1
    31   141   139   ar
    32    77    76    1
    33   140   138   ar
    34    36    35   ar
    35   130   129    1
    36   130   133    1
    37   139   136   ar
    38   138   136   ar
    39   138   137   ar
    40   136   134   ar
    41    45    43   ar
    42    45    47   ar
    43    43    42   ar
    44    47    46   ar
    45   137   135   ar
    46    42    41    1
    47    42    44   ar
    48    76    73    1
    49    33    35   ar
    50    46    44   ar
    51   134   135   ar
    52   134   133    1
    53    57    58    1
    54    57    56    1
    55    58    59    2
    56    73    72    1
    57    73    74    1
    58    72    66   am
    59     7     5    1
    60    75    74    2
    61   127   126    1
    62   127   128    1
    63   126   123    1
    64    66    67    2
    65    66    65    1
    66    95    92    1
    67    68    65    1
    68    68    69    1
    69     1     2    1
    70    70    69    1
    71     5     2    1
    72     5     6    1
    73     2     3    1
    74   128   122    1
    75    64    65    1
    76   111   112    1
    77   111   108    1
    78   124   125    2
    79   124   123    1
    80   112   113   ar
    81   112   114   ar
    82    69    71    1
    83   113   115   ar
    84   114   116   ar
    85   115   116   ar
    86    93    94    2
    87    93    92    1
    88   123   122    1
    89   110   109    2
    90    92    91    1
    91     3     4    2
    92    91    82   am
    93   109   108    1
    94   108   107    1
    95    80    81    1
    96   107    98   am
    97    14    12    1
    98    82    81    1
    99    82    83    2
   100    81    84    1
   101   120   119    2
   102     8     9    1
   103    98    99    2
   104    98    97    1
   105    84    85    1
   106    96    97    1
   107     9    12    1
   108     9    10    1
   109    12    13    1
   110   103   105   ar
   111   103   101   ar
   112   119   118    1
   113   100    97    1
   114   100   101    1
   115    87    85   ar
   116    87    89   ar
   117   105   106   ar
   118    85    86   ar
   119   101   102   ar
   120    10    11    2
   121    89    90   ar
   122   121   118    1
   123   118   117    1
   124    86    88   ar
   125   106   104   ar
   126   102   104   ar
   127    90    88   ar
   128    25    23    1
   129    15    16    1
   130    24    23    1
   131    23    22    2
   132    22    21    1
   133    16    19    1
   134    16    17    1
   135    20    21    1
   136    20    19    1
   137    17    18    2
