@<TRIPOS>MOLECULE
tmp/5zghC06.pdb
 160 153 0 0 0
SMALL
GASTEIGER

@<TRIPOS>ATOM
      1  N         87.3810  164.4770  177.1570 N.3    22  PHE22      -0.1227
      2  CA        87.0350  164.9630  175.8260 C.3    22  PHE22       0.1736
      3  C         88.1330  164.5310  174.8630 C.2    22  PHE22       0.2595
      4  O         89.1190  165.2350  174.6480 O.2    22  PHE22      -0.2718
      5  CB        86.8610  166.4750  175.8780 C.3    22  PHE22       0.0547
      6  CG        86.6120  167.1280  174.5610 C.ar   22  PHE22      -0.0202
      7  CD1       85.3890  167.0040  173.9270 C.ar   22  PHE22      -0.0042
      8  CD2       87.5840  167.9320  173.9910 C.ar   22  PHE22      -0.0042
      9  CE1       85.1620  167.6340  172.7220 C.ar   22  PHE22      -0.0003
     10  CE2       87.3640  168.5600  172.7930 C.ar   22  PHE22      -0.0003
     11  CZ        86.1520  168.4180  172.1620 C.ar   22  PHE22      -0.0000
     12  N         87.9690  163.3410  174.2800 N.am   23  ASP23      -0.1960
     13  CA        88.9090  162.7880  173.3060 C.3    23  ASP23       0.1825
     14  C         88.2000  162.5320  171.9830 C.2    23  ASP23       0.2464
     15  O         87.7590  161.4040  171.7190 O.2    23  ASP23      -0.2730
     16  CB        89.5420  161.4910  173.8080 C.3    23  ASP23       0.1450
     17  CG        90.5450  161.7200  174.9060 C.2    23  ASP23       0.3671
     18  OD1       91.1280  162.8140  174.9360 O.co2  23  ASP23      -0.2456
     19  OD2       90.7680  160.8070  175.7260 O.co2  23  ASP23      -0.2456
     20  N         88.0650  163.5440  171.1250 N.am   24  PRO24      -0.2715
     21  CA        87.6110  163.2420  169.7630 C.3    24  PRO24       0.1536
     22  C         88.6790  162.5670  168.9280 C.2    24  PRO24       0.2598
     23  O         88.3760  161.6240  168.1870 O.2    24  PRO24      -0.2715
     24  CB        87.2410  164.6200  169.2010 C.3    24  PRO24       0.0310
     25  CG        87.0120  165.4620  170.3850 C.3    24  PRO24       0.0237
     26  CD        87.9910  164.9860  171.4030 C.3    24  PRO24       0.0939
     27  N         89.9280  163.0160  169.0320 N.am   25  LEU25      -0.1964
     28  CA        90.9760  162.5570  168.1360 C.3    25  LEU25       0.1728
     29  C         91.8300  161.4350  168.7000 C.2    25  LEU25       0.2616
     30  O         92.6600  160.9040  167.9550 O.2    25  LEU25      -0.2715
     31  CB        91.8910  163.7160  167.7370 C.3    25  LEU25       0.0311
     32  CG        91.2740  164.7260  166.7780 C.3    25  LEU25       0.0022
     33  CD1       92.2560  165.8410  166.4770 C.3    25  LEU25       0.0001
     34  CD2       90.8440  164.0300  165.5030 C.3    25  LEU25       0.0001
     35  N         91.6530  161.0810  169.9800 N.am   26  MET26      -0.1963
     36  CA        92.3510  159.9680  170.6370 C.3    26  MET26       0.1736
     37  C         93.8680  160.1410  170.6050 C.2    26  MET26       0.2616
     38  O         94.6130  159.2050  170.3100 O.2    26  MET26      -0.2715
     39  CB        91.9610  158.6160  170.0320 C.3    26  MET26       0.0427
     40  CG        90.5380  158.2070  170.2480 C.3    26  MET26       0.0599
     41  SD        90.1910  157.9170  171.9810 S.3    26  MET26      -0.1393
     42  CE        88.4430  157.6070  171.8620 C.3    26  MET26       0.0692
     43  N         94.3350  161.3530  170.9130 N.am   27  ILE27      -0.1963
     44  CA        95.7790  161.5550  171.0090 C.3    27  ILE27       0.1727
     45  C         96.3150  160.9630  172.3040 C.2    27  ILE27       0.2616
     46  O         97.5280  160.7520  172.4360 O.2    27  ILE27      -0.2715
     47  CB        96.0750  163.0540  170.8040 C.3    27  ILE27       0.0290
     48  CG1       95.3830  163.5320  169.5310 C.3    27  ILE27       0.0022
     49  CG2       97.5530  163.3110  170.5500 C.3    27  ILE27       0.0023
     50  CD1       95.5200  165.0130  169.2680 C.3    27  ILE27       0.0001
     51  N         95.4230  160.6560  173.2510 N.am   28  THR28      -0.1951
     52  CA        95.7480  159.7560  174.3510 C.3    28  THR28       0.1897
     53  C         96.2510  158.4110  173.8440 C.2    28  THR28       0.2313
     54  O         97.2400  157.8750  174.3570 O.2    28  THR28      -0.2863
     55  CB        94.5150  159.5520  175.2230 C.3    28  THR28       0.1794
     56  OG1       94.0900  160.8130  175.7540 O.3    28  THR28      -0.2208
     57  CG2       94.8250  158.6040  176.3560 C.3    28  THR28       0.0378
     58  N        101.0920  174.9690  179.3220 N.3    43  HIS43      -0.1241
     59  CA       100.5430  176.0410  178.4990 C.3    43  HIS43       0.1621
     60  C         99.5290  176.8710  179.2640 C.2    43  HIS43       0.2264
     61  O         99.3720  178.0680  178.9790 O.2    43  HIS43      -0.2867
     62  CB        99.8730  175.4960  177.2500 C.3    43  HIS43       0.0745
     63  CG       100.8200  175.1210  176.1630 C.ar   43  HIS43       0.0817
     64  ND1      101.3190  173.8480  176.0110 N.ar   43  HIS43      -0.2268
     65  CD2      101.3460  175.8560  175.1570 C.ar   43  HIS43       0.1154
     66  CE1      102.1140  173.8150  174.9570 C.ar   43  HIS43       0.1986
     67  NE2      102.1520  175.0230  174.4260 N.ar   43  HIS43      -0.2212
     68  N        101.2880  179.8560  181.0610 N.3    46  ILE46      -0.1231
     69  CA       101.6400  180.9830  180.2120 C.3    46  ILE46       0.1692
     70  C        100.3820  181.6930  179.7370 C.2    46  ILE46       0.2591
     71  O        100.3970  182.9070  179.4970 O.2    46  ILE46      -0.2718
     72  CB       102.5090  180.4810  179.0460 C.3    46  ILE46       0.0266
     73  CG1      103.6590  179.6320  179.5820 C.3    46  ILE46       0.0019
     74  CG2      103.1080  181.6300  178.2790 C.3    46  ILE46       0.0020
     75  CD1      104.5940  180.3780  180.4990 C.3    46  ILE46       0.0001
     76  N         99.2690  180.9610  179.6250 N.am   47  ALA47      -0.1980
     77  CA        97.9900  181.6020  179.3350 C.3    47  ALA47       0.1597
     78  C         97.5550  182.5180  180.4720 C.2    47  ALA47       0.2287
     79  O         97.0810  183.6350  180.2230 O.2    47  ALA47      -0.2864
     80  CB        96.9220  180.5450  179.0640 C.3    47  ALA47       0.0319
     81  N        100.5810  185.3450  181.0470 N.3    50  ALA50      -0.1245
     82  CA       100.6380  186.1970  179.8730 C.3    50  ALA50       0.1562
     83  C         99.3290  186.9350  179.6390 C.2    50  ALA50       0.2260
     84  O         99.3450  188.0210  179.0470 O.2    50  ALA50      -0.2867
     85  CB       100.9960  185.3720  178.6430 C.3    50  ALA50       0.0290
     86  N         99.6710  189.5300  181.8640 N.3    53  GLY53      -0.1210
     87  CA       100.7530  190.2900  181.2670 C.3    53  GLY53       0.1956
     88  C        100.2620  191.2630  180.2170 C.2    53  GLY53       0.2612
     89  O        100.8320  192.3440  180.0500 O.2    53  GLY53      -0.2717
     90  N         99.2020  190.8970  179.5000 N.am   54  THR54      -0.1952
     91  CA        98.5400  191.8440  178.6160 C.3    54  THR54       0.1897
     92  C         97.6260  192.7890  179.3750 C.2    54  THR54       0.2313
     93  O         97.4360  193.9340  178.9520 O.2    54  THR54      -0.2863
     94  CB        97.7240  191.1060  177.5660 C.3    54  THR54       0.1794
     95  OG1       96.8140  190.2200  178.2260 O.3    54  THR54      -0.2208
     96  CG2       98.6160  190.3210  176.6560 C.3    54  THR54       0.0378
     97  N         99.8980  195.1690  180.5130 N.3    57  GLN57      -0.1245
     98  CA       100.7160  195.7280  179.4450 C.3    57  GLN57       0.1566
     99  C        100.4720  197.2200  179.2950 C.2    57  GLN57       0.2260
    100  O        101.3870  197.9660  178.9330 O.2    57  GLN57      -0.2867
    101  CB       100.4090  195.0080  178.1360 C.3    57  GLN57       0.0367
    102  CG       101.3700  195.2660  177.0060 C.3    57  GLN57       0.0905
    103  CD       102.7420  194.7210  177.3020 C.2    57  GLN57       0.2608
    104  OE1      103.6810  195.4750  177.5300 O.2    57  GLN57      -0.2717
    105  NE2      102.8620  193.3990  177.3250 N.am   57  GLN57      -0.0878
    106  N        101.9430  195.1520  171.0680 N.3    72  LEU72      -0.1245
    107  CA       102.2240  193.7560  171.3690 C.3    72  LEU72       0.1561
    108  C        103.3730  193.2250  170.5230 C.2    72  LEU72       0.2260
    109  O        104.3890  192.7720  171.0590 O.2    72  LEU72      -0.2867
    110  CB       100.9650  192.9160  171.1380 C.3    72  LEU72       0.0270
    111  CG       100.9970  191.5530  171.8060 C.3    72  LEU72       0.0019
    112  CD1      100.9620  191.8220  173.2870 C.3    72  LEU72       0.0001
    113  CD2       99.8240  190.6950  171.3890 C.3    72  LEU72       0.0001
    114  N        106.2930  195.3760  171.1270 N.3    75  ALA75      -0.1231
    115  CA       107.0510  194.8960  172.2740 C.3    75  ALA75       0.1694
    116  C        107.9760  193.7640  171.8630 C.2    75  ALA75       0.2592
    117  O        109.1510  193.7430  172.2440 O.2    75  ALA75      -0.2718
    118  CB       106.1040  194.4420  173.3810 C.3    75  ALA75       0.0304
    119  N        107.4780  192.8400  171.0460 N.am   76  HIS76      -0.1976
    120  CA       108.3010  191.7460  170.5590 C.3    76  HIS76       0.1656
    121  C        109.2810  192.1880  169.4760 C.2    76  HIS76       0.2291
    122  O        110.2070  191.4420  169.1490 O.2    76  HIS76      -0.2864
    123  CB       107.4040  190.6180  170.0440 C.3    76  HIS76       0.0771
    124  CG       108.1350  189.3380  169.7950 C.ar   76  HIS76       0.0820
    125  ND1      108.7500  189.0560  168.5950 N.ar   76  HIS76      -0.2267
    126  CD2      108.3840  188.2830  170.6040 C.ar   76  HIS76       0.1154
    127  CE1      109.3300  187.8720  168.6690 C.ar   76  HIS76       0.1986
    128  NE2      109.1290  187.3870  169.8790 N.ar   76  HIS76      -0.2212
    129  N        114.6490  191.3350  176.4100 N.3    84  LEU84      -0.1245
    130  CA       113.7900  190.1690  176.5180 C.3    84  LEU84       0.1561
    131  C        114.5020  188.8590  176.2100 C.2    84  LEU84       0.2260
    132  O        113.9240  187.7930  176.4470 O.2    84  LEU84      -0.2867
    133  CB       112.5620  190.3560  175.6080 C.3    84  LEU84       0.0270
    134  CG       111.3180  189.4840  175.5130 C.3    84  LEU84       0.0019
    135  CD1      110.1080  190.3400  175.2670 C.3    84  LEU84       0.0001
    136  CD2      111.4980  188.5650  174.3490 C.3    84  LEU84       0.0001
    137  N         93.5350  180.6830  177.5930 N.3   147  MET147     -0.1230
    138  CA        94.2520  180.3860  176.3650 C.3   147  MET147      0.1702
    139  C         93.4300  180.8080  175.1480 C.2   147  MET147      0.2592
    140  O         93.9300  181.4920  174.2330 O.2   147  MET147     -0.2718
    141  CB        94.5440  178.8930  176.3720 C.3   147  MET147      0.0401
    142  CG        95.6610  178.4350  175.5310 C.3   147  MET147      0.0596
    143  SD        95.8990  176.6770  175.8470 S.3   147  MET147     -0.1393
    144  CE        96.3900  176.7060  177.5640 C.3   147  MET147      0.0692
    145  N         92.1490  180.4190  175.1510 N.am  148  ILE148     -0.1980
    146  CA        91.1740  180.9430  174.1960 C.3   148  ILE148      0.1595
    147  C         91.1020  182.4620  174.2900 C.2   148  ILE148      0.2287
    148  O         90.9900  183.1620  173.2720 O.2   148  ILE148     -0.2864
    149  CB        89.8050  180.2770  174.4380 C.3   148  ILE148      0.0276
    150  CG1       89.8890  178.7840  174.1350 C.3   148  ILE148      0.0022
    151  CG2       88.6970  180.9130  173.6110 C.3   148  ILE148      0.0022
    152  CD1       88.6510  178.0230  174.5290 C.3   148  ILE148      0.0001
    153  N         93.7300  184.0850  174.8830 N.3   150  MET150     -0.1245
    154  CA        94.9260  184.5980  174.2270 C.3   150  MET150      0.1570
    155  C         94.7780  184.6450  172.7130 C.2   150  MET150      0.2261
    156  O         95.4080  185.4970  172.0730 O.2   150  MET150     -0.2867
    157  CB        96.1700  183.8040  174.6210 C.3   150  MET150      0.0387
    158  CG        96.5920  184.0240  176.0620 C.3   150  MET150      0.0595
    159  SD        96.7910  185.7660  176.4840 S.3   150  MET150     -0.1393
    160  CE        98.2240  186.1950  175.5070 C.3   150  MET150      0.0692
@<TRIPOS>BOND
     1    34    32    1
     2    33    32    1
     3    32    31    1
     4    31    28    1
     5    30    29    2
     6    28    29    1
     7    28    27    1
     8    23    22    2
     9   125   127   ar
    10   125   124   ar
    11   127   128   ar
    12    29    35   am
    13    22    27   am
    14    22    21    1
    15   122   121    2
    16    24    21    1
    17    24    25    1
    18    50    48    1
    19   121   120    1
    20    48    47    1
    21    21    20    1
    22   124   123    1
    23   124   126   ar
    24   128   126   ar
    25    35    36    1
    26    39    40    1
    27    39    36    1
    28   123   120    1
    29    40    41    1
    30    38    37    2
    31    25    26    1
    32   108   109    2
    33   108   107    1
    34    49    47    1
    35   120   119    1
    36    37    36    1
    37    37    43   am
    38    47    44    1
    39    43    44    1
    40    44    45    1
    41   119   116   am
    42   106   107    1
    43    20    26    1
    44    20    14   am
    45   114   115    1
    46   110   107    1
    47   110   111    1
    48   113   111    1
    49    15    14    2
    50   111   112    1
    51    42    41    1
    52   116   117    2
    53   116   115    1
    54    14    13    1
    55   156   155    2
    56    11     9   ar
    57    11    10   ar
    58   115   118    1
    59    45    46    2
    60    45    51   am
    61   155   154    1
    62     9     7   ar
    63    10     8   ar
    64    51    52    1
    65   148   147    2
    66    13    16    1
    67    13    12    1
    68   151   149    1
    69    16    17    1
    70    53    52    1
    71    53    54    2
    72     7     6   ar
    73     8     6   ar
    74   150   149    1
    75   150   152    1
    76   146   147    1
    77   146   149    1
    78   146   145    1
    79   154   157    1
    80   154   153    1
    81   140   139    2
    82    12     3   am
    83   136   134    1
    84    52    55    1
    85    67    66   ar
    86    67    65   ar
    87     6     5    1
    88   157   158    1
    89     4     3    2
    90     3     2    1
    91    17    18   ar
    92    17    19   ar
    93    66    64   ar
    94   139   145   am
    95   139   138    1
    96    65    63   ar
    97    55    56    1
    98    55    57    1
    99   135   134    1
   100   160   159    1
   101   134   133    1
   102   142   143    1
   103   142   141    1
   104   133   130    1
   105     2     5    1
   106     2     1    1
   107   143   144    1
   108    64    63   ar
   109   158   159    1
   110    63    62    1
   111   131   132    2
   112   131   130    1
   113   138   141    1
   114   138   137    1
   115   129   130    1
   116    96    94    1
   117   102   103    1
   118   102   101    1
   119    62    59    1
   120   103   105   am
   121   103   104    2
   122    94    95    1
   123    94    91    1
   124   101    98    1
   125    74    72    1
   126    59    60    1
   127    59    58    1
   128    91    92    1
   129    91    90    1
   130    85    82    1
   131   100    99    2
   132    93    92    2
   133    61    60    2
   134    72    73    1
   135    72    69    1
   136    84    83    2
   137    80    77    1
   138    99    98    1
   139    77    76    1
   140    77    78    1
   141    98    97    1
   142    71    70    2
   143    90    88   am
   144    73    75    1
   145    76    70   am
   146    83    82    1
   147    70    69    1
   148    82    81    1
   149    89    88    2
   150    69    68    1
   151    88    87    1
   152    79    78    2
   153    87    86    1
