@<TRIPOS>MOLECULE
tmp/5zghD02.pdb
 133 130 0 0 0
SMALL
GASTEIGER

@<TRIPOS>ATOM
      1  N        139.8750  173.3100  162.4460 N.3    81  TYR81      -0.1241
      2  CA       139.4250  174.6390  162.7950 C.3    81  TYR81       0.1605
      3  C        140.4320  175.3580  163.6730 C.2    81  TYR81       0.2264
      4  O        140.5120  176.5920  163.6300 O.2    81  TYR81      -0.2867
      5  CB       138.0610  174.5450  163.4610 C.3    81  TYR81       0.0534
      6  CG       136.9810  174.1700  162.4880 C.ar   81  TYR81      -0.0201
      7  CD1      137.1370  174.4100  161.1370 C.ar   81  TYR81      -0.0009
      8  CD2      135.8310  173.5340  162.9100 C.ar   81  TYR81      -0.0009
      9  CE1      136.1720  174.0650  160.2480 C.ar   81  TYR81       0.0417
     10  CE2      134.8530  173.1810  162.0080 C.ar   81  TYR81       0.0417
     11  CZ       135.0340  173.4540  160.6760 C.ar   81  TYR81       0.1957
     12  OH       134.0780  173.1160  159.7530 O.3    81  TYR81      -0.2866
     13  N        131.0420  178.7630  153.9000 N.3   140  SER140     -0.1202
     14  CA       130.2910  178.7270  155.1380 C.3   140  SER140      0.2020
     15  C        130.2240  180.0830  155.8190 C.2   140  SER140      0.2619
     16  O        129.4350  180.2510  156.7510 O.2   140  SER140     -0.2717
     17  CB       130.9030  177.7000  156.0790 C.3   140  SER140      0.2103
     18  OG       130.1570  177.6430  157.2700 O.3   140  SER140     -0.2182
     19  N        131.0280  181.0460  155.3850 N.am  141  GLY141     -0.1942
     20  CA       130.9090  182.3990  155.8760 C.3   141  GLY141      0.2014
     21  C        131.7050  182.7100  157.1160 C.2   141  GLY141      0.2638
     22  O        131.3690  183.6630  157.8240 O.2   141  GLY141     -0.2714
     23  N        132.7410  181.9340  157.4130 N.am  142  ILE142     -0.1977
     24  CA       133.5810  182.2240  158.5660 C.3   142  ILE142      0.1596
     25  C        134.4310  183.4470  158.2540 C.2   142  ILE142      0.2287
     26  O        135.2300  183.4410  157.3120 O.2   142  ILE142     -0.2864
     27  CB       134.4460  181.0150  158.9250 C.3   142  ILE142      0.0276
     28  CG1      133.5570  179.8660  159.3880 C.3   142  ILE142      0.0022
     29  CG2      135.4270  181.3840  159.9980 C.3   142  ILE142      0.0022
     30  CD1      134.2800  178.5610  159.5170 C.3   142  ILE142      0.0001
     31  N        135.4920  182.6320  164.9000 N.3   147  GLN147     -0.1245
     32  CA       134.6360  181.4870  164.6300 C.3   147  GLN147      0.1566
     33  C        135.4390  180.2140  164.4310 C.2   147  GLN147      0.2260
     34  O        134.9120  179.1240  164.6600 O.2   147  GLN147     -0.2867
     35  CB       133.7770  181.7200  163.3950 C.3   147  GLN147      0.0367
     36  CG       132.9180  182.9480  163.4450 C.3   147  GLN147      0.0905
     37  CD       133.5830  184.1240  162.7820 C.2   147  GLN147      0.2608
     38  OE1      134.5220  183.9590  162.0080 O.2   147  GLN147     -0.2717
     39  NE2      133.1040  185.3220  163.0760 N.am  147  GLN147     -0.0878
     40  N        136.2670  179.2060  168.1320 N.3   150  VAL150     -0.1231
     41  CA       135.0660  178.7680  168.8350 C.3   150  VAL150      0.1692
     42  C        134.5270  177.4800  168.2360 C.2   150  VAL150      0.2592
     43  O        134.1230  176.5660  168.9620 O.2   150  VAL150     -0.2718
     44  CB       134.0190  179.8940  168.8240 C.3   150  VAL150      0.0266
     45  CG1      132.6750  179.4010  169.3040 C.3   150  VAL150      0.0020
     46  CG2      134.4810  181.0230  169.7170 C.3   150  VAL150      0.0020
     47  N        134.5740  177.3570  166.9120 N.am  151  THR151     -0.1953
     48  CA       134.0990  176.1360  166.2770 C.3   151  THR151      0.1897
     49  C        135.0700  174.9870  166.5090 C.2   151  THR151      0.2313
     50  O        134.6540  173.8240  166.5550 O.2   151  THR151     -0.2863
     51  CB       133.8780  176.3850  164.7910 C.3   151  THR151      0.1794
     52  OG1      133.1620  177.6130  164.6390 O.3   151  THR151     -0.2208
     53  CG2      133.0020  175.3140  164.2100 C.3   151  THR151      0.0378
     54  N        119.4970  167.7070  158.4780 N.3   198  GLY198     -0.1225
     55  CA       120.8260  168.1730  158.1310 C.3   198  GLY198      0.1811
     56  C        120.8100  169.1270  156.9540 C.2   198  GLY198      0.2280
     57  O        121.3820  170.2180  157.0120 O.2   198  GLY198     -0.2866
     58  N        118.5800  172.3400  158.0350 N.3   201  SER201     -0.1202
     59  CA       119.3310  173.2410  158.8930 C.3   201  SER201      0.2020
     60  C        120.5160  173.8450  158.1630 C.2   201  SER201      0.2618
     61  O        120.8670  175.0050  158.4040 O.2   201  SER201     -0.2717
     62  CB       119.7870  172.4920  160.1360 C.3   201  SER201      0.2103
     63  OG       120.6080  171.4070  159.7690 O.3   201  SER201     -0.2182
     64  N        121.1130  173.1030  157.2320 N.am  202  TRP202     -0.1975
     65  CA       122.1790  173.7030  156.4490 C.3   202  TRP202      0.1640
     66  C        121.6480  174.7530  155.4880 C.2   202  TRP202      0.2290
     67  O        122.3300  175.7530  155.2270 O.2   202  TRP202     -0.2864
     68  CB       122.9660  172.6460  155.6960 C.3   202  TRP202      0.0576
     69  CG       124.0370  173.2860  154.9600 C.ar  202  TRP202      0.0006
     70  CD1      124.0820  173.5000  153.6260 C.ar  202  TRP202      0.0946
     71  CD2      125.1860  173.9250  155.5120 C.ar  202  TRP202      0.0152
     72  NE1      125.2200  174.1800  153.2980 N.ar  202  TRP202     -0.2442
     73  CE2      125.9170  174.4500  154.4420 C.ar  202  TRP202      0.0810
     74  CE3      125.6930  174.0640  156.8050 C.ar  202  TRP202      0.0012
     75  CZ2      127.1040  175.1300  154.6200 C.ar  202  TRP202      0.0191
     76  CZ3      126.8850  174.7170  156.9750 C.ar  202  TRP202      0.0001
     77  CH2      127.5890  175.2230  155.8870 C.ar  202  TRP202      0.0015
     78  N        119.2870  176.6080  156.4170 N.3   204  GLY204     -0.1210
     79  CA       119.2160  177.7080  157.3630 C.3   204  GLY204      0.1956
     80  C        120.5290  178.4570  157.4930 C.2   204  GLY204      0.2611
     81  O        120.5490  179.6940  157.5060 O.2   204  GLY204     -0.2717
     82  N        121.6440  177.7210  157.5630 N.am  205  HIS205     -0.1975
     83  CA       122.9450  178.3770  157.6550 C.3   205  HIS205      0.1656
     84  C        123.2780  179.1420  156.3900 C.2   205  HIS205      0.2291
     85  O        123.9090  180.2000  156.4540 O.2   205  HIS205     -0.2864
     86  CB       124.0550  177.3700  157.9200 C.3   205  HIS205      0.0771
     87  CG       125.4230  177.9750  157.8850 C.ar  205  HIS205      0.0820
     88  ND1      125.9680  178.6450  158.9520 N.ar  205  HIS205     -0.2267
     89  CD2      126.3220  178.0870  156.8820 C.ar  205  HIS205      0.1154
     90  CE1      127.1710  179.0820  158.6370 C.ar  205  HIS205      0.1986
     91  NE2      127.4090  178.7610  157.3800 N.ar  205  HIS205     -0.2212
     92  N        120.8710  182.3350  156.1740 N.3   208  HIS208     -0.1226
     93  CA       121.0460  183.3320  157.2150 C.3   208  HIS208      0.1752
     94  C        122.4980  183.6040  157.5440 C.2   208  HIS208      0.2595
     95  O        122.7790  184.3960  158.4440 O.2   208  HIS208     -0.2718
     96  CB       120.2780  182.8910  158.4420 C.3   208  HIS208      0.0759
     97  CG       118.8260  182.7610  158.1620 C.ar  208  HIS208      0.0818
     98  ND1      117.9620  183.8290  158.2250 N.ar  208  HIS208     -0.2268
     99  CD2      118.1140  181.7270  157.6650 C.ar  208  HIS208      0.1154
    100  CE1      116.7570  183.4340  157.8600 C.ar  208  HIS208      0.1986
    101  NE2      116.8290  182.1680  157.4980 N.ar  208  HIS208     -0.2212
    102  N        123.4260  182.9570  156.8520 N.am  209  VAL209     -0.1980
    103  CA       124.8370  183.2760  156.9960 C.3   209  VAL209      0.1595
    104  C        125.4470  183.5380  155.6300 C.2   209  VAL209      0.2287
    105  O        125.9970  184.6150  155.3890 O.2   209  VAL209     -0.2864
    106  CB       125.6090  182.1600  157.7120 C.3   209  VAL209      0.0276
    107  CG1      127.0830  182.4820  157.6970 C.3   209  VAL209      0.0022
    108  CG2      125.1300  182.0040  159.1400 C.3   209  VAL209      0.0022
    109  N        127.3400  187.2550  161.3280 N.3   229  PRO229     -0.2102
    110  CA       126.0630  186.5960  160.9990 C.3   229  PRO229      0.1504
    111  C        125.0330  186.7480  162.0910 C.2   229  PRO229      0.2575
    112  O        123.8300  186.6200  161.8300 O.2   229  PRO229     -0.2718
    113  CB       126.4610  185.1290  160.8230 C.3   229  PRO229      0.0282
    114  CG       127.9070  185.1540  160.5610 C.3   229  PRO229      0.0208
    115  CD       128.4570  186.2950  161.3250 C.3   229  PRO229      0.0893
    116  N        125.5080  186.9350  163.3230 N.am  230  HIS230     -0.1976
    117  CA       124.7820  187.5520  164.4210 C.3   230  HIS230      0.1656
    118  C        123.8720  188.6940  163.9740 C.2   230  HIS230      0.2291
    119  O        122.6580  188.6600  164.1970 O.2   230  HIS230     -0.2864
    120  CB       125.8450  188.0510  165.4100 C.3   230  HIS230      0.0771
    121  CG       125.3330  188.9690  166.4720 C.ar  230  HIS230      0.0820
    122  ND1      126.1160  189.9680  167.0080 N.ar  230  HIS230     -0.2267
    123  CD2      124.1590  189.0090  167.1470 C.ar  230  HIS230      0.1154
    124  CE1      125.4200  190.6290  167.9150 C.ar  230  HIS230      0.1986
    125  NE2      124.2260  190.0710  168.0140 N.ar  230  HIS230     -0.2212
    126  N        120.1730  188.7800  161.9390 N.3   233  ILE233     -0.1245
    127  CA       118.9370  188.2030  162.4450 C.3   233  ILE233      0.1561
    128  C        118.3040  189.0700  163.5340 C.2   233  ILE233      0.2260
    129  O        117.0960  188.9320  163.7900 O.2   233  ILE233     -0.2867
    130  CB       119.1750  186.7610  162.9470 C.3   233  ILE233      0.0252
    131  CG1      119.9670  185.9800  161.9080 C.3   233  ILE233      0.0019
    132  CG2      117.8830  185.9680  163.0450 C.3   233  ILE233      0.0019
    133  CD1      120.4260  184.6430  162.3920 C.3   233  ILE233      0.0001
@<TRIPOS>BOND
     1    72    70   ar
     2    72    73   ar
     3    70    69   ar
     4    13    14    1
     5    73    75   ar
     6    73    71   ar
     7    75    77   ar
     8    69    71   ar
     9    69    68    1
    10    14    15    1
    11    14    17    1
    12    67    66    2
    13    19    15   am
    14    19    20    1
    15   105   104    2
    16    66    65    1
    17    71    74   ar
    18   104   103    1
    19    68    65    1
    20    15    16    2
    21    20    21    1
    22    77    76   ar
    23    17    18    1
    24    92    93    1
    25    84    85    2
    26    84    83    1
    27    78    79    1
    28    65    64    1
    29    74    76   ar
    30   102   103    1
    31   102    94   am
    32    89    91   ar
    33    89    87   ar
    34    56    57    2
    35    56    55    1
    36   103   106    1
    37    21    23   am
    38    21    22    2
    39    93    94    1
    40    93    96    1
    41    64    60   am
    42    26    25    2
    43    79    80    1
    44    91    90   ar
    45    23    24    1
    46    80    81    2
    47    80    82   am
    48   101    99   ar
    49   101   100   ar
    50    94    95    2
    51    82    83    1
    52    83    86    1
    53    99    97   ar
    54   107   106    1
    55   106   108    1
    56   100    98   ar
    57    87    86    1
    58    87    88   ar
    59    58    59    1
    60    55    54    1
    61    97    98   ar
    62    97    96    1
    63    60    61    2
    64    60    59    1
    65    25    24    1
    66    24    27    1
    67    90    88   ar
    68    59    62    1
    69    27    28    1
    70    27    29    1
    71    28    30    1
    72    12    11    1
    73    63    62    1
    74     9    11   ar
    75     9     7   ar
    76   114   113    1
    77   114   115    1
    78    11    10   ar
    79   113   110    1
    80   110   109    1
    81   110   111    1
    82     7     6   ar
    83   115   109    1
    84   112   111    2
    85   131   133    1
    86   131   130    1
    87   126   127    1
    88    10     8   ar
    89    38    37    2
    90   111   116   am
    91   127   130    1
    92   127   128    1
    93     1     2    1
    94     6     8   ar
    95     6     5    1
    96    37    39   am
    97    37    36    1
    98     2     5    1
    99     2     3    1
   100   130   132    1
   101   116   117    1
   102    35    36    1
   103    35    32    1
   104   128   129    2
   105     4     3    2
   106   118   119    2
   107   118   117    1
   108    53    51    1
   109   117   120    1
   110    33    32    1
   111    33    34    2
   112    32    31    1
   113    52    51    1
   114    51    48    1
   115   120   121    1
   116    48    49    1
   117    48    47    1
   118   121   122   ar
   119   121   123   ar
   120    49    50    2
   121    47    42   am
   122   122   124   ar
   123   123   125   ar
   124   124   125   ar
   125    40    41    1
   126    42    41    1
   127    42    43    2
   128    44    41    1
   129    44    45    1
   130    44    46    1
