@<TRIPOS>MOLECULE
tmp/5zghD08.pdb
 106 103 0 0 0
SMALL
GASTEIGER

@<TRIPOS>ATOM
      1  N        114.0080  155.3680  159.1310 N.3   188  ASN188     -0.1225
      2  CA       113.0240  156.4180  159.3400 C.3   188  ASN188      0.1785
      3  C        113.6520  157.6390  159.9960 C.2   188  ASN188      0.2597
      4  O        113.2500  158.7690  159.7110 O.2   188  ASN188     -0.2718
      5  CB       111.8840  155.8380  160.1760 C.3   188  ASN188      0.1169
      6  CG       110.6360  156.6820  160.1660 C.2   188  ASN188      0.2627
      7  OD1      110.6020  157.7780  159.6310 O.2   188  ASN188     -0.2716
      8  ND2      109.5780  156.1450  160.7490 N.am  188  ASN188     -0.0877
      9  N        114.6800  157.4450  160.8180 N.am  189  HIS189     -0.1975
     10  CA       115.3700  158.5790  161.4080 C.3   189  HIS189      0.1656
     11  C        116.6260  158.9860  160.6610 C.2   189  HIS189      0.2291
     12  O        117.1090  160.0980  160.8750 O.2   189  HIS189     -0.2864
     13  CB       115.7590  158.2850  162.8470 C.3   189  HIS189      0.0771
     14  CG       114.6020  157.9810  163.7280 C.ar  189  HIS189      0.0820
     15  ND1      114.0680  156.7190  163.8250 N.ar  189  HIS189     -0.2267
     16  CD2      113.8900  158.7580  164.5710 C.ar  189  HIS189      0.1154
     17  CE1      113.0670  156.7310  164.6820 C.ar  189  HIS189      0.1986
     18  NE2      112.9360  157.9580  165.1470 N.ar  189  HIS189     -0.2212
     19  N        115.0880  160.9400  157.3570 N.3   192  ALA192     -0.1231
     20  CA       114.4210  162.1560  157.7730 C.3   192  ALA192      0.1694
     21  C        115.2630  162.9370  158.7700 C.2   192  ALA192      0.2592
     22  O        115.6240  164.0890  158.5150 O.2   192  ALA192     -0.2718
     23  CB       113.0540  161.8110  158.3650 C.3   192  ALA192      0.0304
     24  N        115.6050  162.3120  159.8940 N.am  193  GLY193     -0.1957
     25  CA       116.2070  163.0470  160.9930 C.3   193  GLY193      0.1869
     26  C        117.6370  163.4650  160.7300 C.2   193  GLY193      0.2309
     27  O        118.0120  164.6110  160.9850 O.2   193  GLY193     -0.2863
     28  N        116.8920  166.8920  158.3750 N.3   197  LEU197     -0.1245
     29  CA       117.1830  168.0660  159.1810 C.3   197  LEU197      0.1561
     30  C        118.6020  168.5620  158.9740 C.2   197  LEU197      0.2260
     31  O        118.8840  169.7260  159.2720 O.2   197  LEU197     -0.2867
     32  CB       116.9520  167.7630  160.6520 C.3   197  LEU197      0.0270
     33  CG       115.5150  167.3710  160.9560 C.3   197  LEU197      0.0019
     34  CD1      115.3750  167.0210  162.4210 C.3   197  LEU197      0.0001
     35  CD2      114.5680  168.4810  160.5650 C.3   197  LEU197      0.0001
     36  N        112.5890  164.6950  153.9030 N.3   295  LEU295     -0.1245
     37  CA       111.5740  164.5630  154.9410 C.3   295  LEU295      0.1561
     38  C        110.3250  163.8930  154.4040 C.2   295  LEU295      0.2260
     39  O        109.5860  163.2670  155.1650 O.2   295  LEU295     -0.2867
     40  CB       111.2390  165.9170  155.5510 C.3   295  LEU295      0.0270
     41  CG       112.4100  166.4820  156.3480 C.3   295  LEU295      0.0019
     42  CD1      112.0840  167.8200  156.9630 C.3   295  LEU295      0.0001
     43  CD2      112.8440  165.5120  157.3890 C.3   295  LEU295      0.0001
     44  N        109.3770  159.1500  155.8200 N.3   299  HIS299     -0.1226
     45  CA       108.1050  158.6330  156.3060 C.3   299  HIS299      0.1752
     46  C        107.5170  157.6320  155.3190 C.2   299  HIS299      0.2596
     47  O        106.4820  157.8480  154.6960 O.2   299  HIS299     -0.2718
     48  CB       107.1560  159.7820  156.5640 C.3   299  HIS299      0.0759
     49  CG       107.7460  160.8000  157.4690 C.ar  299  HIS299      0.0818
     50  ND1      108.3740  161.9310  157.0040 N.ar  299  HIS299     -0.2268
     51  CD2      107.8960  160.8110  158.8110 C.ar  299  HIS299      0.1154
     52  CE1      108.8290  162.6270  158.0290 C.ar  299  HIS299      0.1986
     53  NE2      108.5670  161.9610  159.1350 N.ar  299  HIS299     -0.2212
     54  N        108.2120  156.5130  155.1800 N.am  300  MET300     -0.1965
     55  CA       107.6760  155.3770  154.4480 C.3   300  MET300      0.1736
     56  C        108.0070  154.0760  155.1540 C.2   300  MET300      0.2616
     57  O        108.1070  153.0260  154.5210 O.2   300  MET300     -0.2715
     58  CB       108.1800  155.3600  153.0100 C.3   300  MET300      0.0427
     59  CG       109.6690  155.3820  152.8650 C.3   300  MET300      0.0599
     60  SD       110.1680  155.2330  151.1460 S.3   300  MET300     -0.1393
     61  CE       109.7560  153.5170  150.8730 C.3   300  MET300      0.0692
     62  N        108.1560  154.1200  156.4710 N.am  301  TYR301     -0.1974
     63  CA       108.5420  152.9340  157.2220 C.3   301  TYR301      0.1639
     64  C        107.6810  152.8520  158.4720 C.2   301  TYR301      0.2290
     65  O        107.8530  153.6530  159.3940 O.2   301  TYR301     -0.2864
     66  CB       110.0200  152.9880  157.5720 C.3   301  TYR301      0.0560
     67  CG       110.9070  153.0560  156.3590 C.ar  301  TYR301     -0.0198
     68  CD1      111.1280  151.9400  155.5720 C.ar  301  TYR301     -0.0009
     69  CD2      111.5260  154.2390  156.0020 C.ar  301  TYR301     -0.0009
     70  CE1      111.9360  152.0050  154.4620 C.ar  301  TYR301      0.0417
     71  CE2      112.3440  154.3040  154.9000 C.ar  301  TYR301      0.0417
     72  CZ       112.5370  153.1860  154.1350 C.ar  301  TYR301      0.1957
     73  OH       113.3430  153.2460  153.0310 O.3   301  TYR301     -0.2866
     74  N        106.4930  152.0630  161.9420 N.3   303  THR303     -0.1218
     75  CA       107.1950  151.7470  163.1780 C.3   303  THR303      0.1862
     76  C        106.2570  151.4080  164.3300 C.2   303  THR303      0.2287
     77  O        106.2590  150.2780  164.8210 O.2   303  THR303     -0.2866
     78  CB       108.0780  152.9330  163.5680 C.3   303  THR303      0.1770
     79  OG1      107.2540  154.0880  163.7530 O.3   303  THR303     -0.2211
     80  CG2      109.0950  153.2140  162.4940 C.3   303  THR303      0.0375
     81  N        102.8650  153.6310  164.7570 N.3   305  TRP305     -0.1241
     82  CA       101.6820  154.0230  164.0300 C.3   305  TRP305      0.1605
     83  C        101.5920  153.1750  162.7790 C.2   305  TRP305      0.2264
     84  O        102.5420  153.1110  161.9970 O.2   305  TRP305     -0.2867
     85  CB       101.8010  155.4990  163.6770 C.3   305  TRP305      0.0550
     86  CG       101.9190  156.3840  164.8800 C.ar  305  TRP305      0.0003
     87  CD1      100.9120  157.0610  165.4900 C.ar  305  TRP305      0.0946
     88  CD2      103.1070  156.6640  165.6410 C.ar  305  TRP305      0.0152
     89  NE1      101.3940  157.7610  166.5690 N.ar  305  TRP305     -0.2442
     90  CE2      102.7380  157.5280  166.6840 C.ar  305  TRP305      0.0810
     91  CE3      104.4460  156.2760  165.5320 C.ar  305  TRP305      0.0012
     92  CZ2      103.6520  158.0080  167.6100 C.ar  305  TRP305      0.0191
     93  CZ3      105.3470  156.7440  166.4550 C.ar  305  TRP305      0.0001
     94  CH2      104.9510  157.6050  167.4780 C.ar  305  TRP305      0.0015
     95  N        101.2330  153.0110  159.7620 N.3   307  ILE307     -0.1231
     96  CA       101.2730  153.8240  158.5550 C.3   307  ILE307      0.1692
     97  C        102.7070  153.7750  158.0550 C.2   307  ILE307      0.2592
     98  O        103.6250  154.2270  158.7470 O.2   307  ILE307     -0.2718
     99  CB       100.8240  155.2740  158.8030 C.3   307  ILE307      0.0266
    100  CG1       99.3130  155.3490  159.0070 C.3   307  ILE307      0.0019
    101  CG2      101.2160  156.1730  157.6710 C.3   307  ILE307      0.0020
    102  CD1       98.5110  154.8750  157.8110 C.3   307  ILE307      0.0001
    103  N        102.9060  153.2090  156.8740 N.am  308  GLY308     -0.1957
    104  CA       104.2220  153.0180  156.3130 C.3   308  GLY308      0.1869
    105  C        104.4450  151.5800  155.9140 C.2   308  GLY308      0.2309
    106  O        103.6020  150.7080  156.1140 O.2   308  GLY308     -0.2863
@<TRIPOS>BOND
     1    61    60    1
     2    60    59    1
     3    59    58    1
     4    58    55    1
     5    73    72    1
     6    36    37    1
     7    72    70   ar
     8    72    71   ar
     9    38    37    1
    10    38    39    2
    11    55    56    1
    12    55    54    1
    13    70    68   ar
    14    57    56    2
    15    47    46    2
    16    71    69   ar
    17    37    40    1
    18    56    62   am
    19    54    46   am
    20    46    45    1
    21    40    41    1
    22    68    67   ar
    23    44    45    1
    24   105   106    2
    25   105   104    1
    26    69    67   ar
    27    45    48    1
    28   104   103    1
    29    41    42    1
    30    41    43    1
    31    67    66    1
    32    62    63    1
    33    48    49    1
    34   103    97   am
    35    50    49   ar
    36    50    52   ar
    37    63    66    1
    38    63    64    1
    39    19    20    1
    40    49    51   ar
    41   101    99    1
    42    20    23    1
    43    20    21    1
    44   102   100    1
    45    52    53   ar
    46    97    96    1
    47    97    98    2
    48    28    29    1
    49    64    65    2
    50    22    21    2
    51    96    99    1
    52    96    95    1
    53    21    24   am
    54    99   100    1
    55    51    53   ar
    56    30    29    1
    57    30    31    2
    58     1     2    1
    59    29    32    1
    60     2     3    1
    61     2     5    1
    62     7     6    2
    63     4     3    2
    64    24    25    1
    65     3     9   am
    66     6     5    1
    67     6     8   am
    68    35    33    1
    69    32    33    1
    70    11    12    2
    71    11    10    1
    72    26    27    2
    73    26    25    1
    74     9    10    1
    75    33    34    1
    76    10    13    1
    77    74    75    1
    78    84    83    2
    79    80    78    1
    80    83    82    1
    81    13    14    1
    82    75    78    1
    83    75    76    1
    84    78    79    1
    85    85    82    1
    86    85    86    1
    87    14    15   ar
    88    14    16   ar
    89    15    17   ar
    90    82    81    1
    91    76    77    2
    92    16    18   ar
    93    17    18   ar
    94    86    87   ar
    95    86    88   ar
    96    87    89   ar
    97    91    88   ar
    98    91    93   ar
    99    88    90   ar
   100    93    94   ar
   101    89    90   ar
   102    90    92   ar
   103    94    92   ar
