@<TRIPOS>MOLECULE
tmp/5zghB13.pdb
 201 193 0 0 0
SMALL
GASTEIGER

@<TRIPOS>ATOM
      1  N        112.9370  169.4350  196.3370 N.3     5  PHE5       -0.1241
      2  CA       112.8020  169.9570  194.9810 C.3     5  PHE5        0.1605
      3  C        111.5840  169.3040  194.3470 C.2     5  PHE5        0.2264
      4  O        110.6650  168.8680  195.0480 O.2     5  PHE5       -0.2867
      5  CB       114.0790  169.7170  194.1580 C.3     5  PHE5        0.0534
      6  CG       115.2790  170.4000  194.7110 C.ar    5  PHE5       -0.0203
      7  CD1      115.4600  171.7580  194.5450 C.ar    5  PHE5       -0.0042
      8  CD2      116.2130  169.6870  195.4320 C.ar    5  PHE5       -0.0042
      9  CE1      116.5640  172.3810  195.0770 C.ar    5  PHE5       -0.0003
     10  CE2      117.3080  170.3040  195.9630 C.ar    5  PHE5       -0.0003
     11  CZ       117.4800  171.6490  195.7900 C.ar    5  PHE5       -0.0000
     12  N        123.0310  160.4900  196.3160 N.3    13  ASP13      -0.1239
     13  CA       123.6330  161.2540  197.3940 C.3    13  ASP13       0.1674
     14  C        122.5860  161.6820  198.4200 C.2    13  ASP13       0.2266
     15  O        121.4180  161.2880  198.3550 O.2    13  ASP13      -0.2867
     16  CB       124.3920  162.4450  196.7990 C.3    13  ASP13       0.1410
     17  CG       123.5400  163.2790  195.8530 C.2    13  ASP13       0.3668
     18  OD1      122.3790  162.9050  195.5870 O.co2  13  ASP13      -0.2456
     19  OD2      124.0400  164.3110  195.3620 O.co2  13  ASP13      -0.2456
     20  N        126.0830  163.7750  202.0210 N.3    16  LEU16      -0.1231
     21  CA       127.1610  164.7220  201.8220 C.3    16  LEU16       0.1678
     22  C        126.7470  166.0850  202.3750 C.2    16  LEU16       0.2434
     23  O        125.5570  166.3390  202.5750 O.2    16  LEU16      -0.2733
     24  CB       127.4900  164.7890  200.3330 C.3    16  LEU16       0.0284
     25  CG       127.9750  163.4480  199.7780 C.3    16  LEU16       0.0019
     26  CD1      128.1750  163.5240  198.2770 C.3    16  LEU16       0.0001
     27  CD2      129.2450  162.9900  200.4760 C.3    16  LEU16       0.0001
     28  N        127.7110  166.9930  202.6540 N.am   17  PRO17      -0.2718
     29  CA       127.3340  168.2890  203.2440 C.3    17  PRO17       0.1535
     30  C        126.6030  169.2620  202.3260 C.2    17  PRO17       0.2599
     31  O        127.0650  170.3900  202.1300 O.2    17  PRO17      -0.2715
     32  CB       128.6820  168.8820  203.6700 C.3    17  PRO17       0.0310
     33  CG       129.5630  167.7310  203.8330 C.3    17  PRO17       0.0237
     34  CD       129.1580  166.7530  202.7910 C.3    17  PRO17       0.0939
     35  N        125.4760  168.8480  201.7560 N.am   18  GLY18      -0.1955
     36  CA       124.4870  169.7970  201.3010 C.3    18  GLY18       0.1869
     37  C        123.4070  169.8780  202.3600 C.2    18  GLY18       0.2309
     38  O        122.4840  169.0570  202.3810 O.2    18  GLY18      -0.2863
     39  N        120.0400  170.3950  201.3080 N.3    21  GLY21      -0.1210
     40  CA       119.5870  169.2720  200.5110 C.3    21  GLY21       0.1956
     41  C        120.5930  168.7710  199.4950 C.2    21  GLY21       0.2612
     42  O        121.7540  169.1890  199.4960 O.2    21  GLY21      -0.2717
     43  N        120.1560  167.8530  198.6360 N.am   22  CYS22      -0.1956
     44  CA       120.9440  167.3760  197.5060 C.3    22  CYS22       0.1843
     45  C        120.3180  167.8990  196.2150 C.2    22  CYS22       0.2625
     46  O        119.1660  167.5850  195.9070 O.2    22  CYS22      -0.2714
     47  CB       121.0570  165.8490  197.5220 C.3    22  CYS22       0.0997
     48  SG       119.5170  164.9110  197.6130 S.3    22  CYS22      -0.0797
     49  N        121.0640  168.7200  195.4750 N.am   23  PHE23      -0.1960
     50  CA       120.4340  169.5240  194.4270 C.3    23  PHE23       0.1771
     51  C        120.2200  168.7360  193.1400 C.2    23  PHE23       0.2619
     52  O        119.0850  168.3850  192.8060 O.2    23  PHE23      -0.2715
     53  CB       121.2830  170.7750  194.1850 C.3    23  PHE23       0.0574
     54  CG       120.8110  171.6370  193.0620 C.ar   23  PHE23      -0.0200
     55  CD1      119.5660  172.2280  193.1070 C.ar   23  PHE23      -0.0042
     56  CD2      121.6500  171.9350  192.0090 C.ar   23  PHE23      -0.0042
     57  CE1      119.1380  173.0380  192.0900 C.ar   23  PHE23      -0.0003
     58  CE2      121.2320  172.7600  190.9870 C.ar   23  PHE23      -0.0003
     59  CZ       119.9720  173.3070  191.0270 C.ar   23  PHE23      -0.0000
     60  N        121.3150  168.4330  192.4340 N.am   24  ASP24      -0.1971
     61  CA       121.5300  167.4980  191.3270 C.3    24  ASP24       0.1709
     62  C        120.3560  167.2560  190.3730 C.2    24  ASP24       0.2293
     63  O        119.8100  166.1470  190.3500 O.2    24  ASP24      -0.2864
     64  CB       121.9620  166.1670  191.9220 C.3    24  ASP24       0.1436
     65  CG       122.6810  165.3000  190.9360 C.2    24  ASP24       0.3671
     66  OD1      122.9740  165.7580  189.8140 O.co2  24  ASP24      -0.2456
     67  OD2      122.9150  164.1400  191.2870 O.co2  24  ASP24      -0.2456
     68  N        120.4510  167.3540  187.0040 N.3    26  LEU26      -0.1245
     69  CA       120.8870  166.7910  185.7370 C.3    26  LEU26       0.1561
     70  C        121.7580  165.5710  186.0040 C.2    26  LEU26       0.2260
     71  O        122.5040  165.5340  186.9860 O.2    26  LEU26      -0.2867
     72  CB       121.6390  167.8340  184.9030 C.3    26  LEU26       0.0270
     73  CG       121.8850  167.4530  183.4420 C.3    26  LEU26       0.0019
     74  CD1      120.5470  167.1730  182.7760 C.3    26  LEU26       0.0001
     75  CD2      122.6220  168.5450  182.6900 C.3    26  LEU26       0.0001
     76  N        124.4240  163.7910  186.2910 N.3    28  PHE28      -0.1227
     77  CA       125.8690  163.6650  186.4150 C.3    28  PHE28       0.1736
     78  C        126.2740  162.6350  187.4560 C.2    28  PHE28       0.2596
     79  O        127.0900  161.7650  187.1730 O.2    28  PHE28      -0.2718
     80  CB       126.5010  165.0020  186.7700 C.3    28  PHE28       0.0547
     81  CG       126.3670  166.0250  185.7090 C.ar   28  PHE28      -0.0202
     82  CD1      127.1230  165.9410  184.5570 C.ar   28  PHE28      -0.0042
     83  CD2      125.5080  167.0930  185.8720 C.ar   28  PHE28      -0.0042
     84  CE1      127.0090  166.8940  183.5710 C.ar   28  PHE28      -0.0003
     85  CE2      125.3930  168.0530  184.8970 C.ar   28  PHE28      -0.0003
     86  CZ       126.1400  167.9530  183.7410 C.ar   28  PHE28      -0.0000
     87  N        125.7210  162.7190  188.6610 N.am   29  THR29      -0.1953
     88  CA       125.9750  161.6970  189.6670 C.3    29  THR29       0.1897
     89  C        125.3560  160.3580  189.2710 C.2    29  THR29       0.2313
     90  O        125.8120  159.3120  189.7510 O.2    29  THR29      -0.2863
     91  CB       125.4470  162.2060  191.0120 C.3    29  THR29       0.1794
     92  OG1      126.0160  163.4940  191.2690 O.3    29  THR29      -0.2208
     93  CG2      125.7890  161.3080  192.1850 C.3    29  THR29       0.0378
     94  N        128.6240  159.4700  186.9210 N.3    32  PHE32      -0.1241
     95  CA       130.0350  159.8410  187.0700 C.3    32  PHE32       0.1605
     96  C        130.6810  159.3240  188.3490 C.2    32  PHE32       0.2264
     97  O        131.8400  159.6680  188.5940 O.2    32  PHE32      -0.2867
     98  CB       130.2760  161.3630  187.0230 C.3    32  PHE32       0.0534
     99  CG       130.3590  161.9370  185.6440 C.ar   32  PHE32      -0.0203
    100  CD1      131.4610  161.6840  184.8560 C.ar   32  PHE32      -0.0042
    101  CD2      129.3780  162.7870  185.1660 C.ar   32  PHE32      -0.0042
    102  CE1      131.5580  162.2190  183.5900 C.ar   32  PHE32      -0.0003
    103  CE2      129.4700  163.3210  183.8990 C.ar   32  PHE32      -0.0003
    104  CZ       130.5640  163.0400  183.1140 C.ar   32  PHE32      -0.0000
    105  N        130.5840  160.3570  191.2980 N.3    34  LEU34      -0.1245
    106  CA       130.4140  161.4060  192.3130 C.3    34  LEU34       0.1561
    107  C        131.6590  161.7860  193.1170 C.2    34  LEU34       0.2260
    108  O        131.7270  162.8900  193.6660 O.2    34  LEU34      -0.2867
    109  CB       129.2910  160.9900  193.2810 C.3    34  LEU34       0.0270
    110  CG       128.8670  161.8390  194.4890 C.3    34  LEU34       0.0019
    111  CD1      128.3870  163.2110  194.0590 C.3    34  LEU34       0.0001
    112  CD2      127.8300  161.1490  195.3500 C.3    34  LEU34       0.0001
    113  N        133.5660  164.2260  190.9190 N.3    37  LEU37      -0.1231
    114  CA       132.8020  165.4640  190.8840 C.3    37  LEU37       0.1693
    115  C        132.8800  166.2090  192.2030 C.2    37  LEU37       0.2591
    116  O        132.8170  167.4400  192.2140 O.2    37  LEU37      -0.2718
    117  CB       131.3430  165.1810  190.5520 C.3    37  LEU37       0.0284
    118  CG       131.0320  164.5290  189.2160 C.3    37  LEU37       0.0019
    119  CD1      129.5390  164.3460  189.0980 C.3    37  LEU37       0.0001
    120  CD2      131.5590  165.3530  188.0870 C.3    37  LEU37       0.0001
    121  N        132.9920  165.4910  193.3180 N.am   38  ARG38      -0.1980
    122  CA       133.0890  166.1620  194.6070 C.3    38  ARG38       0.1597
    123  C        134.4330  166.8540  194.7500 C.2    38  ARG38       0.2287
    124  O        134.5060  167.9780  195.2640 O.2    38  ARG38      -0.2864
    125  CB       132.8450  165.1590  195.7320 C.3    38  ARG38       0.0334
    126  CG       132.8590  165.7340  197.1280 C.3    38  ARG38       0.0492
    127  CD       132.4130  164.6780  198.1250 C.3    38  ARG38       0.2205
    128  NE       132.6800  165.0770  199.5000 N.pl3  38  ARG38      -0.0865
    129  CZ       131.8630  165.8140  200.2420 C.cat  38  ARG38       0.5346
    130  NH1      130.7100  166.2420  199.7470 N.pl3  38  ARG38       0.1354
    131  NH2      132.2020  166.1240  201.4840 N.pl3  38  ARG38       0.1354
    132  N        136.0020  168.0040  192.1650 N.3    40  ALA40      -0.1231
    133  CA       135.9360  169.1320  191.2400 C.3    40  ALA40       0.1694
    134  C        135.1650  170.3010  191.8370 C.2    40  ALA40       0.2591
    135  O        135.5650  171.4630  191.6770 O.2    40  ALA40      -0.2718
    136  CB       135.3020  168.6980  189.9240 C.3    40  ALA40       0.0304
    137  N        134.0460  170.0030  192.5020 N.am   41  GLU41      -0.1979
    138  CA       133.2710  171.0050  193.2260 C.3    41  GLU41       0.1602
    139  C        134.1050  171.7050  194.2820 C.2    41  GLU41       0.2287
    140  O        134.1130  172.9410  194.3650 O.2    41  GLU41      -0.2864
    141  CB       132.0510  170.3350  193.8610 C.3    41  GLU41       0.0415
    142  CG       131.4420  171.0300  195.0820 C.3    41  GLU41       0.1163
    143  CD       130.8980  172.4160  194.8310 C.2    41  GLU41       0.3649
    144  OE1      130.5190  172.7360  193.7040 O.co2  41  GLU41      -0.2457
    145  OE2      130.8490  173.2040  195.7940 O.co2  41  GLU41      -0.2457
    146  N        137.2300  173.6870  192.6560 N.3    44  HIS44      -0.1241
    147  CA       136.7410  174.8990  192.0060 C.3    44  HIS44       0.1621
    148  C        136.2500  175.9240  193.0120 C.2    44  HIS44       0.2264
    149  O        136.3990  177.1310  192.7890 O.2    44  HIS44      -0.2867
    150  CB       135.6210  174.5790  191.0300 C.3    44  HIS44       0.0745
    151  CG       136.0950  173.9830  189.7540 C.ar   44  HIS44       0.0817
    152  ND1      136.2520  172.6290  189.5800 N.ar   44  HIS44      -0.2268
    153  CD2      136.4430  174.5580  188.5830 C.ar   44  HIS44       0.1154
    154  CE1      136.6730  172.3940  188.3520 C.ar   44  HIS44       0.1986
    155  NE2      136.8100  173.5480  187.7330 N.ar   44  HIS44      -0.2212
    156  N        131.6610  175.2530  201.5420 N.3   144  LEU144     -0.1231
    157  CA       131.0150  174.8800  200.2980 C.3   144  LEU144      0.1693
    158  C        130.0810  175.9890  199.8200 C.2   144  LEU144      0.2591
    159  O        130.0950  176.3460  198.6400 O.2   144  LEU144     -0.2718
    160  CB       130.2750  173.5660  200.5130 C.3   144  LEU144      0.0284
    161  CG       130.0440  172.6430  199.3330 C.3   144  LEU144      0.0019
    162  CD1      131.4000  172.2020  198.8580 C.3   144  LEU144      0.0001
    163  CD2      129.2640  171.4460  199.8050 C.3   144  LEU144      0.0001
    164  N        129.3180  176.5910  200.7380 N.am  145  ARG145     -0.1980
    165  CA       128.3770  177.6480  200.3700 C.3   145  ARG145      0.1597
    166  C        129.0930  178.9280  199.9770 C.2   145  ARG145      0.2287
    167  O        128.7610  179.5410  198.9540 O.2   145  ARG145     -0.2864
    168  CB       127.4180  177.9320  201.5170 C.3   145  ARG145      0.0334
    169  CG       126.5280  176.7890  201.8280 C.3   145  ARG145      0.0492
    170  CD       125.5210  176.5570  200.7400 C.3   145  ARG145      0.2205
    171  NE       124.7690  175.3540  201.0440 N.pl3 145  ARG145     -0.0865
    172  CZ       123.6980  175.3270  201.8210 C.cat 145  ARG145      0.5346
    173  NH1      123.2480  176.4430  202.3760 N.pl3 145  ARG145      0.1354
    174  NH2      123.0910  174.1790  202.0530 N.pl3 145  ARG145      0.1354
    175  N        130.6410  178.3210  196.5760 N.3   148  ARG148     -0.1245
    176  CA       129.7010  178.3750  195.4640 C.3   148  ARG148      0.1563
    177  C        129.2990  179.8090  195.1620 C.2   148  ARG148      0.2260
    178  O        129.3000  180.2380  193.9980 O.2   148  ARG148     -0.2867
    179  CB       128.4950  177.5180  195.8040 C.3   148  ARG148      0.0307
    180  CG       128.7650  176.0440  195.7520 C.3   148  ARG148      0.0489
    181  CD       127.7180  175.3130  196.5410 C.3   148  ARG148      0.2205
    182  NE       127.8960  173.8720  196.4750 N.pl3 148  ARG148     -0.0865
    183  CZ       127.1550  173.0080  197.1540 C.cat 148  ARG148      0.5346
    184  NH1      126.1820  173.4410  197.9380 N.pl3 148  ARG148      0.1354
    185  NH2      127.3710  171.7090  197.0290 N.pl3 148  ARG148      0.1354
    186  N        131.7990  181.2170  193.2380 N.3   151  MET151     -0.1230
    187  CA       131.7910  180.8330  191.8310 C.3   151  MET151      0.1702
    188  C        130.8590  181.7280  191.0190 C.2   151  MET151      0.2592
    189  O        131.2720  182.3090  190.0020 O.2   151  MET151     -0.2718
    190  CB       131.4270  179.3550  191.6820 C.3   151  MET151      0.0401
    191  CG       132.5600  178.4240  192.0700 C.3   151  MET151      0.0596
    192  SD       132.3830  176.6670  191.7110 S.3   151  MET151     -0.1393
    193  CE       131.3940  176.1100  193.0830 C.3   151  MET151      0.0692
    194  N        129.6100  181.8900  191.4690 N.am  152  ILE152     -0.1980
    195  CA       128.7040  182.7800  190.7420 C.3   152  ILE152      0.1595
    196  C        129.1370  184.2310  190.9050 C.2   152  ILE152      0.2287
    197  O        129.0590  185.0280  189.9610 O.2   152  ILE152     -0.2864
    198  CB       127.2420  182.5800  191.1820 C.3   152  ILE152      0.0276
    199  CG1      126.7670  181.1740  190.8880 C.3   152  ILE152      0.0022
    200  CG2      126.3010  183.4780  190.4340 C.3   152  ILE152      0.0022
    201  CD1      126.6970  180.3470  192.0790 C.3   152  ILE152      0.0001
@<TRIPOS>BOND
     1    75    73    1
     2    74    73    1
     3   104   102   ar
     4   104   103   ar
     5    73    72    1
     6    84    86   ar
     7    84    82   ar
     8   102   100   ar
     9    86    85   ar
    10   103   101   ar
    11    82    81   ar
    12   100    99   ar
    13    85    83   ar
    14    72    69    1
    15   101    99   ar
    16    99    98    1
    17    81    83   ar
    18    81    80    1
    19    69    70    1
    20    69    68    1
    21    70    71    2
    22    76    77    1
    23    77    80    1
    24    77    78    1
    25    94    95    1
    26    98    95    1
    27    95    96    1
    28    79    78    2
    29    78    87   am
    30   155   154   ar
    31   155   153   ar
    32   120   118    1
    33    96    97    2
    34   154   152   ar
    35   153   151   ar
    36    87    88    1
    37   119   118    1
    38   118   117    1
    39    89    88    1
    40    89    90    2
    41   152   151   ar
    42    88    91    1
    43   151   150    1
    44    66    65   ar
    45   136   133    1
    46   197   196    2
    47   189   188    2
    48    63    62    2
    49    62    61    1
    50   200   198    1
    51   117   114    1
    52   195   196    1
    53   195   198    1
    54   195   194    1
    55   114   113    1
    56   114   115    1
    57   199   198    1
    58   199   201    1
    59    65    67   ar
    60    65    64    1
    61    58    59   ar
    62    58    56   ar
    63    91    92    1
    64    91    93    1
    65   188   194   am
    66   188   187    1
    67    59    57   ar
    68   150   147    1
    69   133   134    1
    70   133   132    1
    71   105   106    1
    72    61    64    1
    73    61    60    1
    74   135   134    2
    75   190   187    1
    76   190   191    1
    77   192   191    1
    78   192   193    1
    79   187   186    1
    80   134   137   am
    81   147   146    1
    82   147   148    1
    83    56    54   ar
    84    57    55   ar
    85   115   116    2
    86   115   121   am
    87   106   107    1
    88   106   109    1
    89    60    51   am
    90   137   138    1
    91   149   148    2
    92    52    51    2
    93    54    55   ar
    94    54    53    1
    95   107   108    2
    96    51    50    1
    97   138   141    1
    98   138   139    1
    99   109   110    1
   100   121   122    1
   101   144   143   ar
   102   141   142    1
   103   178   177    2
   104   111   110    1
   105     5     6    1
   106     5     2    1
   107    53    50    1
   108   139   140    2
   109     3     2    1
   110     3     4    2
   111    50    49    1
   112   110   112    1
   113     7     6   ar
   114     7     9   ar
   115   122   123    1
   116   122   125    1
   117     6     8   ar
   118   123   124    2
   119   143   142    1
   120   143   145   ar
   121     2     1    1
   122     9    11   ar
   123   177   176    1
   124    19    17   ar
   125     8    10   ar
   126   176   179    1
   127   176   175    1
   128    49    45   am
   129    18    17   ar
   130   125   126    1
   131   180   179    1
   132   180   181    1
   133    11    10   ar
   134    17    16    1
   135    46    45    2
   136    45    44    1
   137    12    13    1
   138   182   181    1
   139   182   183    2
   140    16    13    1
   141   185   183    1
   142   126   127    1
   143   183   184    1
   144    13    14    1
   145    44    47    1
   146    44    43    1
   147    47    48    1
   148   127   128    1
   149    26    25    1
   150    15    14    2
   151    43    41   am
   152   159   158    2
   153   162   161    1
   154   167   166    2
   155   161   163    1
   156   161   160    1
   157    41    42    2
   158    41    40    1
   159   128   129    2
   160   130   129    1
   161    25    24    1
   162    25    27    1
   163   158   157    1
   164   158   164   am
   165   166   165    1
   166   129   131    1
   167   157   160    1
   168   157   156    1
   169    24    21    1
   170   165   164    1
   171   165   168    1
   172    40    39    1
   173   170   171    1
   174   170   169    1
   175   171   172    2
   176    36    35    1
   177    36    37    1
   178   168   169    1
   179    35    30   am
   180   172   174    1
   181   172   173    1
   182    21    20    1
   183    21    22    1
   184    31    30    2
   185    30    29    1
   186    37    38    2
   187    22    23    2
   188    22    28   am
   189    28    34    1
   190    28    29    1
   191    34    33    1
   192    29    32    1
   193    32    33    1
