@<TRIPOS>MOLECULE
tmp/5zghB19.pdb
 183 180 0 0 0
SMALL
GASTEIGER

@<TRIPOS>ATOM
      1  N        134.8290  170.9340  195.0870 N.3    42  ILE42      -0.1245
      2  CA       135.5440  171.5500  196.1910 C.3    42  ILE42       0.1561
      3  C        136.7650  172.3080  195.6850 C.2    42  ILE42       0.2260
      4  O        137.0350  173.4250  196.1310 O.2    42  ILE42      -0.2867
      5  CB       135.8870  170.4910  197.2480 C.3    42  ILE42       0.0252
      6  CG1      134.5880  169.9450  197.8380 C.3    42  ILE42       0.0019
      7  CG2      136.6780  171.0900  198.3600 C.3    42  ILE42       0.0019
      8  CD1      134.7610  168.7210  198.6970 C.3    42  ILE42       0.0001
      9  N        137.3340  176.3620  196.1620 N.3    46  ARG46      -0.1245
     10  CA       138.5060  176.9580  196.8080 C.3    46  ARG46       0.1563
     11  C        139.1630  177.9860  195.9000 C.2    46  ARG46       0.2260
     12  O        139.4200  179.1290  196.3120 O.2    46  ARG46      -0.2867
     13  CB       139.5510  175.9030  197.1660 C.3    46  ARG46       0.0307
     14  CG       139.1320  174.7790  198.0670 C.3    46  ARG46       0.0489
     15  CD       140.3510  173.9490  198.4010 C.3    46  ARG46       0.2205
     16  NE       140.0800  172.5710  198.7820 N.pl3  46  ARG46      -0.0865
     17  CZ       139.6380  172.1740  199.9660 C.cat  46  ARG46       0.5346
     18  NH1      139.3230  173.0490  200.8980 N.pl3  46  ARG46       0.1354
     19  NH2      139.4630  170.8830  200.1980 N.pl3  46  ARG46       0.1354
     20  N        137.1040  181.1130  195.5740 N.3    49  MET49      -0.1230
     21  CA       137.2100  182.0240  196.7120 C.3    49  MET49       0.1702
     22  C        138.5010  182.8240  196.6520 C.2    49  MET49       0.2592
     23  O        138.5060  184.0390  196.9110 O.2    49  MET49      -0.2718
     24  CB       137.1090  181.2520  198.0210 C.3    49  MET49       0.0401
     25  CG       135.7260  180.7400  198.3040 C.3    49  MET49       0.0596
     26  SD       135.5150  179.8540  199.8530 S.3    49  MET49      -0.1393
     27  CE       136.1810  178.2550  199.4360 C.3    49  MET49       0.0692
     28  N        139.5970  182.1690  196.2590 N.am   50  LEU50      -0.1980
     29  CA       140.8200  182.9180  195.9950 C.3    50  LEU50       0.1596
     30  C        140.6630  183.8670  194.8140 C.2    50  LEU50       0.2287
     31  O        141.3040  184.9210  194.7810 O.2    50  LEU50      -0.2864
     32  CB       141.9810  181.9700  195.7370 C.3    50  LEU50       0.0297
     33  CG       142.4520  181.1280  196.9110 C.3    50  LEU50       0.0022
     34  CD1      143.5630  180.2380  196.4310 C.3    50  LEU50       0.0001
     35  CD2      142.9230  182.0090  198.0400 C.3    50  LEU50       0.0001
     36  N        151.6660  171.9330  192.8600 N.3    98  TRP98      -0.1241
     37  CA       150.6030  171.5140  193.7610 C.3    98  TRP98       0.1605
     38  C        149.7280  170.4580  193.1160 C.2    98  TRP98       0.2264
     39  O        149.2500  169.5410  193.7880 O.2    98  TRP98      -0.2867
     40  CB       149.7450  172.7020  194.1690 C.3    98  TRP98       0.0550
     41  CG       148.7000  172.3240  195.1520 C.ar   98  TRP98       0.0003
     42  CD1      147.4060  171.9980  194.8870 C.ar   98  TRP98       0.0946
     43  CD2      148.8480  172.2540  196.5690 C.ar   98  TRP98       0.0152
     44  NE1      146.7420  171.7090  196.0490 N.ar   98  TRP98      -0.2442
     45  CE2      147.6050  171.8640  197.0990 C.ar   98  TRP98       0.0810
     46  CE3      149.9130  172.4810  197.4440 C.ar   98  TRP98       0.0012
     47  CZ2      147.3960  171.6950  198.4630 C.ar   98  TRP98       0.0191
     48  CZ3      149.7040  172.3130  198.7960 C.ar   98  TRP98       0.0001
     49  CH2      148.4550  171.9230  199.2930 C.ar   98  TRP98       0.0015
     50  N        137.6900  161.2100  201.4420 N.3   116  GLU116     -0.1245
     51  CA       136.6830  162.2270  201.7560 C.3   116  GLU116      0.1567
     52  C        137.1220  163.5070  201.0570 C.2   116  GLU116      0.2260
     53  O        137.7350  164.3820  201.6800 O.2   116  GLU116     -0.2867
     54  CB       136.4780  162.4220  203.2650 C.3   116  GLU116      0.0388
     55  CG       135.2160  163.2050  203.6390 C.3   116  GLU116      0.1160
     56  CD       135.4400  164.7020  203.7750 C.2   116  GLU116      0.3649
     57  OE1      136.5430  165.1100  204.1950 O.co2 116  GLU116     -0.2457
     58  OE2      134.5100  165.4730  203.4590 O.co2 116  GLU116     -0.2457
     59  N        137.7720  166.4440  200.3220 N.3   118  GLY118     -0.1210
     60  CA       138.3590  167.7350  200.5920 C.3   118  GLY118      0.1956
     61  C        139.7360  167.3930  201.1080 C.2   118  GLY118      0.2612
     62  O        140.4990  166.7470  200.3900 O.2   118  GLY118     -0.2717
     63  N        140.0520  167.8300  202.3310 N.am  119  TYR119     -0.1962
     64  CA       140.9870  167.1770  203.2560 C.3   119  TYR119      0.1771
     65  C        142.3890  167.0020  202.6600 C.2   119  TYR119      0.2620
     66  O        142.8220  165.9120  202.2850 O.2   119  TYR119     -0.2715
     67  CB       140.4190  165.8450  203.7640 C.3   119  TYR119      0.0574
     68  CG       141.2990  165.2020  204.8070 C.ar  119  TYR119     -0.0198
     69  CD1      141.5200  165.8240  206.0260 C.ar  119  TYR119     -0.0009
     70  CD2      141.8920  163.9700  204.5790 C.ar  119  TYR119     -0.0009
     71  CE1      142.3310  165.2480  206.9830 C.ar  119  TYR119      0.0417
     72  CE2      142.7020  163.3840  205.5280 C.ar  119  TYR119      0.0417
     73  CZ       142.9160  164.0250  206.7290 C.ar  119  TYR119      0.1957
     74  OH       143.7200  163.4360  207.6770 O.3   119  TYR119     -0.2866
     75  N        143.0610  168.1310  202.5020 N.am  120  PHE120     -0.1960
     76  CA       144.5180  168.0910  202.4630 C.3   120  PHE120      0.1771
     77  C        145.0830  168.3500  203.8540 C.2   120  PHE120      0.2620
     78  O        146.0210  169.1210  204.0030 O.2   120  PHE120     -0.2715
     79  CB       145.0360  169.1230  201.4730 C.3   120  PHE120      0.0574
     80  CG       144.6550  168.8560  200.0510 C.ar  120  PHE120     -0.0200
     81  CD1      145.4170  168.0130  199.2600 C.ar  120  PHE120     -0.0042
     82  CD2      143.5330  169.4500  199.5040 C.ar  120  PHE120     -0.0042
     83  CE1      145.0710  167.7760  197.9440 C.ar  120  PHE120     -0.0003
     84  CE2      143.1760  169.2120  198.1930 C.ar  120  PHE120     -0.0003
     85  CZ       143.9460  168.3750  197.4120 C.ar  120  PHE120     -0.0000
     86  N        144.5390  167.6830  204.8740 N.am  121  GLY121     -0.1940
     87  CA       144.8050  168.0230  206.2640 C.3   121  GLY121      0.2014
     88  C        144.4490  169.4590  206.5970 C.2   121  GLY121      0.2639
     89  O        143.2730  169.8240  206.6280 O.2   121  GLY121     -0.2714
     90  N        145.4800  170.2570  206.8820 N.am  122  PHE122     -0.1959
     91  CA       145.4920  171.7190  206.7770 C.3   122  PHE122      0.1771
     92  C        144.4560  172.3830  207.6890 C.2   122  PHE122      0.2620
     93  O        143.4580  172.9510  207.2510 O.2   122  PHE122     -0.2715
     94  CB       145.3140  172.1430  205.3170 C.3   122  PHE122      0.0574
     95  CG       145.6770  173.5690  205.0530 C.ar  122  PHE122     -0.0200
     96  CD1      147.0040  173.9610  205.0510 C.ar  122  PHE122     -0.0042
     97  CD2      144.7050  174.5090  204.7820 C.ar  122  PHE122     -0.0042
     98  CE1      147.3540  175.2700  204.8050 C.ar  122  PHE122     -0.0003
     99  CE2      145.0480  175.8240  204.5330 C.ar  122  PHE122     -0.0003
    100  CZ       146.3770  176.2030  204.5440 C.ar  122  PHE122     -0.0000
    101  N        144.7120  172.2600  208.9880 N.am  123  ASP123     -0.1958
    102  CA       144.0970  173.1310  209.9870 C.3   123  ASP123      0.1825
    103  C        145.1930  173.7780  210.8200 C.2   123  ASP123      0.2464
    104  O        145.5910  173.2450  211.8640 O.2   123  ASP123     -0.2730
    105  CB       143.1180  172.3690  210.8740 C.3   123  ASP123      0.1450
    106  CG       142.4620  173.2630  211.9060 C.2   123  ASP123      0.3671
    107  OD1      141.5970  174.0790  211.5290 O.co2 123  ASP123     -0.2456
    108  OD2      142.8240  173.1580  213.0950 O.co2 123  ASP123     -0.2456
    109  N        145.7220  174.9220  210.3850 N.am  124  PRO124     -0.2715
    110  CA       146.6430  175.6880  211.2390 C.3   124  PRO124      0.1536
    111  C        145.9050  176.6740  212.1430 C.2   124  PRO124      0.2598
    112  O        146.1920  177.8740  212.1630 O.2   124  PRO124     -0.2715
    113  CB       147.5290  176.3960  210.2090 C.3   124  PRO124      0.0310
    114  CG       146.6400  176.6010  209.0560 C.3   124  PRO124      0.0237
    115  CD       145.7420  175.4110  208.9960 C.3   124  PRO124      0.0939
    116  N        144.9330  176.1670  212.8990 N.am  125  LEU125     -0.1978
    117  CA       144.1440  177.0010  213.7920 C.3   125  LEU125      0.1596
    118  C        143.9070  176.2900  215.1120 C.2   125  LEU125      0.2287
    119  O        143.4190  175.1570  215.1430 O.2   125  LEU125     -0.2864
    120  CB       142.7910  177.3770  213.1810 C.3   125  LEU125      0.0297
    121  CG       142.7790  178.3360  211.9940 C.3   125  LEU125      0.0022
    122  CD1      141.3660  178.4970  211.5100 C.3   125  LEU125      0.0001
    123  CD2      143.3670  179.6790  212.3750 C.3   125  LEU125      0.0001
    124  N        139.1540  175.8400  217.5390 N.3   128  GLY128     -0.1210
    125  CA       138.1430  175.9340  216.5030 C.3   128  GLY128      0.1956
    126  C        138.3490  175.0180  215.3140 C.2   128  GLY128      0.2612
    127  O        137.4780  174.9180  214.4450 O.2   128  GLY128     -0.2717
    128  N        139.4910  174.3430  215.2590 N.am  129  GLY129     -0.1956
    129  CA       139.7300  173.3880  214.1980 C.3   129  GLY129      0.1869
    130  C        139.3270  171.9790  214.5750 C.2   129  GLY129      0.2309
    131  O        140.1720  171.0800  214.6260 O.2   129  GLY129     -0.2863
    132  N        133.3490  170.2450  211.9690 N.3   136  TRP136     -0.1241
    133  CA       134.0170  169.8890  210.7260 C.3   136  TRP136      0.1605
    134  C        133.0320  169.8150  209.5700 C.2   136  TRP136      0.2264
    135  O        133.3160  170.3030  208.4710 O.2   136  TRP136     -0.2867
    136  CB       134.7180  168.5530  210.9050 C.3   136  TRP136      0.0550
    137  CG       135.5300  168.1210  209.7630 C.ar  136  TRP136      0.0003
    138  CD1      135.1870  167.2070  208.8180 C.ar  136  TRP136      0.0946
    139  CD2      136.8560  168.5480  209.4500 C.ar  136  TRP136      0.0152
    140  NE1      136.2140  167.0460  207.9230 N.ar  136  TRP136     -0.2442
    141  CE2      137.2510  167.8600  208.2920 C.ar  136  TRP136      0.0810
    142  CE3      137.7450  169.4530  210.0320 C.ar  136  TRP136      0.0012
    143  CZ2      138.4950  168.0430  207.7110 C.ar  136  TRP136      0.0191
    144  CZ3      138.9780  169.6350  209.4540 C.ar  136  TRP136      0.0001
    145  CH2      139.3430  168.9370  208.3040 C.ar  136  TRP136      0.0015
    146  N        131.2240  173.2670  209.1230 N.3   139  MET139     -0.1230
    147  CA       132.1500  174.2220  208.5450 C.3   139  MET139      0.1702
    148  C        132.5290  173.8320  207.1280 C.2   139  MET139      0.2592
    149  O        132.8540  174.7050  206.3160 O.2   139  MET139     -0.2718
    150  CB       133.3910  174.3330  209.4310 C.3   139  MET139      0.0401
    151  CG       134.3260  175.4760  209.0950 C.3   139  MET139      0.0596
    152  SD       135.7020  175.5810  210.2520 S.3   139  MET139     -0.1393
    153  CE       134.8730  176.2460  211.6930 C.3   139  MET139      0.0692
    154  N        132.4760  172.5400  206.8030 N.am  140  GLN140     -0.1979
    155  CA       132.7210  172.1300  205.4270 C.3   140  GLN140      0.1601
    156  C        131.5710  172.5470  204.5270 C.2   140  GLN140      0.2287
    157  O        131.7860  172.9420  203.3730 O.2   140  GLN140     -0.2864
    158  CB       132.9620  170.6260  205.3590 C.3   140  GLN140      0.0394
    159  CG       133.3880  170.1480  203.9920 C.3   140  GLN140      0.0908
    160  CD       133.7860  168.6940  203.9820 C.2   140  GLN140      0.2608
    161  OE1      133.7240  168.0140  205.0050 O.2   140  GLN140     -0.2717
    162  NE2      134.2050  168.2070  202.8220 N.am  140  GLN140     -0.0878
    163  N        129.9740  175.2510  205.1550 N.3   142  GLY142     -0.1210
    164  CA       130.1400  176.6930  205.0580 C.3   142  GLY142      0.1956
    165  C        131.1870  177.0910  204.0370 C.2   142  GLY142      0.2611
    166  O        131.0080  178.0690  203.2990 O.2   142  GLY142     -0.2717
    167  N        132.2950  176.3420  203.9880 N.am  143  GLU143     -0.1979
    168  CA       133.2570  176.4660  202.8970 C.3   143  GLU143      0.1602
    169  C        132.5950  176.1960  201.5610 C.2   143  GLU143      0.2287
    170  O        132.9090  176.8430  200.5550 O.2   143  GLU143     -0.2864
    171  CB       134.4070  175.4840  203.0990 C.3   143  GLU143      0.0415
    172  CG       135.4750  175.5380  202.0230 C.3   143  GLU143      0.1163
    173  CD       136.5520  174.5010  202.2190 C.2   143  GLU143      0.3649
    174  OE1      136.4490  173.7150  203.1800 O.co2 143  GLU143     -0.2457
    175  OE2      137.4970  174.4680  201.4110 O.co2 143  GLU143     -0.2457
    176  N        130.0660  179.3620  200.7860 N.3   146  ASN146     -0.1240
    177  CA       130.8290  180.5520  200.4250 C.3   146  ASN146      0.1653
    178  C        131.6800  180.3180  199.1830 C.2   146  ASN146      0.2266
    179  O        131.9770  181.2660  198.4470 O.2   146  ASN146     -0.2867
    180  CB       131.6950  181.0000  201.5980 C.3   146  ASN146      0.1155
    181  CG       130.8880  181.6380  202.7200 C.2   146  ASN146      0.2627
    182  OD1      130.7330  181.0630  203.7970 O.2   146  ASN146     -0.2716
    183  ND2      130.4080  182.8540  202.4860 N.am  146  ASN146     -0.0877
@<TRIPOS>BOND
     1    36    37    1
     2    38    37    1
     3    38    39    2
     4    37    40    1
     5    40    41    1
     6    31    30    2
     7    30    29    1
     8    42    41   ar
     9    42    44   ar
    10     1     2    1
    11    41    43   ar
    12    20    21    1
    13     3     4    2
    14     3     2    1
    15    32    29    1
    16    32    33    1
    17    11    12    2
    18    11    10    1
    19    29    28    1
    20    44    45   ar
    21     9    10    1
    22     2     5    1
    23    28    22   am
    24    34    33    1
    25    43    45   ar
    26    43    46   ar
    27    22    21    1
    28    22    23    2
    29    21    24    1
    30    10    13    1
    31    33    35    1
    32    45    47   ar
    33    13    14    1
    34     5     6    1
    35     5     7    1
    36    85    83   ar
    37    85    84   ar
    38    46    48   ar
    39     6     8    1
    40    83    81   ar
    41    24    25    1
    42    14    15    1
    43    84    82   ar
    44    25    26    1
    45    15    16    1
    46   179   178    2
    47    47    49   ar
    48    16    17    2
    49    48    49   ar
    50   178   177    1
    51    81    80   ar
    52    27    26    1
    53    82    80   ar
    54    17    19    1
    55    17    18    1
    56    80    79    1
    57    59    60    1
    58    62    61    2
    59   177   176    1
    60   177   180    1
    61   170   169    2
    62    60    61    1
    63    52    53    2
    64    52    51    1
    65    61    63   am
    66   175   173   ar
    67    50    51    1
    68    79    76    1
    69   169   168    1
    70   180   181    1
    71    51    54    1
    72   172   173    1
    73   172   171    1
    74   173   174   ar
    75    66    65    2
    76    63    64    1
    77    76    75    1
    78    76    77    1
    79   183   181   am
    80    75    65   am
    81    65    64    1
    82   181   182    2
    83   162   160   am
    84   168   171    1
    85   168   167    1
    86    64    67    1
    87    54    55    1
    88   166   165    2
    89   157   156    2
    90    58    56   ar
    91    55    56    1
    92    67    68    1
    93    56    57   ar
    94    77    78    2
    95    77    86   am
    96   160   159    1
    97   160   161    2
    98   167   165   am
    99   159   158    1
   100   165   164    1
   101   156   155    1
   102    99   100   ar
   103    99    97   ar
   104   100    98   ar
   105    70    68   ar
   106    70    72   ar
   107    97    95   ar
   108    98    96   ar
   109    68    69   ar
   110    86    87    1
   111    96    95   ar
   112    95    94    1
   113   164   163    1
   114    94    91    1
   115   158   155    1
   116   155   154    1
   117    72    73   ar
   118    69    71   ar
   119    87    88    1
   120   149   148    2
   121    88    89    2
   122    88    90   am
   123    73    71   ar
   124    73    74    1
   125    91    90    1
   126    91    92    1
   127   154   148   am
   128   148   147    1
   129    93    92    2
   130    92   101   am
   131   143   141   ar
   132   143   145   ar
   133   140   141   ar
   134   140   138   ar
   135   141   139   ar
   136   145   144   ar
   137   135   134    2
   138   147   146    1
   139   147   150    1
   140   138   137   ar
   141   101   102    1
   142   115   114    1
   143   115   109    1
   144   114   113    1
   145   151   150    1
   146   151   152    1
   147   139   137   ar
   148   139   142   ar
   149   144   142   ar
   150   134   133    1
   151   137   136    1
   152   102   103    1
   153   102   105    1
   154   113   110    1
   155   152   153    1
   156   109   103   am
   157   109   110    1
   158   133   136    1
   159   133   132    1
   160   103   104    2
   161   105   106    1
   162   110   111    1
   163   122   121    1
   164   107   106   ar
   165   106   108   ar
   166   121   123    1
   167   121   120    1
   168   111   112    2
   169   111   116   am
   170   116   117    1
   171   120   117    1
   172   117   118    1
   173   129   130    1
   174   129   128    1
   175   127   126    2
   176   130   131    2
   177   118   119    2
   178   128   126   am
   179   126   125    1
   180   125   124    1
