@<TRIPOS>MOLECULE
tmp/5zghC02.pdb
 83 77 0 0 0
SMALL
GASTEIGER

@<TRIPOS>ATOM
      1  N         97.7180  182.0670  181.7200 N.3    48  MET48      -0.1245
      2  CA        97.4060  182.8730  182.8940 C.3    48  MET48       0.1570
      3  C         98.2540  184.1320  182.9340 C.2    48  MET48       0.2261
      4  O         97.7660  185.2660  182.8030 O.2    48  MET48      -0.2867
      5  CB        97.7150  182.1270  184.1930 C.3    48  MET48       0.0387
      6  CG        97.0580  180.8140  184.4880 C.3    48  MET48       0.0595
      7  SD        95.2840  180.7310  184.6030 S.3    48  MET48      -0.1393
      8  CE        95.1460  179.0090  185.0340 C.3    48  MET48       0.0692
      9  N         98.1960  186.3600  180.0700 N.3    51  PHE51      -0.1227
     10  CA        96.9230  187.0770  179.9860 C.3    51  PHE51       0.1736
     11  C         96.9470  188.3280  180.8480 C.2    51  PHE51       0.2595
     12  O         96.6360  189.4280  180.3770 O.2    51  PHE51      -0.2718
     13  CB        95.7580  186.1820  180.4070 C.3    51  PHE51       0.0547
     14  CG        94.4220  186.8800  180.3850 C.ar   51  PHE51      -0.0202
     15  CD1       93.7580  187.0900  179.1870 C.ar   51  PHE51      -0.0042
     16  CD2       93.8360  187.3380  181.5570 C.ar   51  PHE51      -0.0042
     17  CE1       92.5310  187.7340  179.1590 C.ar   51  PHE51      -0.0003
     18  CE2       92.6190  187.9910  181.5300 C.ar   51  PHE51      -0.0003
     19  CZ        91.9620  188.1800  180.3300 C.ar   51  PHE51      -0.0000
     20  N         97.3200  188.1840  182.1220 N.am   52  VAL52      -0.1980
     21  CA        97.4640  189.3960  182.9240 C.3    52  VAL52       0.1595
     22  C         98.7330  190.1540  182.5840 C.2    52  VAL52       0.2287
     23  O         98.8660  191.3170  182.9800 O.2    52  VAL52      -0.2864
     24  CB        97.4400  189.1120  184.4340 C.3    52  VAL52       0.0276
     25  CG1       96.1250  188.4680  184.8230 C.3    52  VAL52       0.0022
     26  CG2       98.5840  188.2400  184.8030 C.3    52  VAL52       0.0022
     27  N         97.0330  192.3280  180.4760 N.3    55  LEU55      -0.1245
     28  CA        96.1890  193.2200  181.2570 C.3    55  LEU55       0.1561
     29  C         97.0220  194.2330  182.0320 C.2    55  LEU55       0.2260
     30  O         96.5160  195.3070  182.3710 O.2    55  LEU55      -0.2867
     31  CB        95.2860  192.3970  182.1840 C.3    55  LEU55       0.0270
     32  CG        94.0680  193.0330  182.8660 C.3    55  LEU55       0.0019
     33  CD1       92.9600  191.9990  182.9720 C.3    55  LEU55       0.0001
     34  CD2       94.3910  193.5770  184.2560 C.3    55  LEU55       0.0001
     35  N         89.6840  169.7000  192.8810 N.3   134  ARG134     -0.1231
     36  CA        88.8090  170.7710  192.4240 C.3   134  ARG134      0.1694
     37  C         89.6180  171.9820  191.9810 C.2   134  ARG134      0.2591
     38  O         89.2630  172.6540  191.0050 O.2   134  ARG134     -0.2718
     39  CB        87.8310  171.1530  193.5330 C.3   134  ARG134      0.0321
     40  CG        86.8100  172.1920  193.1240 C.3   134  ARG134      0.0489
     41  CD        85.8800  172.5380  194.2620 C.3   134  ARG134      0.2205
     42  NE        84.8990  173.5360  193.8540 N.pl3 134  ARG134     -0.0865
     43  CZ        85.1120  174.8470  193.8980 C.cat 134  ARG134      0.5346
     44  NH1       86.2780  175.3170  194.3220 N.pl3 134  ARG134      0.1354
     45  NH2       84.1620  175.6870  193.5110 N.pl3 134  ARG134      0.1354
     46  N         90.7190  172.2670  192.6730 N.am  135  MET135     -0.1979
     47  CA        91.5830  173.3570  192.2480 C.3   135  MET135      0.1605
     48  C         92.4380  172.9490  191.0530 C.2   135  MET135      0.2287
     49  O         92.8590  173.8090  190.2720 O.2   135  MET135     -0.2864
     50  CB        92.4400  173.8180  193.4290 C.3   135  MET135      0.0413
     51  CG        93.1660  175.1310  193.2160 C.3   135  MET135      0.0598
     52  SD        93.9890  175.6920  194.7080 S.3   135  MET135     -0.1393
     53  CE        92.5640  176.1700  195.6820 C.3   135  MET135      0.0692
     54  N         89.5570  173.3930  188.2300 N.3   138  ALA138     -0.1231
     55  CA        89.3490  174.8200  188.0190 C.3   138  ALA138      0.1694
     56  C         90.6040  175.4930  187.4890 C.2   138  ALA138      0.2591
     57  O         90.5140  176.4820  186.7500 O.2   138  ALA138     -0.2718
     58  CB        88.9060  175.4820  189.3220 C.3   138  ALA138      0.0304
     59  N         91.7740  174.9700  187.8540 N.am  139  GLU139     -0.1979
     60  CA        93.0240  175.5120  187.3420 C.3   139  GLU139      0.1602
     61  C         93.1570  175.2630  185.8500 C.2   139  GLU139      0.2287
     62  O         93.5210  176.1690  185.0940 O.2   139  GLU139     -0.2864
     63  CB        94.2040  174.9070  188.0980 C.3   139  GLU139      0.0415
     64  CG        95.5510  175.5210  187.7530 C.3   139  GLU139      0.1163
     65  CD        96.2840  174.7960  186.6540 C.2   139  GLU139      0.3649
     66  OE1       96.1020  173.5720  186.5250 O.co2 139  GLU139     -0.2457
     67  OE2       97.0430  175.4530  185.9180 O.co2 139  GLU139     -0.2457
     68  N         90.5670  177.3490  183.9540 N.3   142  ASN142     -0.1240
     69  CA        91.0530  178.7180  183.8210 C.3   142  ASN142      0.1653
     70  C         92.2320  178.8050  182.8590 C.2   142  ASN142      0.2266
     71  O         92.4510  179.8530  182.2450 O.2   142  ASN142     -0.2867
     72  CB        91.4450  179.2810  185.1860 C.3   142  ASN142      0.1155
     73  CG        90.2470  179.6090  186.0530 C.2   142  ASN142      0.2627
     74  OD1       89.2610  180.1760  185.5870 O.2   142  ASN142     -0.2716
     75  ND2       90.3340  179.2620  187.3290 N.am  142  ASN142     -0.0877
     76  N         90.6600  178.4640  179.3160 N.3   145  LEU145     -0.1245
     77  CA        89.8330  179.6450  179.1080 C.3   145  LEU145      0.1561
     78  C         90.6920  180.8840  178.8950 C.2   145  LEU145      0.2260
     79  O         90.3920  181.7190  178.0300 O.2   145  LEU145     -0.2867
     80  CB        88.8910  179.8240  180.2930 C.3   145  LEU145      0.0270
     81  CG        87.9440  181.0100  180.1900 C.3   145  LEU145      0.0019
     82  CD1       87.0970  180.8800  178.9440 C.3   145  LEU145      0.0001
     83  CD2       87.0690  181.0850  181.4220 C.3   145  LEU145      0.0001
@<TRIPOS>BOND
     1    79    78    2
     2    78    77    1
     3    82    81    1
     4    77    76    1
     5    77    80    1
     6    17    15   ar
     7    17    19   ar
     8    15    14   ar
     9    10     9    1
    10    10    13    1
    11    10    11    1
    12    81    80    1
    13    81    83    1
    14    19    18   ar
    15    12    11    2
    16    14    13    1
    17    14    16   ar
    18    27    28    1
    19    11    20   am
    20    28    29    1
    21    28    31    1
    22    18    16   ar
    23     1     2    1
    24    29    30    2
    25    20    21    1
    26    31    32    1
    27    71    70    2
    28    22    21    1
    29    22    23    2
    30     4     3    2
    31    70    69    1
    32    32    33    1
    33    32    34    1
    34     2     3    1
    35     2     5    1
    36    21    24    1
    37    69    68    1
    38    69    72    1
    39     5     6    1
    40    24    26    1
    41    24    25    1
    42     6     7    1
    43     7     8    1
    44    62    61    2
    45    72    73    1
    46    74    73    2
    47    61    60    1
    48    67    65   ar
    49    73    75   am
    50    66    65   ar
    51    65    64    1
    52    57    56    2
    53    60    59    1
    54    60    63    1
    55    56    59   am
    56    56    55    1
    57    64    63    1
    58    55    54    1
    59    55    58    1
    60    49    48    2
    61    38    37    2
    62    48    47    1
    63    37    36    1
    64    37    46   am
    65    47    46    1
    66    47    50    1
    67    36    35    1
    68    36    39    1
    69    40    39    1
    70    40    41    1
    71    51    50    1
    72    51    52    1
    73    45    43    1
    74    42    43    2
    75    42    41    1
    76    43    44    1
    77    52    53    1
