@<TRIPOS>MOLECULE
tmp/5zgiA00.pdb
 105 100 0 0 0
SMALL
GASTEIGER

@<TRIPOS>ATOM
      1  N         -0.3310    5.0570   -9.8280 N.3    25  MET25      -0.1245
      2  CA        -0.6000    5.2280  -11.2620 C.3    25  MET25       0.1570
      3  C         -0.8510    6.7180  -11.5580 C.2    25  MET25       0.2261
      4  O         -1.9350    7.2160  -11.2550 O.2    25  MET25      -0.2867
      5  CB        -1.8710    4.4030  -11.5780 C.3    25  MET25       0.0387
      6  CG        -2.1470    3.9690  -13.0150 C.3    25  MET25       0.0595
      7  SD        -1.8060    2.2210  -13.3320 S.3    25  MET25      -0.1393
      8  CE        -0.1050    2.3120  -13.8610 C.3    25  MET25       0.0692
      9  N         -4.5140    8.8340  -11.5000 N.3    28  PHE28      -0.1241
     10  CA        -5.6120    7.9390  -11.1130 C.3    28  PHE28       0.1605
     11  C         -5.5630    7.5750   -9.6250 C.2    28  PHE28       0.2264
     12  O         -6.5910    7.5960   -8.9430 O.2    28  PHE28      -0.2867
     13  CB        -5.6000    6.6670  -11.9700 C.3    28  PHE28       0.0534
     14  CG        -6.9130    5.9300  -11.9810 C.ar   28  PHE28      -0.0203
     15  CD1       -8.0240    6.4790  -12.6100 C.ar   28  PHE28      -0.0042
     16  CD2       -7.0400    4.6870  -11.3710 C.ar   28  PHE28      -0.0042
     17  CE1       -9.2360    5.8080  -12.6260 C.ar   28  PHE28      -0.0003
     18  CE2       -8.2500    4.0100  -11.3850 C.ar   28  PHE28      -0.0003
     19  CZ        -9.3490    4.5710  -12.0130 C.ar   28  PHE28      -0.0000
     20  N         -3.2330    1.9490   -7.5020 N.3    31  VAL31      -0.1245
     21  CA        -4.1340    0.9210   -8.0010 C.3    31  VAL31       0.1561
     22  C         -3.7590   -0.4520   -7.4430 C.2    31  VAL31       0.2260
     23  O         -2.6430   -0.9310   -7.6400 O.2    31  VAL31      -0.2867
     24  CB        -4.1120    0.8930   -9.5420 C.3    31  VAL31       0.0252
     25  CG1       -5.0720   -0.1620  -10.0720 C.3    31  VAL31       0.0019
     26  CG2       -4.4640    2.2720  -10.0890 C.3    31  VAL31       0.0019
     27  N          2.8210   -6.0480   -9.4630 N.3    51  TRP51      -0.1241
     28  CA         3.1870   -5.0620  -10.4790 C.3    51  TRP51       0.1605
     29  C          4.6650   -5.0510  -10.7970 C.2    51  TRP51       0.2264
     30  O          5.0510   -4.7710  -11.9310 O.2    51  TRP51      -0.2867
     31  CB         2.8150   -3.6590  -10.0530 C.3    51  TRP51       0.0550
     32  CG         1.3630   -3.3640   -9.8580 C.ar   51  TRP51       0.0003
     33  CD1        0.6350   -3.4480   -8.6800 C.ar   51  TRP51       0.0946
     34  CD2        0.4450   -2.8060  -10.8410 C.ar   51  TRP51       0.0152
     35  NE1       -0.6490   -3.0170   -8.8680 N.ar   51  TRP51      -0.2442
     36  CE2       -0.8220   -2.6100  -10.1470 C.ar   51  TRP51       0.0810
     37  CE3        0.5470   -2.4420  -12.1770 C.ar   51  TRP51       0.0012
     38  CZ2       -1.9300   -2.0880  -10.7850 C.ar   51  TRP51       0.0191
     39  CZ3       -0.5730   -1.9060  -12.8100 C.ar   51  TRP51       0.0001
     40  CH2       -1.7850   -1.7340  -12.1280 C.ar   51  TRP51       0.0015
     41  N         -0.0220   -7.5450  -19.2670 N.3    80  HIS80      -0.1241
     42  CA        -0.0080   -6.2000  -18.6850 C.3    80  HIS80       0.1621
     43  C          0.7720   -6.2500  -17.3840 C.2    80  HIS80       0.2264
     44  O          0.9200   -7.3050  -16.7660 O.2    80  HIS80      -0.2867
     45  CB        -1.4170   -5.6820  -18.3950 C.3    80  HIS80       0.0745
     46  CG        -2.1650   -5.1350  -19.5940 C.ar   80  HIS80       0.0817
     47  ND1       -3.4980   -4.9570  -19.5820 N.ar   80  HIS80      -0.2268
     48  CD2       -1.7350   -4.7300  -20.8430 C.ar   80  HIS80       0.1154
     49  CE1       -3.8960   -4.4320  -20.7350 C.ar   80  HIS80       0.1986
     50  NE2       -2.8250   -4.2980  -21.5180 N.ar   80  HIS80      -0.2212
     51  N          0.3360   -5.3560  -14.2650 N.3    82  ASP82      -0.1239
     52  CA        -0.2370   -5.8640  -13.0250 C.3    82  ASP82       0.1674
     53  C         -0.1850   -7.3790  -12.9080 C.2    82  ASP82       0.2266
     54  O         -0.1790   -7.9000  -11.7950 O.2    82  ASP82      -0.2867
     55  CB        -1.6500   -5.3110  -12.7430 C.3    82  ASP82       0.1410
     56  CG        -2.6470   -5.4290  -13.8940 C.2    82  ASP82       0.3668
     57  OD1       -2.2870   -5.7290  -15.0440 O.co2  82  ASP82      -0.2456
     58  OD2       -3.8410   -5.1600  -13.6150 O.co2  82  ASP82      -0.2456
     59  N        -11.1260   -7.9640  -21.7440 N.3   147  HIS147     -0.1241
     60  CA       -10.2270   -6.9400  -21.2260 C.3   147  HIS147      0.1621
     61  C         -9.0160   -6.7760  -22.1320 C.2   147  HIS147      0.2264
     62  O         -8.5840   -5.6560  -22.4170 O.2   147  HIS147     -0.2867
     63  CB        -9.8460   -7.2750  -19.7830 C.3   147  HIS147      0.0745
     64  CG        -8.6880   -6.4800  -19.2650 C.ar  147  HIS147      0.0817
     65  ND1       -8.8050   -5.2130  -18.8140 N.ar  147  HIS147     -0.2268
     66  CD2       -7.3490   -6.8060  -19.1720 C.ar  147  HIS147      0.1154
     67  CE1       -7.5910   -4.7660  -18.4490 C.ar  147  HIS147      0.1986
     68  NE2       -6.7080   -5.7520  -18.6420 N.ar  147  HIS147     -0.2212
     69  N         -8.4140   -9.5430  -14.8320 N.3   166  CYS166     -0.1235
     70  CA        -8.9070   -8.1990  -15.1050 C.3   166  CYS166      0.1677
     71  C        -10.1710   -8.2020  -15.9630 C.2   166  CYS166      0.2270
     72  O        -10.7520   -7.1440  -16.1920 O.2   166  CYS166     -0.2867
     73  CB        -7.8440   -7.3350  -15.7570 C.3   166  CYS166      0.0956
     74  SG        -6.2830   -7.2790  -14.8680 S.3   166  CYS166     -0.0801
     75  N        -15.1220   -7.4750  -13.0940 N.3   169  LYS169     -0.1245
     76  CA       -15.2020   -6.4190  -12.0810 C.3   169  LYS169      0.1561
     77  C        -16.3140   -6.8080  -11.0980 C.2   169  LYS169      0.2260
     78  O        -17.1740   -7.6300  -11.4280 O.2   169  LYS169     -0.2867
     79  CB       -15.5250   -5.0690  -12.7340 C.3   169  LYS169      0.0271
     80  CG       -14.8550   -4.8250  -14.0860 C.3   169  LYS169      0.0035
     81  CD       -13.3330   -4.8460  -13.9980 C.3   169  LYS169      0.0206
     82  CE       -12.6900   -4.5350  -15.3370 C.3   169  LYS169      0.1093
     83  NZ       -11.2010   -4.5470  -15.2810 N.3   169  LYS169     -0.1314
     84  N        -13.1850   -0.3960  -16.1930 N.3   177  GLY177     -0.1210
     85  CA       -11.7760   -0.0710  -15.9520 C.3   177  GLY177      0.1956
     86  C        -10.9710    0.2220  -17.2070 C.2   177  GLY177      0.2611
     87  O        -11.4500    0.9180  -18.1010 O.2   177  GLY177     -0.2717
     88  N         -9.7500   -0.3110  -17.2720 N.am  178  ASN178     -0.1974
     89  CA        -8.8580   -0.0770  -18.4100 C.3   178  ASN178      0.1688
     90  C         -9.2880   -0.8690  -19.6420 C.2   178  ASN178      0.2292
     91  O         -9.0480   -2.0770  -19.7270 O.2   178  ASN178     -0.2864
     92  CB        -7.4110   -0.4350  -18.0510 C.3   178  ASN178      0.1181
     93  CG        -6.4500   -0.2320  -19.2070 C.2   178  ASN178      0.2629
     94  OD1       -6.7290    0.5270  -20.1360 O.2   178  ASN178     -0.2716
     95  ND2       -5.3080   -0.9150  -19.1570 N.am  178  ASN178     -0.0877
     96  N         -9.0840   -6.3000   -9.6140 N.3   208  HIS208     -0.1241
     97  CA        -9.2100   -4.9240   -9.1220 C.3   208  HIS208      0.1621
     98  C        -10.4080   -4.6860   -8.2410 C.2   208  HIS208      0.2264
     99  O        -10.8020   -3.5440   -8.0180 O.2   208  HIS208     -0.2867
    100  CB        -9.1670   -3.9430  -10.2930 C.3   208  HIS208      0.0745
    101  CG        -7.9320   -4.0970  -11.1520 C.ar  208  HIS208      0.0817
    102  ND1       -6.6820   -3.9550  -10.6640 N.ar  208  HIS208     -0.2268
    103  CD2       -7.7910   -4.4370  -12.4930 C.ar  208  HIS208      0.1154
    104  CE1       -5.7930   -4.1740  -11.6550 C.ar  208  HIS208      0.1986
    105  NE2       -6.4710   -4.4940  -12.7630 N.ar  208  HIS208     -0.2212
@<TRIPOS>BOND
     1    62    61    2
     2    61    60    1
     3    59    60    1
     4    50    48   ar
     5    50    49   ar
     6    60    63    1
     7    48    46   ar
     8    49    47   ar
     9    94    93    2
    10    63    64    1
    11    91    90    2
    12    90    89    1
    13    46    47   ar
    14    46    45    1
    15    41    42    1
    16    64    66   ar
    17    64    65   ar
    18    93    95   am
    19    93    92    1
    20    66    68   ar
    21    65    67   ar
    22    42    45    1
    23    42    43    1
    24    68    67   ar
    25    89    92    1
    26    89    88    1
    27    87    86    2
    28    43    44    2
    29    88    86   am
    30    86    85    1
    31    84    85    1
    32    72    71    2
    33    71    70    1
    34    73    70    1
    35    73    74    1
    36    82    83    1
    37    82    81    1
    38    70    69    1
    39    57    56   ar
    40    51    52    1
    41    80    81    1
    42    80    79    1
    43    56    58   ar
    44    56    55    1
    45     8     7    1
    46     7     6    1
    47    75    76    1
    48    52    53    1
    49    52    55    1
    50     6     5    1
    51    53    54    2
    52    39    37   ar
    53    39    40   ar
    54   105   103   ar
    55   105   104   ar
    56    79    76    1
    57    17    15   ar
    58    17    19   ar
    59    15    14   ar
    60   103   101   ar
    61    37    34   ar
    62    40    38   ar
    63    76    77    1
    64    19    18   ar
    65    14    13    1
    66    14    16   ar
    67    13    10    1
    68    30    29    2
    69   104   102   ar
    70     5     2    1
    71     3     2    1
    72     3     4    2
    73     9    10    1
    74    78    77    2
    75    18    16   ar
    76     2     1    1
    77   101   102   ar
    78   101   100    1
    79    10    11    1
    80    34    36   ar
    81    34    32   ar
    82    29    28    1
    83    38    36   ar
    84    28    31    1
    85    28    27    1
    86   100    97    1
    87    36    35   ar
    88    26    24    1
    89    25    24    1
    90    31    32    1
    91    32    33   ar
    92    11    12    2
    93    96    97    1
    94    24    21    1
    95    97    98    1
    96    35    33   ar
    97    98    99    2
    98    21    20    1
    99    21    22    1
   100    23    22    2
