@<TRIPOS>MOLECULE
tmp/5zguB00.pdb
 119 114 0 0 0
SMALL
GASTEIGER

@<TRIPOS>ATOM
      1  N          2.1330   36.0010   18.9180 N.3    37  LEU37      -0.1245
      2  CA         0.9770   36.8770   18.7490 C.3    37  LEU37       0.1561
      3  C          0.3070   37.0490   20.0980 C.2    37  LEU37       0.2260
      4  O         -0.0180   36.0570   20.7510 O.2    37  LEU37      -0.2867
      5  CB        -0.0050   36.2610   17.7650 C.3    37  LEU37       0.0270
      6  CG        -1.0820   37.2050   17.2400 C.3    37  LEU37       0.0019
      7  CD1       -0.4710   38.2620   16.3260 C.3    37  LEU37       0.0001
      8  CD2       -2.1390   36.3970   16.5060 C.3    37  LEU37       0.0001
      9  N         -2.5530   37.8750   22.8330 N.3    39  MET39      -0.1245
     10  CA        -4.0020   37.7290   23.0130 C.3    39  MET39       0.1570
     11  C         -4.3830   38.3530   24.3550 C.2    39  MET39       0.2261
     12  O         -4.0420   37.7940   25.3980 O.2    39  MET39      -0.2867
     13  CB        -4.4030   36.2570   22.9850 C.3    39  MET39       0.0387
     14  CG        -4.3580   35.6500   21.5920 C.3    39  MET39       0.0595
     15  SD        -4.7030   33.8820   21.5540 S.3    39  MET39      -0.1393
     16  CE        -6.3240   33.8090   22.3180 C.3    39  MET39       0.0692
     17  N          0.7850   33.6390   22.0840 N.3    45  VAL45      -0.1245
     18  CA         0.8860   32.2890   21.5290 C.3    45  VAL45       0.1561
     19  C          2.0650   32.2300   20.5740 C.2    45  VAL45       0.2260
     20  O          2.1720   33.0500   19.6700 O.2    45  VAL45      -0.2867
     21  CB        -0.3740   31.8930   20.7390 C.3    45  VAL45       0.0252
     22  CG1       -0.2700   30.4330   20.2800 C.3    45  VAL45       0.0019
     23  CG2       -1.6080   32.1140   21.5930 C.3    45  VAL45       0.0019
     24  N          3.2350   34.8400   12.1340 N.3    65  TRP65      -0.1241
     25  CA         1.8180   35.2050   12.2550 C.3    65  TRP65       0.1605
     26  C          1.4330   36.3890   11.3650 C.2    65  TRP65       0.2264
     27  O          0.2760   36.5100   10.9530 O.2    65  TRP65      -0.2867
     28  CB         1.4740   35.5910   13.6920 C.3    65  TRP65       0.0550
     29  CG         1.6250   34.5570   14.7320 C.ar   65  TRP65       0.0003
     30  CD1        2.7280   34.3220   15.4990 C.ar   65  TRP65       0.0946
     31  CD2        0.6090   33.6590   15.1990 C.ar   65  TRP65       0.0152
     32  NE1        2.4640   33.3230   16.4050 N.ar   65  TRP65      -0.2442
     33  CE2        1.1690   32.9010   16.2430 C.ar   65  TRP65       0.0810
     34  CE3       -0.7210   33.4190   14.8290 C.ar   65  TRP65       0.0012
     35  CZ2        0.4560   31.9070   16.9150 C.ar   65  TRP65       0.0191
     36  CZ3       -1.4430   32.4370   15.5140 C.ar   65  TRP65       0.0001
     37  CH2       -0.8490   31.6940   16.5410 C.ar   65  TRP65       0.0015
     38  N         -3.9630   28.4920    8.3780 N.3    94  HIS94      -0.1226
     39  CA        -4.1510   29.2310    9.6240 C.3    94  HIS94       0.1752
     40  C         -3.1270   30.3630    9.6750 C.2    94  HIS94       0.2596
     41  O         -2.0630   30.2940    9.0200 O.2    94  HIS94      -0.2718
     42  CB        -4.0070   28.3050   10.8280 C.3    94  HIS94       0.0759
     43  CG        -5.2320   27.5080   11.1440 C.ar   94  HIS94       0.0818
     44  ND1       -5.2070   26.4110   11.9790 N.ar   94  HIS94      -0.2268
     45  CD2       -6.5220   27.6480   10.7500 C.ar   94  HIS94       0.1154
     46  CE1       -6.4280   25.9190   12.0910 C.ar   94  HIS94       0.1986
     47  NE2       -7.2470   26.6560   11.3670 N.ar   94  HIS94      -0.2212
     48  N         -3.4460   31.3800   10.4760 N.am   95  GLN95      -0.1965
     49  CA        -2.6710   32.6260   10.5380 C.3    95  GLN95       0.1733
     50  C         -1.2030   32.4020   10.8780 C.2    95  GLN95       0.2616
     51  O         -0.3050   33.0760   10.3440 O.2    95  GLN95      -0.2715
     52  CB        -3.2640   33.5690   11.5770 C.3    95  GLN95       0.0408
     53  CG        -2.6110   34.9360   11.5770 C.3    95  GLN95       0.0908
     54  CD        -3.1280   35.8310   12.6750 C.2    95  GLN95       0.2608
     55  OE1       -3.9470   35.4240   13.4940 O.2    95  GLN95      -0.2717
     56  NE2       -2.6630   37.0710   12.6830 N.am   95  GLN95      -0.0878
     57  N         -0.9660   31.4730   11.8000 N.am   96  ASP96      -0.1971
     58  CA         0.4010   31.1770   12.2110 C.3    96  ASP96       0.1709
     59  C          1.2940   30.6060   11.1020 C.2    96  ASP96       0.2293
     60  O          2.5230   30.6900   11.2000 O.2    96  ASP96      -0.2864
     61  CB         0.4780   30.2840   13.4680 C.3    96  ASP96       0.1436
     62  CG        -0.3930   29.0420   13.4210 C.2    96  ASP96       0.3671
     63  OD1       -1.5880   29.1240   13.0410 O.co2  96  ASP96      -0.2456
     64  OD2        0.1200   27.9990   13.8760 O.co2  96  ASP96      -0.2456
     65  N         -5.5270   18.1010   12.5690 N.3   161  HIS161     -0.1241
     66  CA        -5.5860   19.4570   13.1420 C.3   161  HIS161      0.1621
     67  C         -6.4160   20.3670   12.2110 C.2   161  HIS161      0.2264
     68  O         -7.2440   21.1400   12.6730 O.2   161  HIS161     -0.2867
     69  CB        -4.1860   20.0020   13.3850 C.3   161  HIS161      0.0745
     70  CG        -4.1340   21.4850   13.6070 C.ar  161  HIS161      0.0817
     71  ND1       -4.3910   22.0740   14.8320 N.ar  161  HIS161     -0.2268
     72  CD2       -3.8530   22.5000   12.7510 C.ar  161  HIS161      0.1154
     73  CE1       -4.2830   23.3880   14.7040 C.ar  161  HIS161      0.1986
     74  NE2       -3.9430   23.6680   13.4570 N.ar  161  HIS161     -0.2212
     75  N          1.3050   21.8590   13.1270 N.3   180  CYS180     -0.1235
     76  CA         0.3310   21.9090   14.2080 C.3   180  CYS180      0.1677
     77  C         -0.3910   20.5920   14.4500 C.2   180  CYS180      0.2270
     78  O         -1.2290   20.4990   15.3530 O.2   180  CYS180     -0.2867
     79  CB        -0.6720   23.0150   13.9830 C.3   180  CYS180      0.0956
     80  SG         0.0980   24.5540   13.4990 S.3   180  CYS180     -0.0801
     81  N          1.5270   17.6760   19.0030 N.3   183  LYS183     -0.1245
     82  CA         1.8100   18.4230   20.2250 C.3   183  LYS183      0.1561
     83  C          2.8120   17.6240   21.0360 C.2   183  LYS183      0.2260
     84  O          2.9860   16.4240   20.8230 O.2   183  LYS183     -0.2867
     85  CB         0.5360   18.6690   21.0340 C.3   183  LYS183      0.0271
     86  CG        -0.3200   19.8060   20.5060 C.3   183  LYS183      0.0035
     87  CD         0.3110   21.1610   20.7510 C.3   183  LYS183      0.0206
     88  CE        -0.0400   21.6710   22.1400 C.3   183  LYS183      0.1093
     89  NZ         0.4300   23.0560   22.3700 N.3   183  LYS183     -0.1314
     90  N         -5.1070   18.8990   22.5490 N.3   190  LEU190     -0.1231
     91  CA        -4.7490   19.1290   21.1530 C.3   190  LEU190      0.1693
     92  C         -4.9580   20.5950   20.7240 C.2   190  LEU190      0.2593
     93  O         -4.8290   20.9110   19.5410 O.2   190  LEU190     -0.2718
     94  CB        -5.5460   18.1910   20.2440 C.3   190  LEU190      0.0284
     95  CG        -5.3300   16.6780   20.4170 C.3   190  LEU190      0.0019
     96  CD1       -6.4230   15.8970   19.7070 C.3   190  LEU190      0.0001
     97  CD2       -3.9670   16.2610   19.9040 C.3   190  LEU190      0.0001
     98  N         -5.2520   21.4920   21.6650 N.am  191  GLY191     -0.1942
     99  CA        -5.5140   22.8940   21.3520 C.3   191  GLY191      0.2014
    100  C         -6.8510   23.1170   20.6480 C.2   191  GLY191      0.2638
    101  O         -7.7870   22.3300   20.8020 O.2   191  GLY191     -0.2714
    102  N         -6.9350   24.1880   19.8660 N.am  192  ASN192     -0.1972
    103  CA        -8.1910   24.6170   19.2430 C.3   192  ASN192      0.1688
    104  C         -8.5400   23.6800   18.0830 C.2   192  ASN192      0.2292
    105  O         -7.8430   23.6320   17.0630 O.2   192  ASN192     -0.2864
    106  CB        -8.0900   26.0930   18.7990 C.3   192  ASN192      0.1181
    107  CG        -9.4140   26.6650   18.3020 C.2   192  ASN192      0.2629
    108  OD1      -10.1100   26.0390   17.5040 O.2   192  ASN192     -0.2716
    109  ND2       -9.7540   27.8760   18.7500 N.am  192  ASN192     -0.0877
    110  N          3.5790   24.5230   18.0370 N.3   222  HIS222     -0.1241
    111  CA         3.1740   25.1290   19.3140 C.3   222  HIS222      0.1621
    112  C          3.7740   24.4720   20.5520 C.2   222  HIS222      0.2264
    113  O          3.2650   24.6600   21.6690 O.2   222  HIS222     -0.2867
    114  CB         1.6310   25.1810   19.3890 C.3   222  HIS222      0.0745
    115  CG         1.0070   25.9040   18.2340 C.ar  222  HIS222      0.0817
    116  ND1        1.2490   27.2380   17.9620 N.ar  222  HIS222     -0.2268
    117  CD2        0.1820   25.4670   17.2610 C.ar  222  HIS222      0.1154
    118  CE1        0.5900   27.5860   16.8710 C.ar  222  HIS222      0.1986
    119  NE2       -0.0440   26.5230   16.4100 N.ar  222  HIS222     -0.2212
@<TRIPOS>BOND
     1    38    39    1
     2    41    40    2
     3    39    40    1
     4    39    42    1
     5    40    48   am
     6    51    50    2
     7    48    49    1
     8    49    50    1
     9    49    52    1
    10    45    43   ar
    11    45    47   ar
    12    42    43    1
    13    50    57   am
    14    27    26    2
    15    59    60    2
    16    59    58    1
    17    43    44   ar
    18    26    25    1
    19    47    46   ar
    20    52    53    1
    21    53    54    1
    22    57    58    1
    23    44    46   ar
    24    24    25    1
    25    67    68    2
    26    67    66    1
    27    58    61    1
    28    25    28    1
    29    65    66    1
    30    54    56   am
    31    54    55    2
    32    72    74   ar
    33    72    70   ar
    34    63    62   ar
    35    75    76    1
    36    66    69    1
    37    69    70    1
    38    62    61    1
    39    62    64   ar
    40    74    73   ar
    41    80    79    1
    42    70    71   ar
    43    28    29    1
    44    79    76    1
    45    76    77    1
    46    77    78    2
    47    73    71   ar
    48    29    31   ar
    49    29    30   ar
    50    34    31   ar
    51    34    36   ar
    52    31    33   ar
    53    30    32   ar
    54    36    37   ar
    55    33    32   ar
    56    33    35   ar
    57     7     6    1
    58   119   118   ar
    59   119   117   ar
    60     8     6    1
    61    37    35   ar
    62   118   116   ar
    63   105   104    2
    64     6     5    1
    65   117   115   ar
    66   108   107    2
    67     5     2    1
    68   116   115   ar
    69   110   111    1
    70   104   103    1
    71   115   114    1
    72   107   109   am
    73   107   106    1
    74     2     1    1
    75     2     3    1
    76   106   103    1
    77    81    82    1
    78   103   102    1
    79   111   114    1
    80   111   112    1
    81    93    92    2
    82    20    19    2
    83    96    95    1
    84   102   100   am
    85    97    95    1
    86     3     4    2
    87    82    85    1
    88    82    83    1
    89    94    95    1
    90    94    91    1
    91    22    21    1
    92    86    87    1
    93    86    85    1
    94   112   113    2
    95    19    18    1
    96   100   101    2
    97   100    99    1
    98    92    91    1
    99    92    98   am
   100    21    18    1
   101    21    23    1
   102    87    88    1
   103    84    83    2
   104    91    90    1
   105    99    98    1
   106    18    17    1
   107    15    14    1
   108    15    16    1
   109    14    13    1
   110    88    89    1
   111     9    10    1
   112    13    10    1
   113    10    11    1
   114    11    12    2
