@<TRIPOS>MOLECULE
tmp/5zh2A01.pdb
 157 149 0 0 0
SMALL
GASTEIGER

@<TRIPOS>ATOM
      1  N         12.9480    7.6580   29.5810 N.3   246  VAL246     -0.1245
      2  CA        12.1800    8.6120   30.3710 C.3   246  VAL246      0.1561
      3  C         11.2250    9.3480   29.4450 C.2   246  VAL246      0.2260
      4  O         11.3780    9.3160   28.2480 O.2   246  VAL246     -0.2867
      5  CB        13.0690    9.5780   31.1460 C.3   246  VAL246      0.0252
      6  CG1       13.9230    8.7910   32.1230 C.3   246  VAL246      0.0019
      7  CG2       13.9710   10.3510   30.2170 C.3   246  VAL246      0.0019
      8  N          9.0630   12.8540   28.4870 N.3   248  ARG248     -0.1245
      9  CA         8.7660   14.2630   28.6680 C.3   248  ARG248      0.1563
     10  C          7.7870   14.6960   27.6170 C.2   248  ARG248      0.2260
     11  O          7.9540   14.4420   26.4380 O.2   248  ARG248     -0.2867
     12  CB        10.0590   15.0740   28.6420 C.3   248  ARG248      0.0307
     13  CG        11.0390   14.5220   29.6730 C.3   248  ARG248      0.0489
     14  CD        12.1680   15.4180   30.1150 C.3   248  ARG248      0.2205
     15  NE        12.9090   14.7590   31.1810 N.pl3 248  ARG248     -0.0865
     16  CZ        14.1570   15.0450   31.5380 C.cat 248  ARG248      0.5346
     17  NH1       14.8530   16.0180   30.9550 N.pl3 248  ARG248      0.1354
     18  NH2       14.7250   14.3500   32.5100 N.pl3 248  ARG248      0.1354
     19  N          6.9630   17.3510   25.9730 N.3   250  GLU250     -0.1182
     20  CA         7.2770   18.6470   25.4010 C.3   250  GLU250      0.1915
     21  C          7.5050   18.3840   23.9190 C.2   250  GLU250      0.2635
     22  O          7.5700   17.2150   23.5200 O.2   250  GLU250     -0.2714
     23  CB         8.4800   19.2930   26.1240 C.2   250  GLU250      0.0085
     24  CG         9.5900   18.3190   26.5530 C.2   250  GLU250      0.0835
     25  CD        10.5700   18.8680   27.6140 C.2   250  GLU250      0.3877
     26  OE1       10.2150   19.7560   28.4070 O.co2 250  GLU250     -0.2406
     27  OE2       11.7190   18.4030   27.6710 O.co2 250  GLU250     -0.2406
     28  N          7.6090   19.4450   23.1130 N.am  251  GLY251     -0.1954
     29  CA         7.6550   19.3370   21.6470 C.3   251  GLY251      0.1869
     30  C          8.8070   18.5280   21.0690 C.2   251  GLY251      0.2309
     31  O          9.7760   18.2510   21.7370 O.2   251  GLY251     -0.2863
     32  N         15.1010   16.3690   20.3280 N.3   256  HIS256     -0.1226
     33  CA        14.0680   15.9830   21.2850 C.3   256  HIS256      0.1752
     34  C         13.1410   14.9140   20.7310 C.2   256  HIS256      0.2596
     35  O         12.5410   15.0760   19.6840 O.2   256  HIS256     -0.2718
     36  CB        13.2380   17.1850   21.6810 C.3   256  HIS256      0.0759
     37  CG        14.0140   18.2390   22.3940 C.ar  256  HIS256      0.0818
     38  ND1       14.8240   19.1360   21.7320 N.ar  256  HIS256     -0.2268
     39  CD2       14.0840   18.5700   23.7030 C.ar  256  HIS256      0.1154
     40  CE1       15.3350   19.9940   22.5950 C.ar  256  HIS256      0.1986
     41  NE2       14.9040   19.6730   23.7990 N.ar  256  HIS256     -0.2212
     42  N         13.0030   13.8480   21.4970 N.am  257  ASN257     -0.1961
     43  CA        12.0320   12.8170   21.2320 C.3   257  ASN257      0.1804
     44  C         11.2970   12.5520   22.5260 C.2   257  ASN257      0.2463
     45  O         11.9420   12.4040   23.5550 O.2   257  ASN257     -0.2730
     46  CB        12.7290   11.5350   20.7660 C.3   257  ASN257      0.1195
     47  CG        11.7570   10.5400   20.1710 C.2   257  ASN257      0.2630
     48  OD1       11.2020   10.7630   19.0820 O.2   257  ASN257     -0.2716
     49  ND2       11.5550    9.4320   20.8680 N.am  257  ASN257     -0.0877
     50  N          9.9620   12.4550   22.4810 N.am  258  PRO258     -0.2727
     51  CA         9.1950   12.3880   23.7210 C.3   258  PRO258      0.1402
     52  C          9.5840   11.2320   24.6160 C.2   258  PRO258      0.2269
     53  O          9.4720   11.3360   25.8090 O.2   258  PRO258     -0.2865
     54  CB         7.7550   12.2620   23.2420 C.3   258  PRO258      0.0296
     55  CG         7.7550   12.8250   21.8780 C.3   258  PRO258      0.0237
     56  CD         9.0920   12.4610   21.3040 C.3   258  PRO258      0.0939
     57  N         13.0930    9.1890   25.4960 N.3   260  PHE260     -0.1241
     58  CA        14.5010    8.9970   25.2340 C.3   260  PHE260      0.1605
     59  C         15.1580    8.1570   26.3040 C.2   260  PHE260      0.2264
     60  O         14.5720    7.8650   27.3140 O.2   260  PHE260     -0.2867
     61  CB        15.2020   10.3380   25.0570 C.3   260  PHE260      0.0534
     62  CG        15.1640   11.2070   26.2750 C.ar  260  PHE260     -0.0203
     63  CD1       14.0370   11.9750   26.5740 C.ar  260  PHE260     -0.0042
     64  CD2       16.2560   11.2860   27.1060 C.ar  260  PHE260     -0.0042
     65  CE1       14.0080   12.7770   27.7080 C.ar  260  PHE260     -0.0003
     66  CE2       16.2330   12.1040   28.2430 C.ar  260  PHE260     -0.0003
     67  CZ        15.1140   12.8450   28.5450 C.ar  260  PHE260     -0.0000
     68  N         18.0250    7.4040   28.9750 N.3   262  SER262     -0.1217
     69  CA        18.9330    8.1100   29.8390 C.3   262  SER262      0.1889
     70  C         19.6350    7.1070   30.6790 C.2   262  SER262      0.2288
     71  O         19.2270    5.9530   30.7360 O.2   262  SER262     -0.2866
     72  CB        18.2030    9.0700   30.7780 C.3   262  SER262      0.2089
     73  OG        17.6030    8.3770   31.8420 O.3   262  SER262     -0.2183
     74  N         21.1920    7.3140   34.7030 N.3   264  GLU264     -0.1245
     75  CA        21.5360    8.0430   35.8940 C.3   264  GLU264      0.1567
     76  C         22.2390    7.0740   36.7720 C.2   264  GLU264      0.2260
     77  O         21.9210    5.9000   36.7410 O.2   264  GLU264     -0.2867
     78  CB        20.3150    8.6620   36.5730 C.3   264  GLU264      0.0388
     79  CG        19.5310    9.5720   35.6260 C.3   264  GLU264      0.1160
     80  CD        18.4630   10.4740   36.3000 C.2   264  GLU264      0.3649
     81  OE1       18.4500   10.5870   37.5610 O.co2 264  GLU264     -0.2457
     82  OE2       17.6510   11.1000   35.5370 O.co2 264  GLU264     -0.2457
     83  N         23.2780   19.9960   25.4770 N.3   401  GLU401     -0.1231
     84  CA        23.4970   19.3360   26.7560 C.3   401  GLU401      0.1699
     85  C         23.3890   17.8010   26.6400 C.2   401  GLU401      0.2592
     86  O         22.4180   17.2790   26.1040 O.2   401  GLU401     -0.2718
     87  CB        22.4300   19.8590   27.7230 C.3   401  GLU401      0.0402
     88  CG        22.5320   19.3850   29.1650 C.3   401  GLU401      0.1161
     89  CD        21.1970   19.4690   29.9100 C.2   401  GLU401      0.3649
     90  OE1       20.1970   19.9670   29.3290 O.co2 401  GLU401     -0.2457
     91  OE2       21.1500   19.0150   31.0730 O.co2 401  GLU401     -0.2457
     92  N         24.3850   17.0860   27.1570 N.am  402  VAL402     -0.1966
     93  CA        24.3700   15.6070   27.1420 C.3   402  VAL402      0.1727
     94  C         24.6100   14.9490   28.4860 C.2   402  VAL402      0.2616
     95  O         24.5650   13.7440   28.5780 O.2   402  VAL402     -0.2715
     96  CB        25.4490   15.0400   26.1840 C.3   402  VAL402      0.0290
     97  CG1       25.1130   15.3680   24.7400 C.3   402  VAL402      0.0023
     98  CG2       26.8230   15.5850   26.5130 C.3   402  VAL402      0.0023
     99  N         24.9210   15.7370   29.5110 N.am  403  LEU403     -0.1963
    100  CA        25.2800   15.2260   30.8360 C.3   403  LEU403      0.1728
    101  C         25.0260   16.2950   31.8510 C.2   403  LEU403      0.2616
    102  O         25.4140   17.4570   31.6620 O.2   403  LEU403     -0.2715
    103  CB        26.7560   14.8580   30.8750 C.3   403  LEU403      0.0311
    104  CG        27.4610   14.4480   32.1710 C.3   403  LEU403      0.0022
    105  CD1       28.7710   13.7630   31.8210 C.3   403  LEU403      0.0001
    106  CD2       27.7270   15.6340   33.0860 C.3   403  LEU403      0.0001
    107  N         24.3390   15.9100   32.9160 N.am  404  ASN404     -0.1972
    108  CA        23.9790   16.8240   33.9680 C.3   404  ASN404      0.1688
    109  C         24.2560   16.1320   35.2730 C.2   404  ASN404      0.2292
    110  O         23.8030   15.0240   35.4660 O.2   404  ASN404     -0.2864
    111  CB        22.5190   17.1620   33.8270 C.3   404  ASN404      0.1181
    112  CG        22.0310   18.0560   34.9270 C.2   404  ASN404      0.2629
    113  OD1       22.6490   19.0710   35.2530 O.2   404  ASN404     -0.2716
    114  ND2       20.8820   17.7180   35.4750 N.am  404  ASN404     -0.0877
    115  N         23.5700   12.2180   35.3010 N.3   437  GLY437     -0.1210
    116  CA        22.6580   11.8170   34.2210 C.3   437  GLY437      0.1956
    117  C         23.3210   11.9250   32.8570 C.2   437  GLY437      0.2612
    118  O         24.1550   12.7800   32.6540 O.2   437  GLY437     -0.2717
    119  N         22.9150   11.0640   31.9210 N.am  438  LEU438     -0.1965
    120  CA        23.4070   11.1030   30.5520 C.3   438  LEU438      0.1728
    121  C         22.2590   11.0220   29.5670 C.2   438  LEU438      0.2616
    122  O         21.3200   10.2610   29.7820 O.2   438  LEU438     -0.2715
    123  CB        24.3150    9.9190   30.2500 C.3   438  LEU438      0.0311
    124  CG        25.6480    9.8550   30.9460 C.3   438  LEU438      0.0022
    125  CD1       26.3530    8.5690   30.5490 C.3   438  LEU438      0.0001
    126  CD2       26.4790   11.0640   30.5810 C.3   438  LEU438      0.0001
    127  N         22.3790   11.7760   28.4660 N.am  439  GLY439     -0.1955
    128  CA        21.5460   11.6180   27.2730 C.3   439  GLY439      0.1869
    129  C         22.1520   10.6630   26.2300 C.2   439  GLY439      0.2309
    130  O         22.9010   11.0930   25.3440 O.2   439  GLY439     -0.2863
    131  N         20.8660    8.9730   23.6150 N.3   441  ASP441     -0.1225
    132  CA        20.5460    9.3180   22.2220 C.3   441  ASP441      0.1805
    133  C         21.4300   10.4340   21.7090 C.2   441  ASP441      0.2597
    134  O         22.0760   10.3030   20.6820 O.2   441  ASP441     -0.2718
    135  CB        19.0810    9.7170   22.1190 C.3   441  ASP441      0.1424
    136  CG        18.1580    8.6820   22.7570 C.2   441  ASP441      0.3668
    137  OD1       17.9490    7.6010   22.1510 O.co2 441  ASP441     -0.2456
    138  OD2       17.6950    8.9150   23.8940 O.co2 441  ASP441     -0.2456
    139  N         21.5160   11.5200   22.4650 N.am  442  ARG442     -0.1979
    140  CA        22.3130   12.6410   22.0460 C.3   442  ARG442      0.1597
    141  C         23.7910   12.2600   21.8800 C.2   442  ARG442      0.2287
    142  O         24.4060   12.6490   20.8860 O.2   442  ARG442     -0.2864
    143  CB        22.1440   13.8380   22.9870 C.3   442  ARG442      0.0334
    144  CG        20.8980   14.6620   22.6940 C.3   442  ARG442      0.0492
    145  CD        20.6330   15.6440   23.8200 C.3   442  ARG442      0.2205
    146  NE        19.3940   16.3510   23.5770 N.pl3 442  ARG442     -0.0865
    147  CZ        19.0640   17.5130   24.1170 C.cat 442  ARG442      0.5346
    148  NH1       19.8620   18.0950   24.9900 N.pl3 442  ARG442      0.1354
    149  NH2       17.9190   18.0870   23.7940 N.pl3 442  ARG442      0.1354
    150  N         18.1820   13.3560   16.2700 N.3   453  ILE453     -0.1245
    151  CA        17.9320   12.2850   17.2160 C.3   453  ILE453      0.1561
    152  C         17.1050   11.1810   16.5790 C.2   453  ILE453      0.2260
    153  O         17.1880   10.0360   16.9960 O.2   453  ILE453     -0.2867
    154  CB        17.2630   12.8490   18.4780 C.3   453  ILE453      0.0252
    155  CG1       17.3230   11.8700   19.6160 C.3   453  ILE453      0.0019
    156  CG2       15.8230   13.2640   18.2410 C.3   453  ILE453      0.0019
    157  CD1       16.8720   12.4840   20.9190 C.3   453  ILE453      0.0001
@<TRIPOS>BOND
     1   150   151    1
     2   152   153    2
     3   152   151    1
     4   151   154    1
     5   156   154    1
     6   154   155    1
     7    48    47    2
     8   155   157    1
     9    35    34    2
    10    47    46    1
    11    47    49   am
    12    32    33    1
    13   134   133    2
    14    34    33    1
    15    34    42   am
    16    46    43    1
    17   142   141    2
    18    30    29    1
    19    30    31    2
    20    43    42    1
    21    43    44    1
    22    33    36    1
    23    56    55    1
    24    56    50    1
    25    29    28    1
    26    36    37    1
    27   133   132    1
    28   133   139   am
    29    38    37   ar
    30    38    40   ar
    31    55    54    1
    32   141   140    1
    33   140   139    1
    34   140   143    1
    35   135   132    1
    36   135   136    1
    37   137   136   ar
    38   132   131    1
    39    37    39   ar
    40    50    44   am
    41    50    51    1
    42    44    45    2
    43    40    41   ar
    44   144   143    1
    45   144   145    1
    46   136   138   ar
    47    28    21   am
    48    54    51    1
    49    22    21    2
    50   146   145    1
    51   146   147    2
    52    39    41   ar
    53    51    52    1
    54   149   147    1
    55    21    20    1
    56   147   148    1
    57    52    53    2
    58    97    96    1
    59    61    58    1
    60    61    62    1
    61    58    57    1
    62    58    59    1
    63   130   129    2
    64    20    19    1
    65    20    23    1
    66    83    84    1
    67    86    85    2
    68    23    24    2
    69    96    98    1
    70    96    93    1
    71   129   128    1
    72    62    63   ar
    73    62    64   ar
    74    59    60    2
    75    11    10    2
    76    24    25    1
    77    63    65   ar
    78    85    84    1
    79    85    92   am
    80    84    87    1
    81    64    66   ar
    82    93    92    1
    83    93    94    1
    84   128   127    1
    85    25    27   ar
    86    25    26   ar
    87    10     9    1
    88    65    67   ar
    89    87    88    1
    90    66    67   ar
    91     4     3    2
    92   127   121   am
    93    94    95    2
    94    94    99   am
    95     8     9    1
    96    12     9    1
    97    12    13    1
    98    68    69    1
    99    88    89    1
   100    90    89   ar
   101     3     2    1
   102    99   100    1
   103   121   122    2
   104   121   120    1
   105     1     2    1
   106    13    14    1
   107    69    70    1
   108    69    72    1
   109    89    91   ar
   110    14    15    1
   111     7     5    1
   112   123   120    1
   113   123   124    1
   114     2     5    1
   115   125   124    1
   116   120   119    1
   117   126   124    1
   118    70    71    2
   119    72    73    1
   120   100   103    1
   121   100   101    1
   122   103   104    1
   123    17    16    1
   124     5     6    1
   125    15    16    2
   126    16    18    1
   127   102   101    2
   128   105   104    1
   129   101   107   am
   130   119   117   am
   131   104   106    1
   132   118   117    2
   133   117   116    1
   134   107   108    1
   135   111   108    1
   136   111   112    1
   137   108   109    1
   138   116   115    1
   139    74    75    1
   140   112   113    2
   141   112   114   am
   142   109   110    2
   143    82    80   ar
   144    79    80    1
   145    79    78    1
   146    75    78    1
   147    75    76    1
   148    80    81   ar
   149    77    76    2
