@<TRIPOS>MOLECULE
tmp/5zh2A00.pdb
 109 100 0 0 0
SMALL
GASTEIGER

@<TRIPOS>ATOM
      1  N         12.1490   14.9550   39.5240 N.3   202  GLY202     -0.1210
      2  CA        13.4480   14.5910   39.0220 C.3   202  GLY202      0.1956
      3  C         14.0240   15.5630   38.0200 C.2   202  GLY202      0.2611
      4  O         15.2330   15.5740   37.7980 O.2   202  GLY202     -0.2717
      5  N         13.1630   16.3900   37.4270 N.am  203  ALA203     -0.1979
      6  CA        13.5750   17.4040   36.4620 C.3   203  ALA203      0.1597
      7  C         12.4000   18.3320   36.2130 C.2   203  ALA203      0.2287
      8  O         11.3280   18.1230   36.7670 O.2   203  ALA203     -0.2864
      9  CB        14.0280   16.7730   35.1650 C.3   203  ALA203      0.0319
     10  N         12.2630   11.2620   34.8490 N.3   224  ALA224     -0.1245
     11  CA        13.6220   11.0680   35.2970 C.3   224  ALA224      0.1562
     12  C         13.6620    9.9330   36.3090 C.2   224  ALA224      0.2260
     13  O         12.6430    9.5040   36.7850 O.2   224  ALA224     -0.2867
     14  CB        14.1570   12.3470   35.9160 C.3   224  ALA224      0.0290
     15  N         15.8750   10.0790   39.0790 N.3   226  GLU226     -0.1245
     16  CA        16.5950   10.6410   40.2260 C.3   226  GLU226      0.1567
     17  C         16.0460   10.2770   41.6080 C.2   226  GLU226      0.2260
     18  O         16.7790    9.7800   42.4620 O.2   226  GLU226     -0.2867
     19  CB        16.6350   12.1590   40.0650 C.3   226  GLU226      0.0388
     20  CG        17.2730   12.9140   41.2220 C.3   226  GLU226      0.1160
     21  CD        17.9920   14.1970   40.7900 C.2   226  GLU226      0.3649
     22  OE1       18.6060   14.8400   41.6700 O.co2 226  GLU226     -0.2457
     23  OE2       17.9850   14.5540   39.5780 O.co2 226  GLU226     -0.2457
     24  N          9.0630   12.8540   28.4870 N.3   248  ARG248     -0.1245
     25  CA         8.7660   14.2630   28.6680 C.3   248  ARG248      0.1563
     26  C          7.7870   14.6960   27.6170 C.2   248  ARG248      0.2260
     27  O          7.9540   14.4420   26.4380 O.2   248  ARG248     -0.2867
     28  CB        10.0590   15.0740   28.6420 C.3   248  ARG248      0.0307
     29  CG        11.0390   14.5220   29.6730 C.3   248  ARG248      0.0489
     30  CD        12.1680   15.4180   30.1150 C.3   248  ARG248      0.2205
     31  NE        12.9090   14.7590   31.1810 N.pl3 248  ARG248     -0.0865
     32  CZ        14.1570   15.0450   31.5380 C.cat 248  ARG248      0.5346
     33  NH1       14.8530   16.0180   30.9550 N.pl3 248  ARG248      0.1354
     34  NH2       14.7250   14.3500   32.5100 N.pl3 248  ARG248      0.1354
     35  N         21.1920    7.3140   34.7030 N.3   264  GLU264     -0.1245
     36  CA        21.5360    8.0430   35.8940 C.3   264  GLU264      0.1567
     37  C         22.2390    7.0740   36.7720 C.2   264  GLU264      0.2260
     38  O         21.9210    5.9000   36.7410 O.2   264  GLU264     -0.2867
     39  CB        20.3150    8.6620   36.5730 C.3   264  GLU264      0.0388
     40  CG        19.5310    9.5720   35.6260 C.3   264  GLU264      0.1160
     41  CD        18.4630   10.4740   36.3000 C.2   264  GLU264      0.3649
     42  OE1       18.4500   10.5870   37.5610 O.co2 264  GLU264     -0.2457
     43  OE2       17.6510   11.1000   35.5370 O.co2 264  GLU264     -0.2457
     44  N         24.0430    7.1350   40.8920 N.3   266  TYR266     -0.1241
     45  CA        24.3220    7.8300   42.1170 C.3   266  TYR266      0.1605
     46  C         25.4310    7.0710   42.8500 C.2   266  TYR266      0.2264
     47  O         25.5050    5.8310   42.8180 O.2   266  TYR266     -0.2867
     48  CB        23.0300    8.0010   42.9310 C.3   266  TYR266      0.0534
     49  CG        22.0780    8.9040   42.1840 C.ar  266  TYR266     -0.0201
     50  CD1       21.3450    8.4320   41.1030 C.ar  266  TYR266     -0.0009
     51  CD2       21.9720   10.2560   42.5030 C.ar  266  TYR266     -0.0009
     52  CE1       20.5320    9.2710   40.3650 C.ar  266  TYR266      0.0417
     53  CE2       21.1370   11.0990   41.7800 C.ar  266  TYR266      0.0417
     54  CZ        20.4350   10.5990   40.7020 C.ar  266  TYR266      0.1957
     55  OH        19.6160   11.4160   39.9670 O.3   266  TYR266     -0.2866
     56  N         23.2780   19.9960   25.4770 N.3   401  GLU401     -0.1245
     57  CA        23.4970   19.3360   26.7560 C.3   401  GLU401      0.1567
     58  C         23.3890   17.8010   26.6400 C.2   401  GLU401      0.2260
     59  O         22.4180   17.2790   26.1040 O.2   401  GLU401     -0.2867
     60  CB        22.4300   19.8590   27.7230 C.3   401  GLU401      0.0388
     61  CG        22.5320   19.3850   29.1650 C.3   401  GLU401      0.1160
     62  CD        21.1970   19.4690   29.9100 C.2   401  GLU401      0.3649
     63  OE1       20.1970   19.9670   29.3290 O.co2 401  GLU401     -0.2457
     64  OE2       21.1500   19.0150   31.0730 O.co2 401  GLU401     -0.2457
     65  N         24.3390   15.9100   32.9160 N.3   404  ASN404     -0.1240
     66  CA        23.9790   16.8240   33.9680 C.3   404  ASN404      0.1653
     67  C         24.2560   16.1320   35.2730 C.2   404  ASN404      0.2266
     68  O         23.8030   15.0240   35.4660 O.2   404  ASN404     -0.2867
     69  CB        22.5190   17.1620   33.8270 C.3   404  ASN404      0.1155
     70  CG        22.0310   18.0560   34.9270 C.2   404  ASN404      0.2627
     71  OD1       22.6490   19.0710   35.2530 O.2   404  ASN404     -0.2716
     72  ND2       20.8820   17.7180   35.4750 N.am  404  ASN404     -0.0877
     73  N         25.4660   16.6450   39.7350 N.3   406  TYR406     -0.1241
     74  CA        25.7960   17.4710   40.8660 C.3   406  TYR406      0.1605
     75  C         26.0560   16.7010   42.1390 C.2   406  TYR406      0.2264
     76  O         25.8070   15.4850   42.2050 O.2   406  TYR406     -0.2867
     77  CB        24.7250   18.5500   41.1020 C.3   406  TYR406      0.0534
     78  CG        23.3060   18.1340   40.9170 C.ar  406  TYR406     -0.0201
     79  CD1       22.6750   17.3450   41.8550 C.ar  406  TYR406     -0.0009
     80  CD2       22.5960   18.5620   39.8190 C.ar  406  TYR406     -0.0009
     81  CE1       21.3590   16.9430   41.6880 C.ar  406  TYR406      0.0417
     82  CE2       21.2820   18.1970   39.6280 C.ar  406  TYR406      0.0417
     83  CZ        20.6560   17.3820   40.5680 C.ar  406  TYR406      0.1957
     84  OH        19.3470   17.0260   40.3780 O.3   406  TYR406     -0.2866
     85  N         24.7270   15.8730   45.4730 N.3   408  GLU408     -0.1245
     86  CA        23.3060   15.7550   45.8020 C.3   408  GLU408      0.1567
     87  C         23.0090   16.4420   47.1090 C.2   408  GLU408      0.2260
     88  O         23.6680   16.2070   48.1060 O.2   408  GLU408     -0.2867
     89  CB        22.8920   14.2930   45.9200 C.3   408  GLU408      0.0388
     90  CG        23.0980   13.4640   44.6650 C.3   408  GLU408      0.1160
     91  CD        22.2060   13.8690   43.4970 C.2   408  GLU408      0.3649
     92  OE1       21.0430   14.2900   43.7130 O.co2 408  GLU408     -0.2457
     93  OE2       22.6600   13.7500   42.3380 O.co2 408  GLU408     -0.2457
     94  N         25.7700   12.4470   41.8990 N.3   435  GLY435     -0.1210
     95  CA        24.7470   11.9280   41.0110 C.3   435  GLY435      0.1956
     96  C         24.9680   12.4460   39.6120 C.2   435  GLY435      0.2612
     97  O         25.3800   13.5710   39.4400 O.2   435  GLY435     -0.2717
     98  N         24.6570   11.6280   38.6120 N.am  436  LEU436     -0.1965
     99  CA        24.9420   11.9910   37.2670 C.3   436  LEU436      0.1728
    100  C         23.9450   11.4110   36.2930 C.2   436  LEU436      0.2616
    101  O         23.5960   10.2510   36.3920 O.2   436  LEU436     -0.2715
    102  CB        26.3300   11.5000   36.9320 C.3   436  LEU436      0.0311
    103  CG        26.8890   12.0050   35.6010 C.3   436  LEU436      0.0022
    104  CD1       28.3740   12.2660   35.7810 C.3   436  LEU436      0.0001
    105  CD2       26.6140   11.0030   34.4850 C.3   436  LEU436      0.0001
    106  N         23.5700   12.2180   35.3010 N.am  437  GLY437     -0.1955
    107  CA        22.6580   11.8170   34.2210 C.3   437  GLY437      0.1869
    108  C         23.3210   11.9250   32.8570 C.2   437  GLY437      0.2309
    109  O         24.1550   12.7800   32.6540 O.2   437  GLY437     -0.2863
@<TRIPOS>BOND
     1    56    57    1
     2    59    58    2
     3    27    26    2
     4    58    57    1
     5    57    60    1
     6    26    25    1
     7    60    61    1
     8    24    25    1
     9    28    25    1
    10    28    29    1
    11    61    62    1
    12    63    62   ar
    13    29    30    1
    14    62    64   ar
    15    30    31    1
    16    33    32    1
    17    31    32    2
    18    32    34    1
    19   109   108    2
    20   108   107    1
    21    65    66    1
    22    69    66    1
    23    69    70    1
    24    66    67    1
    25   107   106    1
    26   105   103    1
    27    35    36    1
    28    10    11    1
    29    70    71    2
    30    70    72   am
    31     9     6    1
    32    67    68    2
    33    11    14    1
    34    11    12    1
    35   106   100   am
    36    43    41   ar
    37   103   104    1
    38   103   102    1
    39    40    41    1
    40    40    39    1
    41    36    39    1
    42    36    37    1
    43     7     6    1
    44     7     8    2
    45   100   101    2
    46   100    99    1
    47    41    42   ar
    48    12    13    2
    49     6     5    1
    50    38    37    2
    51   102    99    1
    52    99    98    1
    53     5     3   am
    54     4     3    2
    55     3     2    1
    56    98    96   am
    57     2     1    1
    58    15    16    1
    59    97    96    2
    60    23    21   ar
    61    96    95    1
    62    82    80   ar
    63    82    83   ar
    64    73    74    1
    65    80    78   ar
    66    55    54    1
    67    19    16    1
    68    19    20    1
    69    16    17    1
    70    52    54   ar
    71    52    50   ar
    72    84    83    1
    73    83    81   ar
    74    54    53   ar
    75    21    20    1
    76    21    22   ar
    77    74    77    1
    78    74    75    1
    79    44    45    1
    80    78    77    1
    81    78    79   ar
    82    95    94    1
    83    50    49   ar
    84    17    18    2
    85    81    79   ar
    86    53    51   ar
    87    45    46    1
    88    45    48    1
    89    75    76    2
    90    49    51   ar
    91    49    48    1
    92    93    91   ar
    93    47    46    2
    94    91    92   ar
    95    91    90    1
    96    90    89    1
    97    85    86    1
    98    86    89    1
    99    86    87    1
   100    87    88    2
