@<TRIPOS>MOLECULE
tmp/5zheB00.pdb
 173 162 0 0 0
SMALL
GASTEIGER

@<TRIPOS>ATOM
      1  N         13.4610   35.8450   34.4090 N.3     9  MET9       -0.1196
      2  CA        12.0070   35.7360   34.5720 C.3     9  MET9        0.1786
      3  C         11.6350   34.2530   34.6960 C.2     9  MET9        0.2306
      4  O         11.1640   33.6380   33.7540 O.2     9  MET9       -0.2863
      5  CB        11.2680   36.3320   33.3780 C.2     9  MET9        0.0070
      6  CG        11.4470   37.8240   33.1430 C.2     9  MET9        0.0282
      7  SD        10.7830   38.4450   31.5720 S.3     9  MET9       -0.1125
      8  CE        11.6560   37.5200   30.3260 C.3     9  MET9        0.0742
      9  N          7.1200   30.6650   35.2430 N.3    12  ASN12      -0.1240
     10  CA         5.9230   30.5490   34.4130 C.3    12  ASN12       0.1653
     11  C          5.2690   29.1410   34.4380 C.2    12  ASN12       0.2266
     12  O          4.0840   28.9840   34.7570 O.2    12  ASN12      -0.2867
     13  CB         6.2400   30.9690   32.9610 C.3    12  ASN12       0.1155
     14  CG         6.3930   32.5010   32.7870 C.2    12  ASN12       0.2627
     15  OD1        6.0330   33.3050   33.6510 O.2    12  ASN12      -0.2716
     16  ND2        6.8800   32.9020   31.6280 N.am   12  ASN12      -0.0877
     17  N          2.5950   30.7820   30.0240 N.3    27  HIS27      -0.1241
     18  CA         3.3260   31.6450   29.1000 C.3    27  HIS27       0.1621
     19  C          2.5720   32.9360   28.7430 C.2    27  HIS27       0.2264
     20  O          3.2090   33.9610   28.5830 O.2    27  HIS27      -0.2867
     21  CB         3.8010   30.8800   27.8590 C.3    27  HIS27       0.0745
     22  CG         4.9390   29.9450   28.1370 C.ar   27  HIS27       0.0817
     23  ND1        5.2720   28.9040   27.2970 N.ar   27  HIS27      -0.2268
     24  CD2        5.8040   29.8780   29.1800 C.ar   27  HIS27       0.1154
     25  CE1        6.3070   28.2520   27.8010 C.ar   27  HIS27       0.1986
     26  NE2        6.6410   28.8140   28.9490 N.ar   27  HIS27      -0.2212
     27  N          2.8150   35.1580   31.9100 N.3    30  GLY30      -0.1210
     28  CA         4.1910   35.6850   31.8060 C.3    30  GLY30       0.1956
     29  C          4.3820   36.8690   30.8830 C.2    30  GLY30       0.2611
     30  O          5.0020   37.8710   31.2780 O.2    30  GLY30      -0.2717
     31  N          3.7800   36.7960   29.6920 N.am   31  ALA31      -0.1979
     32  CA         3.7770   37.9210   28.7590 C.3    31  ALA31       0.1597
     33  C          3.1300   39.1600   29.3510 C.2    31  ALA31       0.2287
     34  O          3.6360   40.2950   29.1970 O.2    31  ALA31      -0.2864
     35  CB         3.0640   37.5620   27.4620 C.3    31  ALA31       0.0319
     36  N          5.5250   40.7310   31.6520 N.3    34  VAL34      -0.1231
     37  CA         6.5340   41.4870   30.8710 C.3    34  VAL34       0.1692
     38  C          6.0370   42.8740   30.5660 C.2    34  VAL34       0.2591
     39  O          6.7370   43.8500   30.8220 O.2    34  VAL34      -0.2718
     40  CB         6.9550   40.7600   29.5860 C.3    34  VAL34       0.0266
     41  CG1        7.6890   41.6630   28.6060 C.3    34  VAL34       0.0020
     42  CG2        7.8280   39.5400   29.9090 C.3    34  VAL34       0.0020
     43  N          4.8130   42.9720   30.0600 N.am   35  ARG35      -0.1980
     44  CA         4.2410   44.2800   29.7420 C.3    35  ARG35       0.1597
     45  C          4.1690   45.1500   30.9710 C.2    35  ARG35       0.2287
     46  O          4.4690   46.3150   30.9280 O.2    35  ARG35      -0.2864
     47  CB         2.8170   44.1650   29.1260 C.3    35  ARG35       0.0334
     48  CG         2.7590   43.7310   27.6660 C.3    35  ARG35       0.0492
     49  CD         1.3440   43.8230   27.0380 C.3    35  ARG35       0.2205
     50  NE         0.4860   42.6670   27.3360 N.pl3  35  ARG35      -0.0865
     51  CZ         0.4960   41.4790   26.7110 C.cat  35  ARG35       0.5346
     52  NH1        1.3060   41.2180   25.6820 N.pl3  35  ARG35       0.1354
     53  NH2       -0.3200   40.5230   27.1390 N.pl3  35  ARG35       0.1354
     54  N          7.7920   46.3270   31.9230 N.3    38  VAL38      -0.1231
     55  CA         8.2670   47.2860   30.9660 C.3    38  VAL38       0.1692
     56  C          7.6640   48.6740   31.2380 C.2    38  VAL38       0.2592
     57  O          8.3770   49.6300   31.2790 O.2    38  VAL38      -0.2718
     58  CB         8.0570   46.7880   29.5310 C.3    38  VAL38       0.0266
     59  CG1        8.3380   47.8720   28.5240 C.3    38  VAL38       0.0020
     60  CG2        8.9210   45.5850   29.2580 C.3    38  VAL38       0.0020
     61  N          6.3620   48.7620   31.4580 N.am   39  SER39      -0.1952
     62  CA         5.7260   50.0310   31.7750 C.3    39  SER39       0.1924
     63  C          6.2670   50.6060   33.0480 C.2    39  SER39       0.2314
     64  O          6.4940   51.7710   33.1320 O.2    39  SER39      -0.2863
     65  CB         4.2370   49.8910   31.9800 C.3    39  SER39       0.2116
     66  OG         3.6300   49.2540   30.9190 O.3    39  SER39      -0.2180
     67  N          9.7480   52.0920   32.5840 N.3    42  ALA42      -0.1245
     68  CA         9.6360   53.3120   31.8410 C.3    42  ALA42       0.1562
     69  C          9.0860   54.4370   32.6890 C.2    42  ALA42       0.2260
     70  O          9.5440   55.5320   32.6250 O.2    42  ALA42      -0.2867
     71  CB         8.7660   53.0930   30.6360 C.3    42  ALA42       0.0290
     72  N         15.9330   41.6270   29.7600 N.3    51  LEU51      -0.1245
     73  CA        14.9960   40.5520   30.1150 C.3    51  LEU51       0.1561
     74  C         15.4690   39.2190   29.5400 C.2    51  LEU51       0.2260
     75  O         15.8690   39.1270   28.3780 O.2    51  LEU51      -0.2867
     76  CB        13.5770   40.8770   29.6120 C.3    51  LEU51       0.0270
     77  CG        12.8680   42.1150   30.2130 C.3    51  LEU51       0.0019
     78  CD1       11.4180   42.1880   29.7670 C.3    51  LEU51       0.0001
     79  CD2       12.9010   42.0960   31.7060 C.3    51  LEU51       0.0001
     80  N         14.3680   35.4060   29.2150 N.3    53  ALA53      -0.1245
     81  CA        13.3480   34.3560   29.2780 C.3    53  ALA53       0.1562
     82  C         14.0760   33.0520   29.5640 C.2    53  ALA53       0.2260
     83  O         15.1000   32.7270   28.9410 O.2    53  ALA53      -0.2867
     84  CB        12.5630   34.2790   27.9770 C.3    53  ALA53       0.0290
     85  N          7.5770   35.7010   16.2170 N.3    56  TRP56      -0.1227
     86  CA         7.5920   35.6080   17.6610 C.3    56  TRP56       0.1737
     87  C          7.5820   36.9730   18.3190 C.2    56  TRP56       0.2595
     88  O          8.6340   37.5990   18.4770 O.2    56  TRP56      -0.2718
     89  CB         8.7810   34.7540   18.1210 C.3    56  TRP56       0.0564
     90  CG         9.4880   35.2070   19.3550 C.ar   56  TRP56       0.0003
     91  CD1        9.1290   34.9770   20.6770 C.ar   56  TRP56       0.0946
     92  CD2       10.6870   35.9630   19.4020 C.ar   56  TRP56       0.0152
     93  NE1       10.0320   35.5640   21.5080 N.ar   56  TRP56      -0.2442
     94  CE2       11.0000   36.1680   20.7470 C.ar   56  TRP56       0.0810
     95  CE3       11.5320   36.4870   18.4320 C.ar   56  TRP56       0.0012
     96  CZ2       12.1100   36.8770   21.1290 C.ar   56  TRP56       0.0191
     97  CZ3       12.6140   37.1800   18.8130 C.ar   56  TRP56       0.0001
     98  CH2       12.9090   37.3660   20.1380 C.ar   56  TRP56       0.0015
     99  N          6.3770   37.4450   18.6460 N.am   57  ALA57      -0.1980
    100  CA         6.1200   38.7180   19.3730 C.3    57  ALA57       0.1597
    101  C          6.5920   40.1150   18.8690 C.2    57  ALA57       0.2287
    102  O          6.4020   41.1170   19.5350 O.2    57  ALA57      -0.2864
    103  CB         6.5040   38.5460   20.8250 C.3    57  ALA57       0.0319
    104  N          3.8570   43.3970   19.4300 N.3    61  GLU61      -0.1245
    105  CA         4.1660   44.4950   20.3090 C.3    61  GLU61       0.1567
    106  C          5.0500   45.6310   19.8490 C.2    61  GLU61       0.2260
    107  O          5.0770   46.6450   20.4910 O.2    61  GLU61      -0.2867
    108  CB         4.7580   43.9290   21.5850 C.3    61  GLU61       0.0388
    109  CG         3.9440   42.8320   22.2200 C.3    61  GLU61       0.1160
    110  CD         2.8210   43.3740   23.0740 C.2    61  GLU61       0.3649
    111  OE1        3.0800   43.7700   24.2090 O.co2  61  GLU61      -0.2457
    112  OE2        1.6750   43.4230   22.6080 O.co2  61  GLU61      -0.2457
    113  N          3.6260   49.3050   19.7680 N.3    64  SER64      -0.1202
    114  CA         3.3640   49.9250   21.0390 C.3    64  SER64       0.2020
    115  C          4.6480   50.3890   21.7110 C.2    64  SER64       0.2618
    116  O          4.6950   51.4390   22.2730 O.2    64  SER64      -0.2717
    117  CB         2.5760   48.9870   21.9270 C.3    64  SER64       0.2103
    118  OG         2.4070   49.5380   23.1920 O.3    64  SER64      -0.2182
    119  N          5.6980   49.6030   21.6270 N.am   65  LEU65      -0.1979
    120  CA         6.9550   49.9830   22.2210 C.3    65  LEU65       0.1596
    121  C          7.4900   51.2480   21.6020 C.2    65  LEU65       0.2287
    122  O          8.0870   52.0590   22.2470 O.2    65  LEU65      -0.2864
    123  CB         7.9690   48.8850   22.0330 C.3    65  LEU65       0.0297
    124  CG         7.7220   47.6300   22.8220 C.3    65  LEU65       0.0022
    125  CD1        8.6880   46.5530   22.4320 C.3    65  LEU65       0.0001
    126  CD2        7.7990   47.9280   24.2880 C.3    65  LEU65       0.0001
    127  N          5.7190   54.2260   22.7140 N.3    68  HIS68      -0.1241
    128  CA         6.0420   54.5480   24.0910 C.3    68  HIS68       0.1621
    129  C          7.4630   54.9890   24.1760 C.2    68  HIS68       0.2264
    130  O          8.0230   55.1410   25.2730 O.2    68  HIS68      -0.2867
    131  CB         5.8340   53.3300   24.9980 C.3    68  HIS68       0.0745
    132  CG         4.4120   53.0920   25.3790 C.ar   68  HIS68       0.0817
    133  ND1        3.5290   52.3980   24.5790 N.ar   68  HIS68      -0.2268
    134  CD2        3.7220   53.4370   26.4940 C.ar   68  HIS68       0.1154
    135  CE1        2.3560   52.3230   25.1870 C.ar   68  HIS68       0.1986
    136  NE2        2.4450   52.9560   26.3440 N.ar   68  HIS68      -0.2212
    137  N         10.2660   53.4920   23.3920 N.3    70  VAL70      -0.1245
    138  CA        11.2230   52.4730   23.8520 C.3    70  VAL70       0.1561
    139  C         12.1200   52.0480   22.7170 C.2    70  VAL70       0.2260
    140  O         11.6480   51.7870   21.6070 O.2    70  VAL70      -0.2867
    141  CB        10.4730   51.2120   24.3200 C.3    70  VAL70       0.0252
    142  CG1       11.4530   50.1240   24.7550 C.3    70  VAL70       0.0019
    143  CG2        9.5050   51.5690   25.4440 C.3    70  VAL70       0.0019
    144  N         15.0320   48.5930   26.0570 N.3   104  LEU104     -0.1245
    145  CA        14.6280   47.2430   26.4350 C.3   104  LEU104      0.1561
    146  C         15.4930   46.2570   25.6610 C.2   104  LEU104      0.2260
    147  O         15.3520   46.1340   24.4110 O.2   104  LEU104     -0.2867
    148  CB        13.1640   47.0510   26.0310 C.3   104  LEU104      0.0270
    149  CG        12.6050   45.7040   26.3170 C.3   104  LEU104      0.0019
    150  CD1       12.6180   45.4250   27.8050 C.3   104  LEU104      0.0001
    151  CD2       11.1710   45.5790   25.7960 C.3   104  LEU104      0.0001
    152  N         16.1010   42.3470   25.0210 N.3   106  ILE106     -0.1245
    153  CA        15.4650   41.0570   25.1420 C.3   106  ILE106      0.1561
    154  C         16.5440   40.0350   24.8480 C.2   106  ILE106      0.2260
    155  O         17.1820   40.0930   23.7970 O.2   106  ILE106     -0.2867
    156  CB        14.2980   40.8650   24.1480 C.3   106  ILE106      0.0252
    157  CG1       13.1370   41.8320   24.4190 C.3   106  ILE106      0.0019
    158  CG2       13.7680   39.4470   24.2490 C.3   106  ILE106      0.0019
    159  CD1       12.6090   41.7720   25.8210 C.3   106  ILE106      0.0001
    160  N          7.2770   34.5030   38.2610 N.3   183  TRP183     -0.1241
    161  CA         7.2550   35.6440   37.3210 C.3   183  TRP183      0.1605
    162  C          5.8620   36.1650   37.0190 C.2   183  TRP183      0.2264
    163  O          5.6280   37.3610   36.9950 O.2   183  TRP183     -0.2867
    164  CB         7.9610   35.3060   36.0130 C.3   183  TRP183      0.0550
    165  CG         7.9370   36.4220   35.0200 C.ar  183  TRP183      0.0003
    166  CD1        7.2990   36.4150   33.7950 C.ar  183  TRP183      0.0946
    167  CD2        8.4410   37.7490   35.2040 C.ar  183  TRP183      0.0152
    168  NE1        7.3710   37.6470   33.2300 N.ar  183  TRP183     -0.2442
    169  CE2        8.0950   38.4830   34.0490 C.ar  183  TRP183      0.0810
    170  CE3        9.2360   38.3610   36.1780 C.ar  183  TRP183      0.0012
    171  CZ2        8.5150   39.8020   33.8360 C.ar  183  TRP183      0.0191
    172  CZ3        9.5510   39.7090   36.0230 C.ar  183  TRP183      0.0001
    173  CH2        9.2390   40.3990   34.8200 C.ar  183  TRP183      0.0015
@<TRIPOS>BOND
     1    85    86    1
     2    86    89    1
     3    86    87    1
     4    89    90    1
     5    87    88    2
     6    87    99   am
     7    95    97   ar
     8    95    92   ar
     9    99   100    1
    10    97    98   ar
    11   101   100    1
    12   101   102    2
    13    90    92   ar
    14    90    91   ar
    15   100   103    1
    16    92    94   ar
    17   104   105    1
    18   113   114    1
    19   106   105    1
    20   106   107    2
    21    98    96   ar
    22   105   108    1
    23    91    93   ar
    24    94    96   ar
    25    94    93   ar
    26   114   115    1
    27   114   117    1
    28   108   109    1
    29   121   120    1
    30   121   122    2
    31   140   139    2
    32   119   115   am
    33   119   120    1
    34   115   116    2
    35   117   118    1
    36   123   120    1
    37   123   124    1
    38   109   110    1
    39   125   124    1
    40   112   110   ar
    41   127   128    1
    42   139   138    1
    43   124   126    1
    44   110   111   ar
    45   137   138    1
    46   155   154    2
    47   138   141    1
    48   128   129    1
    49   128   131    1
    50   156   158    1
    51   156   157    1
    52   156   153    1
    53   129   130    2
    54   141   142    1
    55   141   143    1
    56   147   146    2
    57   157   159    1
    58   133   135   ar
    59   133   132   ar
    60   154   153    1
    61   131   132    1
    62   152   153    1
    63   135   136   ar
    64   132   134   ar
    65   146   145    1
    66    52    51    1
    67   151   149    1
    68   148   149    1
    69   148   145    1
    70   144   145    1
    71   149   150    1
    72   136   134   ar
    73    51    53    1
    74    51    50    2
    75    49    50    1
    76    49    48    1
    77    23    25   ar
    78    23    22   ar
    79    35    32    1
    80    48    47    1
    81    25    26   ar
    82    21    22    1
    83    21    18    1
    84    84    81    1
    85    22    24   ar
    86    75    74    2
    87    59    58    1
    88    20    19    2
    89    41    40    1
    90    19    18    1
    91    32    33    1
    92    32    31    1
    93    83    82    2
    94    26    24   ar
    95    18    17    1
    96    47    44    1
    97    34    33    2
    98    80    81    1
    99    60    58    1
   100    81    82    1
   101    58    55    1
   102    74    73    1
   103    40    42    1
   104    40    37    1
   105    76    73    1
   106    76    77    1
   107    31    29   am
   108    44    43    1
   109    44    45    1
   110    72    73    1
   111    78    77    1
   112    43    38   am
   113    77    79    1
   114     8     7    1
   115    38    39    2
   116    38    37    1
   117    71    68    1
   118    37    36    1
   119    29    30    2
   120    29    28    1
   121    66    65    1
   122    46    45    2
   123    55    56    1
   124    55    54    1
   125    56    57    2
   126    56    61   am
   127    61    62    1
   128     7     6    1
   129    16    14   am
   130    62    65    1
   131    62    63    1
   132    28    27    1
   133    68    67    1
   134    68    69    1
   135    70    69    2
   136    14    13    1
   137    14    15    2
   138    13    10    1
   139    63    64    2
   140     6     5    2
   141   168   166   ar
   142   168   169   ar
   143     5     2    1
   144     4     3    2
   145   166   165   ar
   146   171   169   ar
   147   171   173   ar
   148   169   167   ar
   149     1     2    1
   150    10    11    1
   151    10     9    1
   152    11    12    2
   153     2     3    1
   154   173   172   ar
   155   165   167   ar
   156   165   164    1
   157   167   170   ar
   158   164   161    1
   159   172   170   ar
   160   163   162    2
   161   162   161    1
   162   161   160    1
