@<TRIPOS>MOLECULE
tmp/5zhjA00.pdb
 146 146 0 0 0
SMALL
GASTEIGER

@<TRIPOS>ATOM
      1  N         10.4090  -18.0770   -5.7730 N.3    83  PRO83      -0.2102
      2  CA         9.0480  -18.6440   -5.7610 C.3    83  PRO83       0.1504
      3  C          8.7350  -19.2200   -7.1490 C.2    83  PRO83       0.2576
      4  O          9.0700  -18.6190   -8.1770 O.2    83  PRO83      -0.2718
      5  CB         8.1460  -17.4500   -5.4060 C.3    83  PRO83       0.0282
      6  CG         9.0310  -16.3740   -4.9910 C.3    83  PRO83       0.0208
      7  CD        10.3980  -16.6260   -5.5130 C.3    83  PRO83       0.0893
      8  N          8.1410  -20.4160   -7.1820 N.am   84  THR84      -0.1940
      9  CA         7.7390  -21.0570   -8.4430 C.3    84  THR84       0.2013
     10  C          6.7800  -22.1710   -8.1270 C.2    84  THR84       0.2484
     11  O          7.0390  -22.9420   -7.1910 O.2    84  THR84      -0.2729
     12  CB         8.9200  -21.5790   -9.3210 C.3    84  THR84       0.1807
     13  OG1        8.4000  -22.6050  -10.1960 O.3    84  THR84      -0.2208
     14  CG2       10.0750  -22.1630   -8.5080 C.3    84  THR84       0.0379
     15  N          5.7460  -22.3840   -8.9510 N.am   85  PRO85      -0.2715
     16  CA         4.8190  -23.4890   -8.6350 C.3    85  PRO85       0.1536
     17  C          5.4820  -24.8510   -8.8410 C.2    85  PRO85       0.2598
     18  O          4.8800  -25.8650   -8.4950 O.2    85  PRO85      -0.2715
     19  CB         3.6380  -23.2490   -9.5790 C.3    85  PRO85       0.0310
     20  CG         4.1760  -22.4610  -10.7080 C.3    85  PRO85       0.0237
     21  CD         5.2780  -21.5950  -10.1140 C.3    85  PRO85       0.0939
     22  N          6.6960  -24.8700   -9.4280 N.am   86  ALA86      -0.1978
     23  CA         7.4930  -26.0880   -9.7090 C.3    86  ALA86       0.1597
     24  C          8.5220  -26.3690   -8.6080 C.2    86  ALA86       0.2287
     25  O          9.3700  -27.2640   -8.7380 O.2    86  ALA86      -0.2864
     26  CB         8.2020  -25.9490  -11.0440 C.3    86  ALA86       0.0319
     27  N          9.2360  -13.6710   -9.5560 N.3   109  GLY109     -0.1210
     28  CA         9.0180  -13.8300  -10.9910 C.3   109  GLY109      0.1956
     29  C          7.7110  -13.2350  -11.4420 C.2   109  GLY109      0.2612
     30  O          6.7700  -13.1370  -10.6630 O.2   109  GLY109     -0.2717
     31  N          7.6520  -12.8280  -12.7130 N.am  110  ARG110     -0.1965
     32  CA         6.4350  -12.3980  -13.3880 C.3   110  ARG110      0.1729
     33  C          6.4710  -13.1000  -14.7420 C.2   110  ARG110      0.2616
     34  O          7.4490  -13.8010  -15.0350 O.2   110  ARG110     -0.2715
     35  CB         6.3480  -10.8690  -13.5270 C.3   110  ARG110      0.0348
     36  CG         5.8240  -10.2080  -12.2440 C.3   110  ARG110      0.0492
     37  CD         4.2840  -10.2950  -12.1780 C.3   110  ARG110      0.2205
     38  NE         3.8250  -10.0390  -10.8210 N.pl3 110  ARG110     -0.0865
     39  CZ         2.5670   -9.8090  -10.4740 C.cat 110  ARG110      0.5346
     40  NH1        1.6100   -9.7720  -11.3980 N.pl3 110  ARG110      0.1354
     41  NH2        2.2580   -9.5890   -9.2100 N.pl3 110  ARG110      0.1354
     42  N          5.4260  -12.9040  -15.5580 N.am  111  TYR111     -0.1960
     43  CA         5.3110  -13.5060  -16.9050 C.3   111  TYR111      0.1771
     44  C          5.3900  -15.0390  -16.7550 C.2   111  TYR111      0.2619
     45  O          4.7960  -15.5920  -15.8250 O.2   111  TYR111     -0.2715
     46  CB         6.4130  -12.9380  -17.8450 C.3   111  TYR111      0.0574
     47  CG         6.5270  -11.4230  -17.8540 C.ar  111  TYR111     -0.0198
     48  CD1        5.8000  -10.6540  -18.7590 C.ar  111  TYR111     -0.0009
     49  CD2        7.4170  -10.7660  -17.0100 C.ar  111  TYR111     -0.0009
     50  CE1        5.9110   -9.2610  -18.7780 C.ar  111  TYR111      0.0417
     51  CE2        7.5160   -9.3760  -17.0020 C.ar  111  TYR111      0.0417
     52  CZ         6.7550   -8.6250  -17.8800 C.ar  111  TYR111      0.1957
     53  OH         6.8970   -7.2520  -17.8970 O.3   111  TYR111     -0.2866
     54  N          6.1760  -15.7220  -17.6010 N.am  112  GLU112     -0.1963
     55  CA         6.3570  -17.1770  -17.4970 C.3   112  GLU112      0.1733
     56  C          7.4130  -17.5670  -16.4650 C.2   112  GLU112      0.2617
     57  O          7.6580  -18.7530  -16.2380 O.2   112  GLU112     -0.2715
     58  CB         6.7190  -17.7580  -18.8740 C.3   112  GLU112      0.0429
     59  CG         5.5910  -17.6050  -19.8740 C.3   112  GLU112      0.1163
     60  CD         4.2940  -18.2550  -19.4380 C.2   112  GLU112      0.3649
     61  OE1        3.3180  -17.5110  -19.1980 O.co2 112  GLU112     -0.2457
     62  OE2        4.2780  -19.4940  -19.2510 O.co2 112  GLU112     -0.2457
     63  N          8.0460  -16.5850  -15.8570 N.am  113  GLY113     -0.1940
     64  CA         9.0570  -16.8430  -14.8400 C.3   113  GLY113      0.2014
     65  C         10.4100  -16.3190  -15.2480 C.2   113  GLY113      0.2638
     66  O         10.5300  -15.5610  -16.2160 O.2   113  GLY113     -0.2714
     67  N         11.4350  -16.7550  -14.5240 N.am  114  ILE114     -0.1977
     68  CA        12.8130  -16.2850  -14.6530 C.3   114  ILE114      0.1596
     69  C         13.6150  -17.3010  -15.4560 C.2   114  ILE114      0.2287
     70  O         13.4770  -18.4860  -15.1890 O.2   114  ILE114     -0.2864
     71  CB        13.3950  -16.0870  -13.2170 C.3   114  ILE114      0.0276
     72  CG1       12.5640  -15.0230  -12.4140 C.3   114  ILE114      0.0022
     73  CG2       14.8920  -15.7280  -13.2630 C.3   114  ILE114      0.0022
     74  CD1       12.8970  -14.9320  -10.9450 C.3   114  ILE114      0.0001
     75  N         10.7910  -22.6370   -4.5740 N.3   131  VAL131     -0.1231
     76  CA         9.7760  -22.9860   -3.5920 C.3   131  VAL131      0.1692
     77  C          8.3780  -22.6030   -4.0270 C.2   131  VAL131      0.2593
     78  O          8.1550  -21.4830   -4.4720 O.2   131  VAL131     -0.2718
     79  CB        10.1400  -22.2380   -2.2500 C.3   131  VAL131      0.0266
     80  CG1        9.1300  -22.5410   -1.1500 C.3   131  VAL131      0.0020
     81  CG2       11.5520  -22.5530   -1.7810 C.3   131  VAL131      0.0020
     82  N          7.4180  -23.4890   -3.7890 N.am  132  SER132     -0.1938
     83  CA         5.9920  -23.2370   -4.0590 C.3   132  SER132      0.2055
     84  C          5.2860  -23.0590   -2.7640 C.2   132  SER132      0.2643
     85  O          5.5220  -23.8350   -1.8440 O.2   132  SER132     -0.2714
     86  CB         5.3480  -24.4240   -4.7780 C.3   132  SER132      0.2130
     87  OG         3.9710  -24.1330   -5.0030 O.3   132  SER132     -0.2179
     88  N          4.3150  -22.1140   -2.6890 N.am  133  ILE133     -0.1963
     89  CA         3.5760  -21.9730   -1.4390 C.3   133  ILE133      0.1727
     90  C          2.2930  -22.8490   -1.4930 C.2   133  ILE133      0.2616
     91  O          1.6020  -22.9700   -0.4950 O.2   133  ILE133     -0.2715
     92  CB         3.2630  -20.5130   -1.0570 C.3   133  ILE133      0.0290
     93  CG1        2.4310  -19.7940   -2.1310 C.3   133  ILE133      0.0022
     94  CG2        4.5610  -19.7470   -0.7080 C.3   133  ILE133      0.0023
     95  CD1        1.5680  -18.6680   -1.5450 C.3   133  ILE133      0.0001
     96  N          2.0450  -23.4560   -2.6310 N.am  134  GLY134     -0.1955
     97  CA         0.8980  -24.3590   -2.7930 C.3   134  GLY134      0.1869
     98  C          0.5950  -24.6960   -4.2260 C.2   134  GLY134      0.2309
     99  O          1.1980  -24.1360   -5.1410 O.2   134  GLY134     -0.2863
    100  N         -1.3440  -24.0550   -6.7680 N.3   136  TYR136     -0.1227
    101  CA        -2.1600  -23.0620   -7.4740 C.3   136  TYR136      0.1736
    102  C         -1.2250  -22.1510   -8.2120 C.2   136  TYR136      0.2595
    103  O         -0.0340  -22.1570   -7.9200 O.2   136  TYR136     -0.2718
    104  CB        -3.0920  -22.2710   -6.5170 C.3   136  TYR136      0.0548
    105  CG        -2.4880  -21.9880   -5.1640 C.ar  136  TYR136     -0.0200
    106  CD1       -1.6080  -20.9220   -4.9790 C.ar  136  TYR136     -0.0009
    107  CD2       -2.8270  -22.7570   -4.0490 C.ar  136  TYR136     -0.0009
    108  CE1       -1.0500  -20.6570   -3.7370 C.ar  136  TYR136      0.0417
    109  CE2       -2.2540  -22.5110   -2.7960 C.ar  136  TYR136      0.0417
    110  CZ        -1.3460  -21.4700   -2.6530 C.ar  136  TYR136      0.1957
    111  OH        -0.7870  -21.1690   -1.4340 O.3   136  TYR136     -0.2866
    112  N         -1.7200  -21.4530   -9.2380 N.am  137  VAL137     -0.1966
    113  CA        -0.8650  -20.5990  -10.0460 C.3   137  VAL137      0.1727
    114  C         -1.1810  -19.1490   -9.7920 C.2   137  VAL137      0.2616
    115  O         -2.3260  -18.7130   -9.9200 O.2   137  VAL137     -0.2715
    116  CB        -0.8950  -20.9560  -11.5500 C.3   137  VAL137      0.0290
    117  CG1        0.1890  -20.1960  -12.3030 C.3   137  VAL137      0.0023
    118  CG2       -0.7370  -22.4630  -11.7680 C.3   137  VAL137      0.0023
    119  N         -0.1670  -18.4130   -9.3540 N.am  138  LEU138     -0.1964
    120  CA        -0.3330  -17.0000   -9.0980 C.3   138  LEU138      0.1713
    121  C          0.1930  -16.2070  -10.2780 C.2   138  LEU138      0.2463
    122  O          1.0640  -16.7170  -11.0040 O.2   138  LEU138     -0.2730
    123  CB         0.4150  -16.6040   -7.8170 C.3   138  LEU138      0.0310
    124  CG        -0.0460  -17.3190   -6.5080 C.3   138  LEU138      0.0022
    125  CD1        0.9730  -17.1180   -5.4150 C.3   138  LEU138      0.0001
    126  CD2       -1.4330  -16.8530   -6.0700 C.3   138  LEU138      0.0001
    127  N         -0.2330  -14.9450  -10.4320 N.am  139  PRO139     -0.2641
    128  CA         0.2980  -14.1280  -11.5430 C.3   139  PRO139      0.1762
    129  C          1.7640  -13.7270  -11.3300 C.2   139  PRO139      0.2642
    130  O          2.4470  -13.4080  -12.2840 O.2   139  PRO139     -0.2712
    131  CB        -0.5930  -12.8860  -11.5510 C.2   139  PRO139     -0.0003
    132  CG        -1.4490  -12.9530  -10.3770 C.2   139  PRO139     -0.0071
    133  CD        -1.2780  -14.2280   -9.6660 C.3   139  PRO139      0.1204
    134  N          2.2230  -13.7440  -10.0820 N.am  140  GLY140     -0.1938
    135  CA         3.5790  -13.3320   -9.7570 C.3   140  GLY140      0.2014
    136  C          4.0310  -13.8610   -8.4180 C.2   140  GLY140      0.2639
    137  O          3.2260  -14.4220   -7.6780 O.2   140  GLY140     -0.2714
    138  N          5.3250  -13.7270   -8.1380 N.am  141  GLY141     -0.1954
    139  CA         5.8970  -14.2500   -6.9200 C.3   141  GLY141      0.1869
    140  C          5.7380  -13.3580   -5.7220 C.2   141  GLY141      0.2309
    141  O          6.1010  -13.7690   -4.6220 O.2   141  GLY141     -0.2863
    142  N          3.4340  -14.5980   -2.8670 N.3   144  ALA144     -0.1245
    143  CA         4.1200  -15.7910   -2.2970 C.3   144  ALA144      0.1562
    144  C          5.2310  -15.3700   -1.3310 C.2   144  ALA144      0.2260
    145  O          5.3100  -15.9100   -0.2160 O.2   144  ALA144     -0.2867
    146  CB         4.6740  -16.6640   -3.4240 C.3   144  ALA144      0.0290
@<TRIPOS>BOND
     1    59    60    1
     2    59    58    1
     3    60    62   ar
     4    60    61   ar
     5    58    55    1
     6    50    48   ar
     7    50    52   ar
     8    48    47   ar
     9    53    52    1
    10    52    51   ar
    11    47    46    1
    12    47    49   ar
    13    46    43    1
    14    54    55    1
    15    54    44   am
    16    55    56    1
    17    49    51   ar
    18    43    44    1
    19    43    42    1
    20    44    45    2
    21    56    57    2
    22    56    63   am
    23    66    65    2
    24    63    64    1
    25    42    33   am
    26    69    70    2
    27    69    68    1
    28    65    64    1
    29    65    67   am
    30    34    33    2
    31    33    32    1
    32    68    67    1
    33    68    71    1
    34    35    32    1
    35    35    36    1
    36    32    31    1
    37    73    71    1
    38    71    72    1
    39    31    29   am
    40    72    74    1
    41   117   116    1
    42   130   129    2
    43    36    37    1
    44    37    38    1
    45   118   116    1
    46   131   128    1
    47   131   132    2
    48   116   113    1
    49   128   129    1
    50   128   127    1
    51    29    28    1
    52    29    30    2
    53    40    39    1
    54   129   134   am
    55    26    23    1
    56   122   121    2
    57    28    27    1
    58    38    39    2
    59    20    21    1
    60    20    19    1
    61    39    41    1
    62   127   121   am
    63   127   133    1
    64   132   133    1
    65   121   120    1
    66    13    12    1
    67    21    15    1
    68   134   135    1
    69   113   114    1
    70   113   112    1
    71   115   114    2
    72   114   119   am
    73   135   136    1
    74    23    22    1
    75    23    24    1
    76    19    16    1
    77    22    17   am
    78   119   120    1
    79    12    14    1
    80    12     9    1
    81   112   102   am
    82   120   123    1
    83    15    16    1
    84    15    10   am
    85    17    16    1
    86    17    18    2
    87    25    24    2
    88     9    10    1
    89     9     8    1
    90   136   138   am
    91   136   137    2
    92   102   103    2
    93   102   101    1
    94     4     3    2
    95   138   139    1
    96    10    11    2
    97   123   124    1
    98   101   100    1
    99   101   104    1
   100     8     3   am
   101     3     2    1
   102   139   140    1
   103   104   105    1
   104   124   126    1
   105   124   125    1
   106     1     2    1
   107     1     7    1
   108     2     5    1
   109   140   141    2
   110     7     6    1
   111     5     6    1
   112   105   106   ar
   113   105   107   ar
   114    99    98    2
   115    87    86    1
   116   106   108   ar
   117    86    83    1
   118    75    76    1
   119    78    77    2
   120    98    97    1
   121    83    82    1
   122    83    84    1
   123   107   109   ar
   124    77    82   am
   125    77    76    1
   126   108   110   ar
   127    76    79    1
   128   146   143    1
   129   142   143    1
   130   109   110   ar
   131    97    96    1
   132    84    88   am
   133    84    85    2
   134    88    89    1
   135   110   111    1
   136    96    90   am
   137   143   144    1
   138    79    81    1
   139    79    80    1
   140    93    95    1
   141    93    92    1
   142    90    89    1
   143    90    91    2
   144    89    92    1
   145   144   145    2
   146    92    94    1
