@<TRIPOS>MOLECULE
tmp/5zhkA00.pdb
 148 147 0 0 0
SMALL
GASTEIGER

@<TRIPOS>ATOM
      1  N          4.1860  -20.0920  -25.0860 N.3    57  PRO57      -0.2116
      2  CA         3.4610  -18.8740  -24.6980 C.3    57  PRO57       0.1372
      3  C          4.2310  -18.1110  -23.6200 C.2    57  PRO57       0.2244
      4  O          5.0500  -18.7020  -22.9170 O.2    57  PRO57      -0.2868
      5  CB         2.1220  -19.4030  -24.1790 C.3    57  PRO57       0.0268
      6  CG         2.4070  -20.7800  -23.7090 C.3    57  PRO57       0.0207
      7  CD         3.5690  -21.3060  -24.5070 C.3    57  PRO57       0.0892
      8  N         10.6960  -17.9080   -5.5060 N.3    83  PRO83      -0.2102
      9  CA         9.3190  -18.4110   -5.4680 C.3    83  PRO83       0.1504
     10  C          8.9370  -18.8600   -6.8790 C.2    83  PRO83       0.2576
     11  O          9.1740  -18.1250   -7.8480 O.2    83  PRO83      -0.2718
     12  CB         8.5230  -17.1860   -5.0070 C.3    83  PRO83       0.0282
     13  CG         9.5610  -16.2430   -4.4140 C.3    83  PRO83       0.0208
     14  CD        10.7270  -16.4480   -5.2850 C.3    83  PRO83       0.0893
     15  N          8.3960  -20.0890   -7.0070 N.am   84  THR84      -0.1940
     16  CA         7.9950  -20.6520   -8.3020 C.3    84  THR84       0.2013
     17  C          7.0200  -21.8230   -8.1520 C.2    84  THR84       0.2484
     18  O          7.2210  -22.6180   -7.2290 O.2    84  THR84      -0.2729
     19  CB         9.2410  -21.0730   -9.1780 C.3    84  THR84       0.1807
     20  OG1        8.7880  -21.8500  -10.2930 O.3    84  THR84      -0.2208
     21  CG2       10.2980  -21.8620   -8.4130 C.3    84  THR84       0.0379
     22  N          6.0450  -22.0150   -9.1000 N.am   85  PRO85      -0.2726
     23  CA         5.1880  -23.2290   -9.0570 C.3    85  PRO85       0.1402
     24  C          5.9520  -24.5370   -9.3700 C.2    85  PRO85       0.2269
     25  O          5.3780  -25.6220   -9.3070 O.2    85  PRO85      -0.2865
     26  CB         4.1160  -22.9480  -10.1260 C.3    85  PRO85       0.0296
     27  CG         4.7530  -22.0230  -11.0710 C.3    85  PRO85       0.0237
     28  CD         5.7080  -21.1720  -10.2730 C.3    85  PRO85       0.0939
     29  N          9.6480  -13.5130   -9.5040 N.3   109  GLY109     -0.1210
     30  CA         9.4680  -13.6210  -10.9410 C.3   109  GLY109      0.1956
     31  C          8.0840  -13.2140  -11.4090 C.2   109  GLY109      0.2612
     32  O          7.1130  -13.2070  -10.6390 O.2   109  GLY109     -0.2717
     33  N          8.0200  -12.8250  -12.6740 N.am  110  ARG110     -0.1965
     34  CA         6.8200  -12.4480  -13.4010 C.3   110  ARG110      0.1729
     35  C          6.9000  -13.1440  -14.7610 C.2   110  ARG110      0.2616
     36  O          7.8920  -13.8400  -15.0200 O.2   110  ARG110     -0.2715
     37  CB         6.7090  -10.9190  -13.5430 C.3   110  ARG110      0.0348
     38  CG         6.1740  -10.2300  -12.2880 C.3   110  ARG110      0.0492
     39  CD         4.6680  -10.2570  -12.2120 C.3   110  ARG110      0.2205
     40  NE         4.1940  -10.0350  -10.8480 N.pl3 110  ARG110     -0.0865
     41  CZ         2.9300   -9.7880  -10.5290 C.cat 110  ARG110      0.5346
     42  NH1        2.0000   -9.7100  -11.4730 N.pl3 110  ARG110      0.1354
     43  NH2        2.5840   -9.6180   -9.2680 N.pl3 110  ARG110      0.1354
     44  N          5.8610  -12.9800  -15.6210 N.am  111  TYR111     -0.1960
     45  CA         5.7630  -13.6450  -16.9350 C.3   111  TYR111      0.1771
     46  C          5.7840  -15.1800  -16.7400 C.2   111  TYR111      0.2619
     47  O          5.1200  -15.6470  -15.8210 O.2   111  TYR111     -0.2715
     48  CB         6.8000  -13.1010  -17.9550 C.3   111  TYR111      0.0574
     49  CG         6.8890  -11.5910  -17.9350 C.ar  111  TYR111     -0.0198
     50  CD1        5.9380  -10.8080  -18.5880 C.ar  111  TYR111     -0.0009
     51  CD2        7.8820  -10.9400  -17.2050 C.ar  111  TYR111     -0.0009
     52  CE1        5.9930   -9.4130  -18.5420 C.ar  111  TYR111      0.0417
     53  CE2        7.9420   -9.5470  -17.1440 C.ar  111  TYR111      0.0417
     54  CZ         6.9970   -8.7870  -17.8170 C.ar  111  TYR111      0.1957
     55  OH         7.0600   -7.4160  -17.7670 O.3   111  TYR111     -0.2866
     56  N          6.5350  -15.9620  -17.5420 N.am  112  GLU112     -0.1963
     57  CA         6.5390  -17.4170  -17.3390 C.3   112  GLU112      0.1733
     58  C          7.6600  -17.8670  -16.3840 C.2   112  GLU112      0.2616
     59  O          7.8310  -19.0690  -16.1460 O.2   112  GLU112     -0.2715
     60  CB         6.5470  -18.2020  -18.6670 C.3   112  GLU112      0.0429
     61  CG         5.4060  -17.8560  -19.6210 C.3   112  GLU112      0.1163
     62  CD         3.9760  -17.8450  -19.0980 C.2   112  GLU112      0.3649
     63  OE1        3.4340  -18.9370  -18.8160 O.co2 112  GLU112     -0.2457
     64  OE2        3.3750  -16.7480  -19.0330 O.co2 112  GLU112     -0.2457
     65  N          8.3710  -16.8970  -15.8130 N.am  113  GLY113     -0.1955
     66  CA         9.4430  -17.1490  -14.8660 C.3   113  GLY113      0.1869
     67  C         10.7620  -16.5140  -15.2510 C.2   113  GLY113      0.2309
     68  O         10.8280  -15.7080  -16.1800 O.2   113  GLY113     -0.2863
     69  N         11.0130  -22.5050   -4.3240 N.3   131  VAL131     -0.1231
     70  CA         9.9350  -22.7870   -3.3840 C.3   131  VAL131      0.1692
     71  C          8.5720  -22.3460   -3.8830 C.2   131  VAL131      0.2593
     72  O          8.4320  -21.2270   -4.3410 O.2   131  VAL131     -0.2718
     73  CB        10.2840  -22.1560   -1.9940 C.3   131  VAL131      0.0266
     74  CG1        9.1130  -22.2200   -1.0270 C.3   131  VAL131      0.0020
     75  CG2       11.5170  -22.8110   -1.3740 C.3   131  VAL131      0.0020
     76  N          7.5750  -23.2260   -3.7290 N.am  132  SER132     -0.1938
     77  CA         6.1720  -23.0210   -4.0460 C.3   132  SER132      0.2055
     78  C          5.4190  -22.9410   -2.7490 C.2   132  SER132      0.2643
     79  O          5.7830  -23.6410   -1.8120 O.2   132  SER132     -0.2714
     80  CB         5.6240  -24.1970   -4.8400 C.3   132  SER132      0.2130
     81  OG         4.2690  -23.9580   -5.1760 O.3   132  SER132     -0.2179
     82  N          4.3690  -22.0990   -2.6850 N.am  133  ILE133     -0.1963
     83  CA         3.5310  -21.9650   -1.4780 C.3   133  ILE133      0.1727
     84  C          2.2900  -22.8910   -1.5180 C.2   133  ILE133      0.2616
     85  O          1.6410  -23.0930   -0.4860 O.2   133  ILE133     -0.2715
     86  CB         3.1550  -20.5080   -1.1340 C.3   133  ILE133      0.0290
     87  CG1        2.4390  -19.7900   -2.3030 C.3   133  ILE133      0.0022
     88  CG2        4.3850  -19.7480   -0.6410 C.3   133  ILE133      0.0023
     89  CD1        1.4710  -18.6380   -1.8410 C.3   133  ILE133      0.0001
     90  N          2.0070  -23.4640   -2.6870 N.am  134  GLY134     -0.1955
     91  CA         0.8730  -24.3590   -2.8450 C.3   134  GLY134      0.1869
     92  C          0.5110  -24.6350   -4.2830 C.2   134  GLY134      0.2309
     93  O          0.9820  -23.9530   -5.2000 O.2   134  GLY134     -0.2863
     94  N         -1.4570  -23.9800   -6.7970 N.3   136  TYR136     -0.1227
     95  CA        -2.2970  -23.0080   -7.5030 C.3   136  TYR136      0.1736
     96  C         -1.4030  -22.0640   -8.2640 C.2   136  TYR136      0.2595
     97  O         -0.2630  -21.9110   -7.8720 O.2   136  TYR136     -0.2718
     98  CB        -3.2170  -22.2520   -6.5240 C.3   136  TYR136      0.0548
     99  CG        -2.5700  -21.9780   -5.1850 C.ar  136  TYR136     -0.0200
    100  CD1       -1.7910  -20.8450   -4.9850 C.ar  136  TYR136     -0.0009
    101  CD2       -2.7600  -22.8410   -4.1070 C.ar  136  TYR136     -0.0009
    102  CE1       -1.1970  -20.5850   -3.7520 C.ar  136  TYR136      0.0417
    103  CE2       -2.1890  -22.5780   -2.8620 C.ar  136  TYR136      0.0417
    104  CZ        -1.3700  -21.4690   -2.7040 C.ar  136  TYR136      0.1957
    105  OH        -0.7950  -21.1870   -1.4930 O.3   136  TYR136     -0.2866
    106  N         -1.8980  -21.4480   -9.3540 N.am  137  VAL137     -0.1966
    107  CA        -1.1230  -20.5450  -10.2000 C.3   137  VAL137      0.1727
    108  C         -1.3950  -19.0840   -9.8420 C.2   137  VAL137      0.2616
    109  O         -2.5340  -18.6210   -9.9210 O.2   137  VAL137     -0.2715
    110  CB        -1.3290  -20.8310  -11.7180 C.3   137  VAL137      0.0290
    111  CG1       -0.3750  -19.9960  -12.5740 C.3   137  VAL137      0.0023
    112  CG2       -1.1480  -22.3120  -12.0320 C.3   137  VAL137      0.0023
    113  N         -0.3300  -18.3560   -9.4710 N.am  138  LEU138     -0.1964
    114  CA        -0.3870  -16.9400   -9.1280 C.3   138  LEU138      0.1713
    115  C          0.1450  -16.0930  -10.2970 C.2   138  LEU138      0.2458
    116  O          0.9250  -16.6160  -11.0930 O.2   138  LEU138     -0.2730
    117  CB         0.4480  -16.6960   -7.8680 C.3   138  LEU138      0.0310
    118  CG         0.0100  -17.4410   -6.5760 C.3   138  LEU138      0.0022
    119  CD1        1.0880  -17.3520   -5.5070 C.3   138  LEU138      0.0001
    120  CD2       -1.3020  -16.8980   -6.0330 C.3   138  LEU138      0.0001
    121  N         -0.2030  -14.7910  -10.4440 N.am  139  PRO139     -0.2716
    122  CA         0.3840  -14.0200  -11.5540 C.3   139  PRO139      0.1536
    123  C          1.8660  -13.6680  -11.3540 C.2   139  PRO139      0.2599
    124  O          2.5410  -13.3200  -12.3070 O.2   139  PRO139     -0.2715
    125  CB        -0.5240  -12.7860  -11.6780 C.3   139  PRO139      0.0310
    126  CG        -1.5530  -12.8870  -10.5950 C.3   139  PRO139      0.0237
    127  CD        -1.1040  -13.9480   -9.6310 C.3   139  PRO139      0.0939
    128  N          2.3580  -13.7830  -10.1290 N.am  140  GLY140     -0.1941
    129  CA         3.7450  -13.5020   -9.7760 C.3   140  GLY140      0.2014
    130  C          4.0930  -14.0060   -8.3930 C.2   140  GLY140      0.2639
    131  O          3.1930  -14.3980   -7.6410 O.2   140  GLY140     -0.2714
    132  N          5.3870  -13.9260   -8.0420 N.am  141  GLY141     -0.1954
    133  CA         5.9230  -14.3990   -6.7700 C.3   141  GLY141      0.1869
    134  C          5.8600  -13.4900   -5.5580 C.2   141  GLY141      0.2309
    135  O          6.2290  -13.9420   -4.4640 O.2   141  GLY141     -0.2863
    136  N          3.4150  -14.6100   -2.7700 N.3   144  ALA144     -0.1245
    137  CA         4.0030  -15.8160   -2.1750 C.3   144  ALA144      0.1562
    138  C          5.1480  -15.3980   -1.2250 C.2   144  ALA144      0.2260
    139  O          5.2620  -15.9510   -0.1300 O.2   144  ALA144     -0.2867
    140  CB         4.5070  -16.7530   -3.2580 C.3   144  ALA144      0.0290
    141  N          5.5230  -16.1690    2.7630 N.3   148  MET148     -0.1245
    142  CA         6.7460  -16.7690    3.3060 C.3   148  MET148      0.1570
    143  C          7.4350  -15.8770    4.3340 C.2   148  MET148      0.2261
    144  O          7.8520  -16.3740    5.3890 O.2   148  MET148     -0.2867
    145  CB         7.6970  -17.1960    2.1920 C.3   148  MET148      0.0387
    146  CG         7.1410  -18.3260    1.3350 C.3   148  MET148      0.0595
    147  SD         8.3480  -18.9010    0.1090 S.3   148  MET148     -0.1393
    148  CE         7.9890  -17.8920   -1.2470 C.3   148  MET148      0.0692
@<TRIPOS>BOND
     1     1     2    1
     2     1     7    1
     3     2     5    1
     4     2     3    1
     5     7     6    1
     6     5     6    1
     7     3     4    2
     8    61    62    1
     9    61    60    1
    10    62    64   ar
    11    62    63   ar
    12    60    57    1
    13    50    52   ar
    14    50    49   ar
    15    52    54   ar
    16    48    49    1
    17    48    45    1
    18    49    51   ar
    19    54    55    1
    20    54    53   ar
    21    56    57    1
    22    56    46   am
    23    57    58    1
    24    51    53   ar
    25    45    46    1
    26    45    44    1
    27    46    47    2
    28    58    59    2
    29    58    65   am
    30    68    67    2
    31    65    66    1
    32    44    35   am
    33    67    66    1
    34    36    35    2
    35    35    34    1
    36    37    34    1
    37    37    38    1
    38    34    33    1
    39    33    31   am
    40   111   110    1
    41   124   123    2
    42    38    39    1
    43    39    40    1
    44   112   110    1
    45   110   107    1
    46   125   122    1
    47   125   126    1
    48   122   123    1
    49   122   121    1
    50    42    41    1
    51    31    30    1
    52    31    32    2
    53   123   128   am
    54   116   115    2
    55    27    28    1
    56    27    26    1
    57    30    29    1
    58    40    41    2
    59   126   127    1
    60    41    43    1
    61   121   115   am
    62   121   127    1
    63   115   114    1
    64    20    19    1
    65    28    22    1
    66   107   108    1
    67   107   106    1
    68   128   129    1
    69    26    23    1
    70   109   108    2
    71   108   113   am
    72   129   130    1
    73   113   114    1
    74    24    25    2
    75    24    23    1
    76   106    96   am
    77    19    21    1
    78    19    16    1
    79   114   117    1
    80    22    23    1
    81    22    17   am
    82   130   132   am
    83   130   131    2
    84    16    17    1
    85    16    15    1
    86    96    97    2
    87    96    95    1
    88    17    18    2
    89   132   133    1
    90   117   118    1
    91    11    10    2
    92    95    94    1
    93    95    98    1
    94    15    10   am
    95    10     9    1
    96   133   134    1
    97   118   120    1
    98   118   119    1
    99    98    99    1
   100   134   135    2
   101     8     9    1
   102     8    14    1
   103     9    12    1
   104    14    13    1
   105    93    92    2
   106    99   100   ar
   107    99   101   ar
   108    81    80    1
   109    12    13    1
   110   100   102   ar
   111    80    77    1
   112    72    71    2
   113    69    70    1
   114    92    91    1
   115   101   103   ar
   116    77    76    1
   117    77    78    1
   118    71    76   am
   119    71    70    1
   120   102   104   ar
   121    70    73    1
   122   140   137    1
   123   103   104   ar
   124    91    90    1
   125   136   137    1
   126    78    82   am
   127    78    79    2
   128   104   105    1
   129    90    84   am
   130    82    83    1
   131    87    89    1
   132    87    86    1
   133   137   138    1
   134    73    75    1
   135    73    74    1
   136    84    83    1
   137    84    85    2
   138    83    86    1
   139   148   147    1
   140   138   139    2
   141    86    88    1
   142   147   146    1
   143   146   145    1
   144   145   142    1
   145   141   142    1
   146   142   143    1
   147   143   144    2
