@<TRIPOS>MOLECULE
tmp/5zhlA00.pdb
 144 144 0 0 0
SMALL
GASTEIGER

@<TRIPOS>ATOM
      1  N          4.4390  -19.9170  -24.6530 N.3    57  PRO57      -0.2102
      2  CA         3.6250  -18.7380  -24.3400 C.3    57  PRO57       0.1504
      3  C          4.4210  -17.7240  -23.5280 C.2    57  PRO57       0.2576
      4  O          5.3690  -18.0900  -22.8300 O.2    57  PRO57      -0.2718
      5  CB         2.4620  -19.3230  -23.5380 C.3    57  PRO57       0.0282
      6  CG         3.0420  -20.5310  -22.8510 C.3    57  PRO57       0.0208
      7  CD         4.2140  -21.0130  -23.6820 C.3    57  PRO57       0.0893
      8  N          4.0280  -16.4670  -23.6470 N.am   58  GLY58      -0.1957
      9  CA         4.5920  -15.3490  -22.9050 C.3    58  GLY58       0.1869
     10  C          6.0710  -15.0550  -23.0370 C.2    58  GLY58       0.2309
     11  O          6.6940  -15.2950  -24.0770 O.2    58  GLY58      -0.2863
     12  N         10.7740  -17.9450   -5.3250 N.3    83  PRO83      -0.2102
     13  CA         9.3880  -18.4450   -5.3130 C.3    83  PRO83       0.1504
     14  C          9.0480  -18.9020   -6.7350 C.2    83  PRO83       0.2576
     15  O          9.2940  -18.1690   -7.7000 O.2    83  PRO83      -0.2718
     16  CB         8.5760  -17.2360   -4.8820 C.3    83  PRO83       0.0282
     17  CG         9.6200  -16.2690   -4.2460 C.3    83  PRO83       0.0208
     18  CD        10.8080  -16.4890   -5.1300 C.3    83  PRO83       0.0893
     19  N          8.5620  -20.1370   -6.8730 N.am   84  THR84      -0.1940
     20  CA         8.2440  -20.7040   -8.1880 C.3    84  THR84       0.2013
     21  C          7.1920  -21.7840   -8.0790 C.2    84  THR84       0.2484
     22  O          7.2420  -22.5630   -7.1380 O.2    84  THR84      -0.2729
     23  CB         9.5300  -21.2170   -8.9610 C.3    84  THR84       0.1807
     24  OG1        9.1290  -22.1410   -9.9530 O.3    84  THR84      -0.2208
     25  CG2       10.5370  -21.9130   -8.0820 C.3    84  THR84       0.0379
     26  N          6.2820  -21.9110   -9.0650 N.am   85  PRO85      -0.2726
     27  CA         5.3060  -23.0200   -9.0130 C.3    85  PRO85       0.1402
     28  C          5.9610  -24.4060   -9.1880 C.2    85  PRO85       0.2269
     29  O          5.3360  -25.4190   -8.9230 O.2    85  PRO85      -0.2865
     30  CB         4.3500  -22.6900  -10.1650 C.3    85  PRO85       0.0296
     31  CG         5.2100  -21.9460  -11.1590 C.3    85  PRO85       0.0237
     32  CD         6.1090  -21.0910  -10.2880 C.3    85  PRO85       0.0939
     33  N          9.6280  -13.4960   -9.4390 N.3   109  GLY109     -0.1210
     34  CA         9.4430  -13.5250  -10.8770 C.3   109  GLY109      0.1956
     35  C          8.0510  -13.1270  -11.3220 C.2   109  GLY109      0.2612
     36  O          7.0870  -13.2430  -10.5640 O.2   109  GLY109     -0.2717
     37  N          7.9580  -12.6300  -12.5560 N.am  110  ARG110     -0.1965
     38  CA         6.7190  -12.2950  -13.2680 C.3   110  ARG110      0.1729
     39  C          6.8330  -12.9950  -14.6320 C.2   110  ARG110      0.2616
     40  O          7.8200  -13.7140  -14.8530 O.2   110  ARG110     -0.2715
     41  CB         6.5490  -10.7700  -13.4380 C.3   110  ARG110      0.0348
     42  CG         6.0020  -10.0820  -12.2080 C.3   110  ARG110      0.0492
     43  CD         4.5000  -10.1850  -12.0960 C.3   110  ARG110      0.2205
     44  NE         4.0800   -9.9620  -10.7180 N.pl3 110  ARG110     -0.0865
     45  CZ         2.8250   -9.7790  -10.3340 C.cat 110  ARG110      0.5346
     46  NH1        1.8430   -9.7940  -11.2260 N.pl3 110  ARG110      0.1354
     47  NH2        2.5400   -9.5770   -9.0560 N.pl3 110  ARG110      0.1354
     48  N          5.8570  -12.7770  -15.5460 N.am  111  TYR111     -0.1960
     49  CA         5.8210  -13.4050  -16.8850 C.3   111  TYR111      0.1771
     50  C          5.7640  -14.9490  -16.7390 C.2   111  TYR111      0.2619
     51  O          4.9280  -15.4400  -15.9850 O.2   111  TYR111     -0.2715
     52  CB         6.9820  -12.9070  -17.7860 C.3   111  TYR111      0.0574
     53  CG         7.1030  -11.4000  -17.8460 C.ar  111  TYR111     -0.0198
     54  CD1        6.2310  -10.6390  -18.6240 C.ar  111  TYR111     -0.0009
     55  CD2        8.0890  -10.7300  -17.1250 C.ar  111  TYR111     -0.0009
     56  CE1        6.3330   -9.2480  -18.6740 C.ar  111  TYR111      0.0417
     57  CE2        8.1870   -9.3390  -17.1510 C.ar  111  TYR111      0.0417
     58  CZ         7.3140   -8.6020  -17.9350 C.ar  111  TYR111      0.1957
     59  OH         7.4190   -7.2330  -17.9660 O.3   111  TYR111     -0.2866
     60  N          6.6670  -15.7070  -17.3930 N.am  112  GLU112     -0.1963
     61  CA         6.6760  -17.1670  -17.2540 C.3   112  GLU112      0.1733
     62  C          7.7760  -17.6590  -16.3010 C.2   112  GLU112      0.2616
     63  O          7.9640  -18.8580  -16.1220 O.2   112  GLU112     -0.2715
     64  CB         6.7370  -17.8680  -18.6280 C.3   112  GLU112      0.0429
     65  CG         5.5370  -17.5660  -19.5170 C.3   112  GLU112      0.1163
     66  CD         4.1930  -18.0430  -19.0050 C.2   112  GLU112      0.3649
     67  OE1        3.9850  -19.2760  -18.9670 O.co2 112  GLU112     -0.2457
     68  OE2        3.3390  -17.1890  -18.6720 O.co2 112  GLU112     -0.2457
     69  N          8.4540  -16.7180  -15.6590 N.am  113  GLY113     -0.1955
     70  CA         9.4960  -17.0210  -14.6930 C.3   113  GLY113      0.1869
     71  C         10.8270  -16.4430  -15.0910 C.2   113  GLY113      0.2309
     72  O         10.9100  -15.6390  -16.0170 O.2   113  GLY113     -0.2863
     73  N         10.9980  -22.5950   -4.2120 N.3   131  VAL131     -0.1231
     74  CA         9.8720  -22.8780   -3.3220 C.3   131  VAL131      0.1692
     75  C          8.4910  -22.4790   -3.8780 C.2   131  VAL131      0.2593
     76  O          8.2830  -21.3650   -4.3470 O.2   131  VAL131     -0.2718
     77  CB        10.1620  -22.2080   -1.9370 C.3   131  VAL131      0.0266
     78  CG1        9.0000  -22.3340   -0.9540 C.3   131  VAL131      0.0020
     79  CG2       11.4520  -22.7480   -1.2970 C.3   131  VAL131      0.0020
     80  N          7.5270  -23.3860   -3.7240 N.am  132  SER132     -0.1938
     81  CA         6.1380  -23.1410   -4.0690 C.3   132  SER132      0.2055
     82  C          5.3730  -22.9900   -2.7570 C.2   132  SER132      0.2643
     83  O          5.7070  -23.6730   -1.7950 O.2   132  SER132     -0.2714
     84  CB         5.5630  -24.3130   -4.8590 C.3   132  SER132      0.2130
     85  OG         4.1950  -24.0420   -5.1100 O.3   132  SER132     -0.2179
     86  N          4.3390  -22.1350   -2.7240 N.am  133  ILE133     -0.1963
     87  CA         3.5040  -21.9840   -1.5250 C.3   133  ILE133      0.1730
     88  C          2.2830  -22.9100   -1.6050 C.2   133  ILE133      0.2655
     89  O          1.5790  -23.0790   -0.6120 O.2   133  ILE133     -0.2711
     90  CB         3.1370  -20.5260   -1.1400 C.3   133  ILE133      0.0290
     91  CG1        2.4520  -19.7680   -2.3110 C.3   133  ILE133      0.0022
     92  CG2        4.3400  -19.7810   -0.5830 C.3   133  ILE133      0.0023
     93  CD1        1.4910  -18.6640   -1.8980 C.3   133  ILE133      0.0001
     94  N          2.0770  -23.5510   -2.7500 N.am  134  GLY134     -0.1730
     95  CA         0.9530  -24.4690   -2.9000 C.2   134  GLY134      0.1340
     96  C          0.5600  -24.7950   -4.3170 C.2   134  GLY134      0.2521
     97  O          0.9680  -24.1060   -5.2480 O.2   134  GLY134     -0.2816
     98  N         -1.5270  -24.2100   -6.7640 N.3   136  TYR136     -0.1227
     99  CA        -2.3680  -23.2220   -7.4400 C.3   136  TYR136      0.1736
    100  C         -1.4460  -22.2900   -8.1900 C.2   136  TYR136      0.2595
    101  O         -0.2770  -22.2050   -7.8430 O.2   136  TYR136     -0.2718
    102  CB        -3.2540  -22.4470   -6.4500 C.3   136  TYR136      0.0548
    103  CG        -2.5800  -22.1350   -5.1370 C.ar  136  TYR136     -0.0200
    104  CD1       -1.8170  -20.9800   -4.9790 C.ar  136  TYR136     -0.0009
    105  CD2       -2.7920  -22.9350   -4.0160 C.ar  136  TYR136     -0.0009
    106  CE1       -1.1730  -20.6980   -3.7710 C.ar  136  TYR136      0.0417
    107  CE2       -2.1720  -22.6520   -2.7960 C.ar  136  TYR136      0.0417
    108  CZ        -1.3690  -21.5260   -2.6780 C.ar  136  TYR136      0.1957
    109  OH        -0.7710  -21.2390   -1.4750 O.3   136  TYR136     -0.2866
    110  N         -1.9550  -21.6230   -9.2240 N.am  137  VAL137     -0.1966
    111  CA        -1.1700  -20.7330  -10.0870 C.3   137  VAL137      0.1727
    112  C         -1.4110  -19.2350   -9.7750 C.2   137  VAL137      0.2616
    113  O         -2.5550  -18.7620   -9.7670 O.2   137  VAL137     -0.2715
    114  CB        -1.4000  -21.0630  -11.5880 C.3   137  VAL137      0.0290
    115  CG1       -0.4490  -20.2570  -12.4760 C.3   137  VAL137      0.0023
    116  CG2       -1.2280  -22.5580  -11.8520 C.3   137  VAL137      0.0023
    117  N         -0.3130  -18.5140   -9.5140 N.am  138  LEU138     -0.1964
    118  CA        -0.3080  -17.1070   -9.1810 C.3   138  LEU138      0.1713
    119  C          0.2590  -16.2890  -10.3470 C.2   138  LEU138      0.2458
    120  O          1.0480  -16.8270  -11.1400 O.2   138  LEU138     -0.2730
    121  CB         0.5580  -16.8910   -7.9210 C.3   138  LEU138      0.0310
    122  CG         0.0930  -17.5830   -6.6370 C.3   138  LEU138      0.0022
    123  CD1        1.1520  -17.4730   -5.5670 C.3   138  LEU138      0.0001
    124  CD2       -1.2080  -17.0080   -6.1510 C.3   138  LEU138      0.0001
    125  N         -0.0850  -14.9870  -10.4610 N.am  139  PRO139     -0.2716
    126  CA         0.4890  -14.1880  -11.5550 C.3   139  PRO139      0.1536
    127  C          1.9740  -13.8450  -11.3700 C.2   139  PRO139      0.2599
    128  O          2.6520  -13.5600  -12.3480 O.2   139  PRO139     -0.2715
    129  CB        -0.4160  -12.9600  -11.6140 C.3   139  PRO139      0.0310
    130  CG        -0.9200  -12.8090  -10.2230 C.3   139  PRO139      0.0237
    131  CD        -1.0040  -14.1840   -9.6270 C.3   139  PRO139      0.0939
    132  N          2.4740  -13.9180  -10.1430 N.am  140  GLY140     -0.1941
    133  CA         3.8740  -13.6450   -9.8370 C.3   140  GLY140      0.2014
    134  C          4.2310  -14.0840   -8.4320 C.2   140  GLY140      0.2639
    135  O          3.3590  -14.5530   -7.6950 O.2   140  GLY140     -0.2714
    136  N          5.4920  -13.8930   -8.0440 N.am  141  GLY141     -0.1954
    137  CA         5.9470  -14.3680   -6.7470 C.3   141  GLY141      0.1869
    138  C          5.9360  -13.4220   -5.5630 C.2   141  GLY141      0.2309
    139  O          6.4500  -13.8040   -4.5050 O.2   141  GLY141     -0.2863
    140  N          3.4580  -14.5460   -2.7970 N.3   144  ALA144     -0.1245
    141  CA         4.0010  -15.7780   -2.2230 C.3   144  ALA144      0.1562
    142  C          5.1410  -15.3720   -1.2620 C.2   144  ALA144      0.2260
    143  O          5.2590  -15.9460   -0.1770 O.2   144  ALA144     -0.2867
    144  CB         4.5300  -16.6850   -3.3260 C.3   144  ALA144      0.0290
@<TRIPOS>BOND
     1     1     2    1
     2     1     7    1
     3     2     5    1
     4     2     3    1
     5    11    10    2
     6     7     6    1
     7     8     3   am
     8     8     9    1
     9     5     6    1
    10     3     4    2
    11    10     9    1
    12    65    66    1
    13    65    64    1
    14    66    67   ar
    15    66    68   ar
    16    56    54   ar
    17    56    58   ar
    18    64    61    1
    19    54    53   ar
    20    59    58    1
    21    58    57   ar
    22    53    52    1
    23    53    55   ar
    24    52    49    1
    25    60    61    1
    26    60    50   am
    27    61    62    1
    28    57    55   ar
    29    49    50    1
    30    49    48    1
    31    50    51    2
    32    62    63    2
    33    62    69   am
    34    72    71    2
    35    69    70    1
    36    48    39   am
    37    71    70    1
    38    40    39    2
    39    39    38    1
    40    41    38    1
    41    41    42    1
    42    38    37    1
    43    37    35   am
    44   115   114    1
    45   128   127    2
    46    42    43    1
    47    43    44    1
    48   116   114    1
    49   129   126    1
    50   129   130    1
    51   114   111    1
    52   126   127    1
    53   126   125    1
    54   127   132   am
    55    35    34    1
    56    35    36    2
    57    46    45    1
    58    31    32    1
    59    31    30    1
    60   120   119    2
    61    34    33    1
    62    44    45    2
    63   125   119   am
    64   125   131    1
    65   119   118    1
    66    45    47    1
    67    32    26    1
    68   130   131    1
    69    30    27    1
    70   132   133    1
    71   111   112    1
    72   111   110    1
    73    24    23    1
    74   133   134    1
    75   112   113    2
    76   112   117   am
    77   117   118    1
    78   110   100   am
    79    28    27    1
    80    28    29    2
    81   118   121    1
    82    26    27    1
    83    26    21   am
    84    23    20    1
    85    23    25    1
    86   134   136   am
    87   134   135    2
    88   100   101    2
    89   100    99    1
    90    20    21    1
    91    20    19    1
    92    21    22    2
    93   136   137    1
    94   121   122    1
    95    15    14    2
    96    99    98    1
    97    99   102    1
    98    19    14   am
    99   137   138    1
   100    14    13    1
   101   122   124    1
   102   122   123    1
   103   102   103    1
   104   138   139    2
   105    12    13    1
   106    12    18    1
   107    13    16    1
   108    97    96    2
   109   103   104   ar
   110   103   105   ar
   111    18    17    1
   112    85    84    1
   113   104   106   ar
   114    16    17    1
   115    84    81    1
   116    76    75    2
   117    96    95    1
   118    73    74    1
   119    81    80    1
   120    81    82    1
   121   105   107   ar
   122    75    80   am
   123    75    74    1
   124   106   108   ar
   125   144   141    1
   126    74    77    1
   127    95    94    2
   128   140   141    1
   129   107   108   ar
   130    82    86   am
   131    82    83    2
   132    94    88    1
   133    86    87    1
   134   108   109    1
   135    91    93    1
   136    91    90    1
   137   141   142    1
   138    77    79    1
   139    77    78    1
   140    88    87    1
   141    88    89    2
   142    87    90    1
   143   142   143    2
   144    90    92    1
