@<TRIPOS>MOLECULE
tmp/5zhmA00.pdb
 177 178 0 0 0
SMALL
GASTEIGER

@<TRIPOS>ATOM
      1  N         49.2310  127.9780   27.1670 N.3    60  PRO60      -0.2116
      2  CA        47.7930  127.8100   26.8780 C.3    60  PRO60       0.1372
      3  C         47.4080  126.3550   26.5860 C.2    60  PRO60       0.2244
      4  O         48.2790  125.5230   26.3050 O.2    60  PRO60      -0.2868
      5  CB        47.5600  128.7340   25.6750 C.3    60  PRO60       0.0268
      6  CG        48.8670  128.7930   24.9870 C.3    60  PRO60       0.0207
      7  CD        49.9360  128.6160   26.0340 C.3    60  PRO60       0.0892
      8  N         44.9190  122.6240   27.4810 N.3    62  MET62      -0.1245
      9  CA        44.7570  121.5610   28.4840 C.3    62  MET62       0.1570
     10  C         45.4390  120.2630   28.0170 C.2    62  MET62       0.2261
     11  O         45.8660  120.1770   26.8610 O.2    62  MET62      -0.2867
     12  CB        43.2620  121.3060   28.7950 C.3    62  MET62       0.0387
     13  CG        42.5230  122.5090   29.3740 C.3    62  MET62       0.0595
     14  SD        43.3880  123.3560   30.7290 S.3    62  MET62      -0.1393
     15  CE        42.1980  124.6440   31.1090 C.3    62  MET62       0.0692
     16  N         47.6610  105.3620   18.7270 N.3    89  TYR89      -0.1227
     17  CA        47.3110  106.7150   19.1250 C.3    89  TYR89       0.1736
     18  C         47.1480  107.5390   17.8160 C.2    89  TYR89       0.2595
     19  O         48.0980  107.6600   17.0380 O.2    89  TYR89      -0.2718
     20  CB        48.3550  107.3520   20.0860 C.3    89  TYR89       0.0548
     21  CG        48.0910  108.8100   20.4140 C.ar   89  TYR89      -0.0200
     22  CD1       46.8010  109.2620   20.7120 C.ar   89  TYR89      -0.0009
     23  CD2       49.1270  109.7300   20.4700 C.ar   89  TYR89      -0.0009
     24  CE1       46.5470  110.6070   20.9950 C.ar   89  TYR89       0.0417
     25  CE2       48.8880  111.0750   20.7830 C.ar   89  TYR89       0.0417
     26  CZ        47.5930  111.5130   21.0240 C.ar   89  TYR89       0.1957
     27  OH        47.3410  112.8450   21.2600 O.3    89  TYR89      -0.2866
     28  N         45.9120  108.0280   17.5480 N.am   90  LEU90      -0.1966
     29  CA        45.5960  108.8740   16.4090 C.3    90  LEU90       0.1728
     30  C         46.0820  110.2570   16.8340 C.2    90  LEU90       0.2617
     31  O         45.5770  110.7940   17.8130 O.2    90  LEU90      -0.2715
     32  CB        44.0790  108.8700   16.1430 C.3    90  LEU90       0.0311
     33  CG        43.4590  107.7110   15.3530 C.3    90  LEU90       0.0022
     34  CD1       44.1770  107.4500   14.0090 C.3    90  LEU90       0.0001
     35  CD2       43.3530  106.4610   16.1620 C.3    90  LEU90       0.0001
     36  N         47.1140  110.7950   16.1560 N.am   91  SER91      -0.1936
     37  CA        47.7600  112.0600   16.5120 C.3    91  SER91       0.2040
     38  C         48.2800  112.8020   15.2770 C.2    91  SER91       0.2485
     39  O         48.6670  112.1320   14.3230 O.2    91  SER91      -0.2729
     40  CB        48.9420  111.7430   17.4260 C.3    91  SER91       0.2129
     41  OG        49.9640  112.7270   17.4390 O.3    91  SER91      -0.2179
     42  N         48.3980  114.1560   15.2740 N.am   92  PRO92      -0.2715
     43  CA        48.9880  114.8320   14.0920 C.3    92  PRO92       0.1536
     44  C         50.4930  114.5610   14.0000 C.2    92  PRO92       0.2598
     45  O         51.0360  114.5100   12.8830 O.2    92  PRO92      -0.2715
     46  CB        48.7040  116.3300   14.3230 C.3    92  PRO92       0.0310
     47  CG        47.8010  116.4150   15.5300 C.3    92  PRO92       0.0237
     48  CD        47.9920  115.1310   16.3140 C.3    92  PRO92       0.0939
     49  N         51.1550  114.3440   15.1780 N.am   93  GLN93      -0.1978
     50  CA        52.5970  114.0620   15.3300 C.3    93  GLN93       0.1601
     51  C         53.0040  112.6250   14.9620 C.2    93  GLN93       0.2287
     52  O         54.1820  112.3000   15.0450 O.2    93  GLN93      -0.2864
     53  CB        53.0920  114.4170   16.7440 C.3    93  GLN93       0.0394
     54  CG        53.1170  115.9220   17.0230 C.3    93  GLN93       0.0908
     55  CD        52.3020  116.2690   18.2320 C.2    93  GLN93       0.2608
     56  OE1       51.3050  116.9980   18.1520 O.2    93  GLN93      -0.2717
     57  NE2       52.7040  115.7470   19.3820 N.am   93  GLN93      -0.0878
     58  N         42.2170  111.5030   20.7870 N.3   116  GLY116     -0.1210
     59  CA        42.3540  112.6140   21.7330 C.3   116  GLY116      0.1956
     60  C         41.6360  113.8310   21.2100 C.2   116  GLY116      0.2612
     61  O         41.2290  113.8300   20.0470 O.2   116  GLY116     -0.2717
     62  N         41.4390  114.8690   22.0340 N.am  117  ARG117     -0.1965
     63  CA        40.7540  116.0680   21.5250 C.3   117  ARG117      0.1729
     64  C         41.7650  117.1330   21.1300 C.2   117  ARG117      0.2616
     65  O         42.8660  116.7550   20.7260 O.2   117  ARG117     -0.2715
     66  CB        39.6720  116.5620   22.4790 C.3   117  ARG117      0.0348
     67  CG        38.4820  115.5900   22.5970 C.3   117  ARG117      0.0492
     68  CD        37.6610  115.4320   21.3170 C.3   117  ARG117      0.2205
     69  NE        37.0110  116.6800   20.8960 N.pl3 117  ARG117     -0.0865
     70  CZ        36.5820  116.9150   19.6570 C.cat 117  ARG117      0.5346
     71  NH1       36.7420  116.0060   18.7080 N.pl3 117  ARG117      0.1354
     72  NH2       35.9980  118.0670   19.3570 N.pl3 117  ARG117      0.1354
     73  N         41.4390  118.4350   21.1770 N.am  118  TYR118     -0.1960
     74  CA        42.4700  119.4220   20.7970 C.3   118  TYR118      0.1771
     75  C         43.6020  119.4940   21.8530 C.2   118  TYR118      0.2619
     76  O         44.7210  119.9070   21.5610 O.2   118  TYR118     -0.2715
     77  CB        41.8850  120.8030   20.4580 C.3   118  TYR118      0.0574
     78  CG        42.8810  121.7070   19.7660 C.ar  118  TYR118     -0.0198
     79  CD1       43.3400  122.8670   20.3760 C.ar  118  TYR118     -0.0009
     80  CD2       43.4050  121.3740   18.5230 C.ar  118  TYR118     -0.0009
     81  CE1       44.2670  123.6970   19.7500 C.ar  118  TYR118      0.0417
     82  CE2       44.3420  122.1870   17.8930 C.ar  118  TYR118      0.0417
     83  CZ        44.7710  123.3500   18.5080 C.ar  118  TYR118      0.1957
     84  OH        45.7010  124.1500   17.8820 O.3   118  TYR118     -0.2866
     85  N         43.3030  119.0090   23.0560 N.am  119  GLU119     -0.1963
     86  CA        44.2140  118.8770   24.1730 C.3   119  GLU119      0.1733
     87  C         45.2570  117.8060   23.8320 C.2   119  GLU119      0.2616
     88  O         44.9760  116.8800   23.0670 O.2   119  GLU119     -0.2715
     89  CB        43.4070  118.4480   25.4280 C.3   119  GLU119      0.0429
     90  CG        42.4480  117.2680   25.2310 C.3   119  GLU119      0.1163
     91  CD        41.1190  117.2800   25.9800 C.2   119  GLU119      0.3649
     92  OE1       40.4670  116.2100   26.0390 O.co2 119  GLU119     -0.2457
     93  OE2       40.7040  118.3570   26.4710 O.co2 119  GLU119     -0.2457
     94  N         46.4260  117.8980   24.4420 N.am  120  GLY120     -0.1955
     95  CA        47.4390  116.8710   24.2700 C.3   120  GLY120      0.1869
     96  C         47.1300  115.6560   25.1290 C.2   120  GLY120      0.2309
     97  O         46.0570  115.5500   25.7280 O.2   120  GLY120     -0.2863
     98  N         49.7130  107.3200   14.4690 N.3   134  TRP134     -0.1227
     99  CA        49.3590  107.6270   13.0780 C.3   134  TRP134      0.1737
    100  C         48.6100  108.9300   12.9220 C.2   134  TRP134      0.2596
    101  O         47.7950  109.2950   13.7510 O.2   134  TRP134     -0.2718
    102  CB        48.5240  106.5060   12.4720 C.3   134  TRP134      0.0564
    103  CG        49.1850  105.1570   12.4450 C.ar  134  TRP134      0.0003
    104  CD1       49.0970  104.1930   13.4000 C.ar  134  TRP134      0.0946
    105  CD2       49.9070  104.5690   11.3570 C.ar  134  TRP134      0.0152
    106  NE1       49.7280  103.0460   12.9820 N.ar  134  TRP134     -0.2442
    107  CE2       50.2140  103.2400   11.7220 C.ar  134  TRP134      0.0810
    108  CE3       50.2830  105.0180   10.0840 C.ar  134  TRP134      0.0012
    109  CZ2       50.9240  102.3740   10.8870 C.ar  134  TRP134      0.0191
    110  CZ3       50.9660  104.1490    9.2440 C.ar  134  TRP134      0.0001
    111  CH2       51.2830  102.8450    9.6500 C.ar  134  TRP134      0.0015
    112  N         48.8990  109.6240   11.8430 N.am  135  SER135     -0.1938
    113  CA        48.2640  110.8680   11.3850 C.3   135  SER135      0.2055
    114  C         47.5480  110.5070   10.0890 C.2   135  SER135      0.2643
    115  O         48.0000  109.6050    9.3550 O.2   135  SER135     -0.2714
    116  CB        49.3290  111.9170   11.0710 C.3   135  SER135      0.2130
    117  OG        48.7690  113.1940   10.8390 O.3   135  SER135     -0.2179
    118  N         46.4410  111.1930    9.7930 N.am  136  ILE136     -0.1963
    119  CA        45.7250  110.9300    8.5290 C.3   136  ILE136      0.1727
    120  C         46.1430  111.9430    7.4390 C.2   136  ILE136      0.2616
    121  O         45.7630  111.7410    6.2770 O.2   136  ILE136     -0.2715
    122  CB        44.1900  110.7730    8.6820 C.3   136  ILE136      0.0290
    123  CG1       43.5280  112.0470    9.2690 C.3   136  ILE136      0.0022
    124  CG2       43.8780  109.5080    9.4860 C.3   136  ILE136      0.0023
    125  CD1       42.0630  112.3030    8.8160 C.3   136  ILE136      0.0001
    126  N         46.9420  112.9770    7.8110 N.am  137  GLY137     -0.1955
    127  CA        47.4550  113.9870    6.8890 C.3   137  GLY137      0.1869
    128  C         47.8880  115.2830    7.5400 C.2   137  GLY137      0.2309
    129  O         47.4920  115.5780    8.6640 O.2   137  GLY137     -0.2863
    130  N         47.1140  118.3950    8.0940 N.3   139  TYR139     -0.1227
    131  CA        46.0610  119.4010    8.3180 C.3   139  TYR139      0.1736
    132  C         45.6110  119.2680    9.7540 C.2   139  TYR139      0.2595
    133  O         45.7660  118.1820   10.3430 O.2   139  TYR139     -0.2718
    134  CB        44.8580  119.2370    7.3400 C.3   139  TYR139      0.0548
    135  CG        44.5160  117.8000    7.0380 C.ar  139  TYR139     -0.0200
    136  CD1       43.7260  117.0500    7.9080 C.ar  139  TYR139     -0.0009
    137  CD2       45.0220  117.1710    5.9090 C.ar  139  TYR139     -0.0009
    138  CE1       43.4490  115.7080    7.6560 C.ar  139  TYR139      0.0417
    139  CE2       44.7160  115.8470    5.6250 C.ar  139  TYR139      0.0417
    140  CZ        43.9530  115.1130    6.5130 C.ar  139  TYR139      0.1957
    141  OH        43.6790  113.8040    6.2220 O.3   139  TYR139     -0.2866
    142  N         45.0950  120.3690   10.3420 N.am  140  VAL140     -0.1966
    143  CA        44.6890  120.3560   11.7560 C.3   140  VAL140      0.1727
    144  C         43.1870  120.1190   11.9260 C.2   140  VAL140      0.2616
    145  O         42.3580  120.8930   11.4260 O.2   140  VAL140     -0.2715
    146  CB        45.1750  121.6080   12.5670 C.3   140  VAL140      0.0290
    147  CG1       44.7080  121.5530   14.0300 C.3   140  VAL140      0.0023
    148  CG2       46.6850  121.7460   12.5270 C.3   140  VAL140      0.0023
    149  N         42.8680  119.0540   12.6520 N.am  141  LEU141     -0.1963
    150  CA        41.5100  118.6860   12.9930 C.3   141  LEU141      0.1728
    151  C         41.3410  119.0150   14.4880 C.2   141  LEU141      0.2617
    152  O         42.3370  119.2880   15.1840 O.2   141  LEU141     -0.2715
    153  CB        41.2750  117.1760   12.7250 C.3   141  LEU141      0.0311
    154  CG        41.4890  116.7190   11.2890 C.3   141  LEU141      0.0022
    155  CD1       41.3090  115.2560   11.1650 C.3   141  LEU141      0.0001
    156  CD2       40.5290  117.4110   10.3300 C.3   141  LEU141      0.0001
    157  N         40.0840  119.0230   14.9700 N.am  142  SER142     -0.1936
    158  CA        39.7480  119.2960   16.3580 C.3   142  SER142      0.2055
    159  C         40.0310  118.0900   17.2520 C.2   142  SER142      0.2644
    160  O         40.2260  118.2880   18.4620 O.2   142  SER142     -0.2714
    161  CB        38.2760  119.6930   16.4760 C.3   142  SER142      0.2130
    162  OG        38.0020  120.8910   15.7680 O.3   142  SER142     -0.2179
    163  N         40.0260  116.8740   16.6780 N.am  143  GLY143     -0.1939
    164  CA        40.2030  115.6480   17.4590 C.3   143  GLY143      0.2014
    165  C         40.4660  114.4170   16.6400 C.2   143  GLY143      0.2639
    166  O         40.4270  114.4910   15.4130 O.2   143  GLY143     -0.2714
    167  N         40.7240  113.2890   17.3220 N.am  144  GLY144     -0.1954
    168  CA        41.0700  112.0100   16.7000 C.3   144  GLY144      0.1869
    169  C         39.9590  111.0390   16.3760 C.2   144  GLY144      0.2309
    170  O         40.2490  109.9240   15.9350 O.2   144  GLY144     -0.2863
    171  N         39.7700  110.8500   12.3840 N.3   147  PRO147     -0.2116
    172  CA        40.8950  109.9820   11.9850 C.3   147  PRO147      0.1372
    173  C         40.7230  108.5280   12.4120 C.2   147  PRO147      0.2244
    174  O         41.0030  107.6310   11.6060 O.2   147  PRO147     -0.2868
    175  CB        42.0920  110.6460   12.6240 C.3   147  PRO147      0.0268
    176  CG        41.6970  112.0910   12.7270 C.3   147  PRO147      0.0207
    177  CD        40.2740  112.0260   13.1330 C.3   147  PRO147      0.0892
@<TRIPOS>BOND
     1   139   137   ar
     2   139   140   ar
     3   137   135   ar
     4   141   140    1
     5   121   120    2
     6   140   138   ar
     7   127   128    1
     8   127   126    1
     9   135   134    1
    10   135   136   ar
    11   134   131    1
    12   120   126   am
    13   120   119    1
    14   128   129    2
    15   138   136   ar
    16   130   131    1
    17   131   132    1
    18   119   122    1
    19   119   118    1
    20   122   123    1
    21   122   124    1
    22   125   123    1
    23   110   111   ar
    24   110   108   ar
    25   115   114    2
    26   111   109   ar
    27   132   142   am
    28   132   133    2
    29   118   114   am
    30   108   105   ar
    31   114   113    1
    32   156   154    1
    33   142   143    1
    34   117   116    1
    35   109   107   ar
    36   116   113    1
    37   155   154    1
    38   154   153    1
    39   105   107   ar
    40   105   103   ar
    41   113   112    1
    42   145   144    2
    43   174   173    2
    44   107   106   ar
    45   143   144    1
    46   143   146    1
    47   112   100   am
    48   144   149   am
    49   172   171    1
    50   172   173    1
    51   172   175    1
    52   171   177    1
    53   103   102    1
    54   103   104   ar
    55   102    99    1
    56   148   146    1
    57   146   147    1
    58   175   176    1
    59   149   150    1
    60   153   150    1
    61   176   177    1
    62    45    44    2
    63   100    99    1
    64   100   101    2
    65   106   104   ar
    66   150   151    1
    67    99    98    1
    68    44    43    1
    69    44    49   am
    70    34    33    1
    71    43    46    1
    72    43    42    1
    73    46    47    1
    74    39    38    2
    75   151   157   am
    76   151   152    2
    77    51    52    2
    78    51    50    1
    79   157   158    1
    80    49    50    1
    81    42    38   am
    82    42    48    1
    83    38    37    1
    84    50    53    1
    85    33    32    1
    86    33    35    1
    87   166   165    2
    88    47    48    1
    89   162   161    1
    90   170   169    2
    91    32    29    1
    92    36    37    1
    93    36    30   am
    94   158   161    1
    95   158   159    1
    96   169   168    1
    97    29    30    1
    98    29    28    1
    99    37    40    1
   100   165   167   am
   101   165   164    1
   102   163   159   am
   103   163   164    1
   104   168   167    1
   105    53    54    1
   106    30    31    2
   107    54    55    1
   108    19    18    2
   109   159   160    2
   110    40    41    1
   111    28    18   am
   112    18    17    1
   113    84    83    1
   114    82    83   ar
   115    82    80   ar
   116    56    55    2
   117    55    57   am
   118    83    81   ar
   119    80    78   ar
   120    71    70    1
   121    16    17    1
   122    17    20    1
   123    72    70    1
   124    70    69    2
   125    81    79   ar
   126    78    79   ar
   127    78    77    1
   128    61    60    2
   129    20    21    1
   130    21    23   ar
   131    21    22   ar
   132    77    74    1
   133    23    25   ar
   134    22    24   ar
   135    65    64    2
   136    25    26   ar
   137    58    59    1
   138    74    73    1
   139    74    75    1
   140    69    68    1
   141    24    26   ar
   142    26    27    1
   143    64    73   am
   144    64    63    1
   145    60    59    1
   146    60    62   am
   147    68    67    1
   148    63    62    1
   149    63    66    1
   150    76    75    2
   151    75    85   am
   152    66    67    1
   153    85    86    1
   154    88    87    2
   155    87    86    1
   156    87    94   am
   157    86    89    1
   158    95    94    1
   159    95    96    1
   160     6     5    1
   161     6     7    1
   162    96    97    2
   163    90    89    1
   164    90    91    1
   165     5     2    1
   166    91    92   ar
   167    91    93   ar
   168     7     1    1
   169     4     3    2
   170     3     2    1
   171    11    10    2
   172     2     1    1
   173     8     9    1
   174    10     9    1
   175     9    12    1
   176    12    13    1
   177    13    14    1
   178    14    15    1
