@<TRIPOS>MOLECULE
tmp/5zhoA00.pdb
 87 86 0 0 0
SMALL
GASTEIGER

@<TRIPOS>ATOM
      1  N         79.1520   78.4120  236.1850 N.3    45  SER45      -0.1202
      2  CA        79.6010   77.0810  236.5730 C.3    45  SER45       0.2020
      3  C         81.1150   76.9230  236.5020 C.2    45  SER45       0.2619
      4  O         81.6500   75.9670  237.0740 O.2    45  SER45      -0.2717
      5  CB        78.9340   76.0370  235.6820 C.3    45  SER45       0.2103
      6  OG        79.3640   76.1690  234.3380 O.3    45  SER45      -0.2182
      7  N         81.8210   77.8330  235.8410 N.am   46  ASN46      -0.1960
      8  CA        83.2740   77.7490  235.7970 C.3    46  ASN46       0.1819
      9  C         83.9320   78.1760  237.0970 C.2    46  ASN46       0.2621
     10  O         85.1130   77.8800  237.3020 O.2    46  ASN46      -0.2715
     11  CB        83.8100   78.6310  234.6760 C.3    46  ASN46       0.1195
     12  CG        83.4320   78.1230  233.3140 C.2    46  ASN46       0.2630
     13  OD1       83.4500   76.9180  233.0610 O.2    46  ASN46      -0.2716
     14  ND2       83.0790   79.0360  232.4240 N.am   46  ASN46      -0.0877
     15  N         83.2050   78.8610  237.9670 N.am   47  LEU47      -0.1963
     16  CA        83.7720   79.4470  239.1710 C.3    47  LEU47       0.1728
     17  C         83.2460   78.7440  240.4140 C.2    47  LEU47       0.2616
     18  O         82.0880   78.3300  240.4650 O.2    47  LEU47      -0.2715
     19  CB        83.3990   80.9300  239.2570 C.3    47  LEU47       0.0311
     20  CG        83.7560   81.7730  238.0200 C.3    47  LEU47       0.0022
     21  CD1       83.4660   83.2460  238.2420 C.3    47  LEU47       0.0001
     22  CD2       85.2070   81.5770  237.6240 C.3    47  LEU47       0.0001
     23  N         84.1020   78.6450  241.4260 N.am   48  ALA48      -0.1977
     24  CA        83.6630   78.2360  242.7480 C.3    48  ALA48       0.1597
     25  C         82.8210   79.3380  243.3810 C.2    48  ALA48       0.2287
     26  O         83.0290   80.5300  243.1330 O.2    48  ALA48      -0.2864
     27  CB        84.8790   77.9670  243.6350 C.3    48  ALA48       0.0319
     28  N         79.5920   75.2320  245.4860 N.3    88  ASN88      -0.1225
     29  CA        80.2080   74.4860  244.4000 C.3    88  ASN88       0.1785
     30  C         81.6840   74.8440  244.3480 C.2    88  ASN88       0.2597
     31  O         82.0690   75.9840  244.6220 O.2    88  ASN88      -0.2718
     32  CB        79.5370   74.7540  243.0420 C.3    88  ASN88       0.1169
     33  CG        79.9930   76.0470  242.4030 C.2    88  ASN88       0.2627
     34  OD1       79.4610   77.1160  242.6820 O.2    88  ASN88      -0.2716
     35  ND2       80.9770   75.9500  241.5120 N.am   88  ASN88      -0.0877
     36  N         82.5020   73.8520  244.0080 N.am   89  GLU89      -0.1965
     37  CA        83.9400   74.0310  243.8770 C.3    89  GLU89       0.1733
     38  C         84.4890   72.8230  243.1420 C.2    89  GLU89       0.2616
     39  O         83.9850   71.7120  243.3160 O.2    89  GLU89      -0.2715
     40  CB        84.5890   74.1450  245.2620 C.3    89  GLU89       0.0429
     41  CG        86.0630   74.4420  245.2400 C.3    89  GLU89       0.1163
     42  CD        86.9290   73.2070  245.1590 C.2    89  GLU89       0.3649
     43  OE1       86.4920   72.1440  245.6360 O.co2  89  GLU89      -0.2457
     44  OE2       88.0590   73.3070  244.6260 O.co2  89  GLU89      -0.2457
     45  N         85.5150   73.0480  242.3270 N.am   90  GLY90      -0.1955
     46  CA        86.1370   71.9510  241.6060 C.3    90  GLY90       0.1869
     47  C         85.1080   71.2230  240.7650 C.2    90  GLY90       0.2309
     48  O         84.3210   71.8350  240.0350 O.2    90  GLY90      -0.2863
     49  N         88.8100   77.8970  246.6860 N.3   143  PRO143     -0.2102
     50  CA        89.5940   78.9760  246.0940 C.3   143  PRO143      0.1504
     51  C         88.7040   80.1920  245.9450 C.2   143  PRO143      0.2576
     52  O         87.4790   80.0870  245.8620 O.2   143  PRO143     -0.2718
     53  CB        89.9660   78.4120  244.7230 C.3   143  PRO143      0.0282
     54  CG        88.7730   77.5760  244.3590 C.3   143  PRO143      0.0208
     55  CD        88.2390   77.0080  245.6540 C.3   143  PRO143      0.0893
     56  N         89.3260   81.3620  245.9060 N.am  144  ARG144     -0.1966
     57  CA        88.5700   82.5580  245.5880 C.3   144  ARG144      0.1729
     58  C         87.8660   82.3690  244.2470 C.2   144  ARG144      0.2617
     59  O         88.4330   81.8370  243.2890 O.2   144  ARG144     -0.2715
     60  CB        89.5010   83.7650  245.5420 C.3   144  ARG144      0.0348
     61  CG        88.7800   85.0960  245.6220 C.3   144  ARG144      0.0492
     62  CD        89.7460   86.2510  245.5360 C.3   144  ARG144      0.2205
     63  NE        89.0900   87.5310  245.7700 N.pl3 144  ARG144     -0.0865
     64  CZ        89.7060   88.7080  245.7280 C.cat 144  ARG144      0.5346
     65  NH1       90.9950   88.7690  245.4430 N.pl3 144  ARG144      0.1354
     66  NH2       89.0320   89.8250  245.9560 N.pl3 144  ARG144      0.1354
     67  N         86.5980   82.7730  244.1980 N.am  145  SER145     -0.1936
     68  CA        85.7800   82.5600  243.0050 C.3   145  SER145      0.2055
     69  C         86.5050   83.0620  241.7660 C.2   145  SER145      0.2643
     70  O         86.5760   82.3710  240.7440 O.2   145  SER145     -0.2714
     71  CB        84.4420   83.2790  243.1860 C.3   145  SER145      0.2130
     72  OG        83.5730   83.0410  242.0940 O.3   145  SER145     -0.2179
     73  N         87.0480   84.2640  241.8450 N.am  146  ASN146     -0.1958
     74  CA        87.9910   84.7660  240.8620 C.3   146  ASN146      0.1804
     75  C         88.5860   86.0450  241.4270 C.2   146  ASN146      0.2463
     76  O         88.0900   86.5680  242.4350 O.2   146  ASN146     -0.2730
     77  CB        87.2880   85.0200  239.5290 C.3   146  ASN146      0.1195
     78  CG        87.9020   84.2440  238.3780 C.2   146  ASN146      0.2630
     79  OD1       88.7570   83.3730  238.5650 O.2   146  ASN146     -0.2716
     80  ND2       87.4530   84.5520  237.1730 N.am  146  ASN146     -0.0877
     81  N         89.6460   86.5740  240.8270 N.am  147  PRO147     -0.2727
     82  CA        90.2120   87.8290  241.3230 C.3   147  PRO147      0.1402
     83  C         89.1460   88.9110  241.4050 C.2   147  PRO147      0.2269
     84  O         88.2800   89.0300  240.5350 O.2   147  PRO147     -0.2865
     85  CB        91.2880   88.1620  240.2850 C.3   147  PRO147      0.0296
     86  CG        91.7060   86.8270  239.7640 C.3   147  PRO147      0.0237
     87  CD        90.4450   86.0040  239.7290 C.3   147  PRO147      0.0939
@<TRIPOS>BOND
     1    14    12   am
     2    13    12    2
     3    12    11    1
     4     6     5    1
     5    11     8    1
     6     5     2    1
     7     8     7    1
     8     8     9    1
     9     7     3   am
    10     1     2    1
    11     3     2    1
    12     3     4    2
    13     9    10    2
    14     9    15   am
    15    80    78   am
    16    22    20    1
    17    15    16    1
    18    20    21    1
    19    20    19    1
    20    78    79    2
    21    78    77    1
    22    16    19    1
    23    16    17    1
    24    77    74    1
    25    87    86    1
    26    87    81    1
    27    86    85    1
    28    48    47    2
    29    85    82    1
    30    17    18    2
    31    17    23   am
    32    84    83    2
    33    70    69    2
    34    47    46    1
    35    81    82    1
    36    81    75   am
    37    74    75    1
    38    74    73    1
    39    82    83    1
    40    23    24    1
    41    75    76    2
    42    35    33   am
    43    46    45    1
    44    69    73   am
    45    69    68    1
    46    72    71    1
    47    45    38   am
    48    33    34    2
    49    33    32    1
    50    24    25    1
    51    24    27    1
    52    68    71    1
    53    68    67    1
    54    32    29    1
    55    26    25    2
    56    38    39    2
    57    38    37    1
    58    59    58    2
    59    37    36    1
    60    37    40    1
    61    36    30   am
    62    67    58   am
    63    58    57    1
    64    30    29    1
    65    30    31    2
    66    54    53    1
    67    54    55    1
    68    29    28    1
    69    44    42   ar
    70    53    50    1
    71    42    41    1
    72    42    43   ar
    73    41    40    1
    74    65    64    1
    75    62    61    1
    76    62    63    1
    77    60    57    1
    78    60    61    1
    79    57    56    1
    80    55    49    1
    81    64    63    2
    82    64    66    1
    83    52    51    2
    84    56    51   am
    85    51    50    1
    86    50    49    1
