@<TRIPOS>MOLECULE
tmp/5zhpB00.pdb
 169 165 0 0 0
SMALL
GASTEIGER

@<TRIPOS>ATOM
      1  N         10.3880  -52.2990  234.5490 N.3    85  ASP85      -0.1225
      2  CA        10.5640  -50.8740  234.2950 C.3    85  ASP85       0.1805
      3  C         11.7720  -50.3170  235.0400 C.2    85  ASP85       0.2597
      4  O         12.5640  -49.5550  234.4720 O.2    85  ASP85      -0.2718
      5  CB         9.2920  -50.1210  234.6890 C.3    85  ASP85       0.1424
      6  CG         8.9550  -49.0010  233.7270 C.2    85  ASP85       0.3668
      7  OD1        9.8860  -48.4470  233.1090 O.co2  85  ASP85      -0.2456
      8  OD2        7.7560  -48.6770  233.5890 O.co2  85  ASP85      -0.2456
      9  N         11.9350  -50.6860  236.3100 N.am   86  TYR86      -0.1976
     10  CA        12.9730  -50.0880  237.1420 C.3    86  TYR86       0.1639
     11  C         14.3170  -50.7930  237.0130 C.2    86  TYR86       0.2290
     12  O         15.3590  -50.1280  236.9850 O.2    86  TYR86      -0.2864
     13  CB        12.5200  -50.0660  238.6060 C.3    86  TYR86       0.0560
     14  CG        11.6370  -48.8820  238.9280 C.ar   86  TYR86      -0.0198
     15  CD1       10.3810  -48.7500  238.3490 C.ar   86  TYR86      -0.0009
     16  CD2       12.0640  -47.8870  239.7970 C.ar   86  TYR86      -0.0009
     17  CE1        9.5740  -47.6630  238.6290 C.ar   86  TYR86       0.0417
     18  CE2       11.2630  -46.7970  240.0860 C.ar   86  TYR86       0.0417
     19  CZ        10.0210  -46.6900  239.4990 C.ar   86  TYR86       0.1957
     20  OH         9.2250  -45.6060  239.7840 O.3    86  TYR86      -0.2866
     21  N         15.6800  -49.5110  233.7130 N.3    89  SER89      -0.1202
     22  CA        16.0280  -48.0950  233.7640 C.3    89  SER89       0.2020
     23  C         17.2510  -47.8570  234.6410 C.2    89  SER89       0.2618
     24  O         18.0920  -47.0060  234.3260 O.2    89  SER89      -0.2717
     25  CB        14.8370  -47.2810  234.2650 C.3    89  SER89       0.2103
     26  OG        13.7250  -47.4360  233.4020 O.3    89  SER89      -0.2182
     27  N         17.3680  -48.5970  235.7450 N.am   90  ASN90      -0.1974
     28  CA        18.5510  -48.4640  236.5860 C.3    90  ASN90       0.1688
     29  C         19.7910  -48.9730  235.8640 C.2    90  ASN90       0.2292
     30  O         20.8500  -48.3350  235.9060 O.2    90  ASN90      -0.2864
     31  CB        18.3480  -49.2080  237.9040 C.3    90  ASN90       0.1181
     32  CG        19.4140  -48.8770  238.9260 C.2    90  ASN90       0.2629
     33  OD1       19.3280  -47.8660  239.6230 O.2    90  ASN90      -0.2716
     34  ND2       20.4280  -49.7270  239.0200 N.am   90  ASN90      -0.0877
     35  N         21.1460  -46.2390  233.7290 N.3    93  VAL93      -0.1245
     36  CA        21.9550  -45.2230  234.3970 C.3    93  VAL93       0.1561
     37  C         23.3680  -45.7380  234.6270 C.2    93  VAL93       0.2260
     38  O         24.3500  -45.0130  234.4210 O.2    93  VAL93      -0.2867
     39  CB        21.2930  -44.7860  235.7150 C.3    93  VAL93       0.0252
     40  CG1       22.1250  -43.7010  236.3850 C.3    93  VAL93       0.0019
     41  CG2       19.8730  -44.3040  235.4620 C.3    93  VAL93       0.0019
     42  N         16.3820  -53.7160  243.0420 N.3   137  TRP137     -0.1241
     43  CA        14.9620  -53.4210  242.8890 C.3   137  TRP137      0.1605
     44  C         14.0810  -54.6640  242.9840 C.2   137  TRP137      0.2264
     45  O         13.1520  -54.7010  243.7960 O.2   137  TRP137     -0.2867
     46  CB        14.7250  -52.7010  241.5600 C.3   137  TRP137      0.0550
     47  CG        15.2970  -51.3190  241.5390 C.ar  137  TRP137      0.0003
     48  CD1       16.4860  -50.9310  240.9950 C.ar  137  TRP137      0.0946
     49  CD2       14.7090  -50.1400  242.1020 C.ar  137  TRP137      0.0152
     50  NE1       16.6730  -49.5810  241.1790 N.ar  137  TRP137     -0.2442
     51  CE2       15.5960  -49.0730  241.8570 C.ar  137  TRP137      0.0810
     52  CE3       13.5180  -49.8830  242.7880 C.ar  137  TRP137      0.0012
     53  CZ2       15.3280  -47.7710  242.2720 C.ar  137  TRP137      0.0191
     54  CZ3       13.2550  -48.5900  243.2000 C.ar  137  TRP137      0.0001
     55  CH2       14.1550  -47.5500  242.9410 C.ar  137  TRP137      0.0015
     56  N          8.0660  -47.2930  248.1250 N.3   163  LEU163     -0.1245
     57  CA         8.3490  -45.9020  247.8060 C.3   163  LEU163      0.1561
     58  C          7.1630  -44.9880  248.0830 C.2   163  LEU163      0.2260
     59  O          7.1590  -43.8390  247.6300 O.2   163  LEU163     -0.2867
     60  CB         8.7790  -45.7720  246.3410 C.3   163  LEU163      0.0270
     61  CG        10.1320  -46.3930  245.9880 C.3   163  LEU163      0.0019
     62  CD1       10.4370  -46.2130  244.5120 C.3   163  LEU163      0.0001
     63  CD2       11.2400  -45.7950  246.8430 C.3   163  LEU163      0.0001
     64  N         11.3620  -41.8390  248.7430 N.3   169  THR169     -0.1218
     65  CA        11.5470  -41.6700  247.3070 C.3   169  THR169      0.1862
     66  C         12.6170  -40.6270  247.0040 C.2   169  THR169      0.2287
     67  O         13.4260  -40.8120  246.0880 O.2   169  THR169     -0.2866
     68  CB        10.2210  -41.2920  246.6460 C.3   169  THR169      0.1770
     69  OG1        9.2880  -42.3670  246.8020 O.3   169  THR169     -0.2211
     70  CG2       10.4190  -41.0190  245.1650 C.3   169  THR169      0.0375
     71  N         16.0020  -41.9940  247.4470 N.3   172  THR172     -0.1203
     72  CA        16.2890  -42.9330  246.3680 C.3   172  THR172      0.1994
     73  C         16.5930  -42.1980  245.0680 C.2   172  THR172      0.2617
     74  O         17.5500  -42.5400  244.3640 O.2   172  THR172     -0.2717
     75  CB        15.1160  -43.8960  246.1850 C.3   172  THR172      0.1784
     76  OG1       14.8070  -44.5110  247.4420 O.3   172  THR172     -0.2211
     77  CG2       15.4680  -44.9800  245.1780 C.3   172  THR172      0.0376
     78  N         15.7960  -41.1790  244.7370 N.am  173  ALA173     -0.1979
     79  CA        16.0850  -40.3690  243.5590 C.3   173  ALA173      0.1597
     80  C         17.5000  -39.8040  243.6000 C.2   173  ALA173      0.2287
     81  O         18.1330  -39.6350  242.5500 O.2   173  ALA173     -0.2864
     82  CB        15.0650  -39.2390  243.4370 C.3   173  ALA173      0.0319
     83  N         19.8700  -42.8950  242.8800 N.3   176  ALA176     -0.1231
     84  CA        19.5590  -43.5420  241.6110 C.3   176  ALA176      0.1694
     85  C         19.7840  -42.6140  240.4230 C.2   176  ALA176      0.2592
     86  O         20.2830  -43.0540  239.3810 O.2   176  ALA176     -0.2718
     87  CB        18.1180  -44.0500  241.6190 C.3   176  ALA176      0.0304
     88  N         19.4150  -41.3400  240.5470 N.am  177  PHE177     -0.1976
     89  CA        19.5200  -40.4100  239.4270 C.3   177  PHE177      0.1639
     90  C         20.4620  -39.2460  239.6920 C.2   177  PHE177      0.2290
     91  O         21.3870  -39.0160  238.9040 O.2   177  PHE177     -0.2864
     92  CB        18.1280  -39.8770  239.0600 C.3   177  PHE177      0.0560
     93  CG        18.1490  -38.8000  238.0150 C.ar  177  PHE177     -0.0200
     94  CD1       18.1610  -39.1240  236.6690 C.ar  177  PHE177     -0.0042
     95  CD2       18.1500  -37.4640  238.3790 C.ar  177  PHE177     -0.0042
     96  CE1       18.1760  -38.1360  235.7060 C.ar  177  PHE177     -0.0003
     97  CE2       18.1650  -36.4710  237.4200 C.ar  177  PHE177     -0.0003
     98  CZ        18.1780  -36.8070  236.0830 C.ar  177  PHE177     -0.0000
     99  N         14.9550  -36.8250  231.6070 N.3   337  TRP337     -0.1241
    100  CA        14.7220  -37.3620  232.9420 C.3   337  TRP337      0.1605
    101  C         14.6530  -36.3020  234.0300 C.2   337  TRP337      0.2264
    102  O         14.0590  -36.5610  235.0820 O.2   337  TRP337     -0.2867
    103  CB        15.8140  -38.3740  233.3100 C.3   337  TRP337      0.0550
    104  CG        15.6390  -39.7050  232.6570 C.ar  337  TRP337      0.0003
    105  CD1       15.0990  -39.9530  231.4290 C.ar  337  TRP337      0.0946
    106  CD2       15.9890  -40.9790  233.2060 C.ar  337  TRP337      0.0152
    107  NE1       15.1010  -41.3030  231.1750 N.ar  337  TRP337     -0.2442
    108  CE2       15.6410  -41.9550  232.2520 C.ar  337  TRP337      0.0810
    109  CE3       16.5660  -41.3890  234.4120 C.ar  337  TRP337      0.0012
    110  CZ2       15.8520  -43.3140  232.4660 C.ar  337  TRP337      0.0191
    111  CZ3       16.7740  -42.7380  234.6220 C.ar  337  TRP337      0.0001
    112  CH2       16.4170  -43.6850  233.6540 C.ar  337  TRP337      0.0015
    113  N         10.9580  -35.3560  235.8350 N.3   340  TYR340     -0.1227
    114  CA        10.3880  -36.2640  236.8270 C.3   340  TYR340      0.1736
    115  C         11.0900  -36.1200  238.1720 C.2   340  TYR340      0.2595
    116  O         10.4390  -36.0530  239.2200 O.2   340  TYR340     -0.2718
    117  CB        10.4740  -37.7060  236.3280 C.3   340  TYR340      0.0548
    118  CG         9.9070  -38.7300  237.2890 C.ar  340  TYR340     -0.0200
    119  CD1        8.5680  -39.0960  237.2340 C.ar  340  TYR340     -0.0009
    120  CD2       10.7110  -39.3360  238.2460 C.ar  340  TYR340     -0.0009
    121  CE1        8.0460  -40.0350  238.1050 C.ar  340  TYR340      0.0417
    122  CE2       10.1980  -40.2760  239.1210 C.ar  340  TYR340      0.0417
    123  CZ         8.8650  -40.6220  239.0480 C.ar  340  TYR340      0.1957
    124  OH         8.3490  -41.5560  239.9200 O.3   340  TYR340     -0.2866
    125  N         12.4240  -36.0720  238.1610 N.am  341  ASN341     -0.1974
    126  CA        13.1680  -35.9990  239.4140 C.3   341  ASN341      0.1688
    127  C         12.9740  -34.6580  240.1090 C.2   341  ASN341      0.2292
    128  O         13.0740  -34.5830  241.3380 O.2   341  ASN341     -0.2864
    129  CB        14.6520  -36.2610  239.1620 C.3   341  ASN341      0.1181
    130  CG        14.9160  -37.6580  238.6260 C.2   341  ASN341      0.2629
    131  OD1       15.1140  -38.6030  239.3900 O.2   341  ASN341     -0.2716
    132  ND2       14.9200  -37.7940  237.3070 N.am  341  ASN341     -0.0877
    133  N          9.8900  -35.1870  242.2350 N.3   344  VAL344     -0.1245
    134  CA        10.1820  -35.9020  243.4740 C.3   344  VAL344      0.1561
    135  C         10.7390  -34.9430  244.5180 C.2   344  VAL344      0.2260
    136  O         10.3630  -34.9950  245.6960 O.2   344  VAL344     -0.2867
    137  CB        11.1460  -37.0720  243.2020 C.3   344  VAL344      0.0252
    138  CG1       11.5770  -37.7220  244.5060 C.3   344  VAL344      0.0019
    139  CG2       10.4910  -38.0920  242.2850 C.3   344  VAL344      0.0019
    140  N          6.7850  -38.8540  233.7090 N.3   363  TYR363     -0.1241
    141  CA         7.1440  -40.2670  233.6440 C.3   363  TYR363      0.1605
    142  C          7.3940  -40.7000  232.2050 C.2   363  TYR363      0.2264
    143  O          8.3790  -41.3880  231.9140 O.2   363  TYR363     -0.2867
    144  CB         6.0370  -41.1090  234.2800 C.3   363  TYR363      0.0534
    145  CG         6.4710  -42.4860  234.7250 C.ar  363  TYR363     -0.0201
    146  CD1        7.1780  -42.6610  235.9070 C.ar  363  TYR363     -0.0009
    147  CD2        6.1570  -43.6120  233.9770 C.ar  363  TYR363     -0.0009
    148  CE1        7.5710  -43.9170  236.3250 C.ar  363  TYR363      0.0417
    149  CE2        6.5450  -44.8730  234.3880 C.ar  363  TYR363      0.0417
    150  CZ         7.2530  -45.0200  235.5630 C.ar  363  TYR363      0.1957
    151  OH         7.6450  -46.2720  235.9810 O.3   363  TYR363     -0.2866
    152  N         10.7770  -39.6640  230.4130 N.3   366  CYS366     -0.1221
    153  CA        11.9100  -40.5630  230.6010 C.3   366  CYS366      0.1808
    154  C         11.8930  -41.6790  229.5650 C.2   366  CYS366      0.2601
    155  O         12.9430  -42.0630  229.0350 O.2   366  CYS366     -0.2717
    156  CB        11.8940  -41.1380  232.0160 C.3   366  CYS366      0.0970
    157  SG        11.8650  -39.8940  233.3330 S.3   366  CYS366     -0.0800
    158  N         10.7060  -42.2150  229.2680 N.am  367  TYR367     -0.1976
    159  CA        10.5850  -43.1950  228.1940 C.3   367  TYR367      0.1639
    160  C         11.1150  -42.6370  226.8780 C.2   367  TYR367      0.2290
    161  O         11.8440  -43.3220  226.1520 O.2   367  TYR367     -0.2864
    162  CB         9.1260  -43.6250  228.0380 C.3   367  TYR367      0.0560
    163  CG         8.6260  -44.5860  229.0960 C.ar  367  TYR367     -0.0198
    164  CD1        9.4660  -45.5390  229.6520 C.ar  367  TYR367     -0.0009
    165  CD2        7.3050  -44.5450  229.5300 C.ar  367  TYR367     -0.0009
    166  CE1        9.0060  -46.4250  230.6130 C.ar  367  TYR367      0.0417
    167  CE2        6.8380  -45.4240  230.4900 C.ar  367  TYR367      0.0417
    168  CZ         7.6920  -46.3610  231.0280 C.ar  367  TYR367      0.1957
    169  OH         7.2320  -47.2390  231.9840 O.3   367  TYR367     -0.2866
@<TRIPOS>BOND
     1   161   160    2
     2   160   159    1
     3   162   159    1
     4   162   163    1
     5   159   158    1
     6   155   154    2
     7   163   165   ar
     8   163   164   ar
     9   158   154   am
    10   165   167   ar
    11   154   153    1
    12   164   166   ar
    13   152   153    1
    14   167   168   ar
    15   153   156    1
    16   166   168   ar
    17   168   169    1
    18   107   105   ar
    19   107   108   ar
    20   105   104   ar
    21    99   100    1
    22   143   142    2
    23   156   157    1
    24   142   141    1
    25   108   110   ar
    26   108   106   ar
    27   110   112   ar
    28   104   106   ar
    29   104   103    1
    30   100   103    1
    31   100   101    1
    32     7     6   ar
    33   106   109   ar
    34    26    25    1
    35     8     6   ar
    36   141   140    1
    37   141   144    1
    38   112   111   ar
    39    21    22    1
    40     6     5    1
    41    35    36    1
    42    22    25    1
    43    22    23    1
    44   147   149   ar
    45   147   145   ar
    46   101   102    2
    47   144   145    1
    48     2     1    1
    49     2     5    1
    50     2     3    1
    51    24    23    2
    52   149   150   ar
    53    36    37    1
    54    36    39    1
    55   109   111   ar
    56    38    37    2
    57     4     3    2
    58    23    27   am
    59   145   146   ar
    60     3     9   am
    61    41    39    1
    62   150   151    1
    63   150   148   ar
    64    96    98   ar
    65    96    94   ar
    66    39    40    1
    67    27    28    1
    68   113   114    1
    69    29    30    2
    70    29    28    1
    71   146   148   ar
    72    98    97   ar
    73     9    10    1
    74   117   114    1
    75   117   118    1
    76    28    31    1
    77    94    93   ar
    78   114   115    1
    79    12    11    2
    80    11    10    1
    81    10    13    1
    82   119   118   ar
    83   119   121   ar
    84   118   120   ar
    85   132   130   am
    86    97    95   ar
    87    31    32    1
    88    93    95   ar
    89    93    92    1
    90   121   123   ar
    91   125   115   am
    92   125   126    1
    93   115   116    2
    94   120   122   ar
    95    15    17   ar
    96    15    14   ar
    97    13    14    1
    98   130   129    1
    99   130   131    2
   100    17    19   ar
   101    91    90    2
   102    32    34   am
   103    32    33    2
   104    14    16   ar
   105   123   122   ar
   106   123   124    1
   107    92    89    1
   108   129   126    1
   109    86    85    2
   110   126   127    1
   111    89    90    1
   112    89    88    1
   113    19    20    1
   114    19    18   ar
   115    16    18   ar
   116   127   128    2
   117    85    88   am
   118    85    84    1
   119    48    50   ar
   120    48    47   ar
   121    50    51   ar
   122    47    46    1
   123    47    49   ar
   124    46    43    1
   125    84    87    1
   126    84    83    1
   127    51    49   ar
   128    51    53   ar
   129    49    52   ar
   130   133   134    1
   131    53    55   ar
   132   139   137    1
   133    81    80    2
   134    52    54   ar
   135    43    44    1
   136    43    42    1
   137    55    54   ar
   138    44    45    2
   139   137   134    1
   140   137   138    1
   141    82    79    1
   142   134   135    1
   143    79    80    1
   144    79    78    1
   145    74    73    2
   146    62    61    1
   147   135   136    2
   148    78    73   am
   149    73    72    1
   150    70    68    1
   151    77    75    1
   152    61    60    1
   153    61    63    1
   154    67    66    2
   155    75    72    1
   156    75    76    1
   157    60    57    1
   158    72    71    1
   159    68    69    1
   160    68    65    1
   161    66    65    1
   162    65    64    1
   163    59    58    2
   164    57    58    1
   165    57    56    1
