@<TRIPOS>MOLECULE
tmp/5zhpB01.pdb
 173 170 0 0 0
SMALL
GASTEIGER

@<TRIPOS>ATOM
      1  N          2.3930  -49.1150  230.4910 N.3    62  PHE62      -0.1241
      2  CA         2.0700  -47.8670  231.1730 C.3    62  PHE62       0.1605
      3  C          1.0280  -47.0670  230.4030 C.2    62  PHE62       0.2264
      4  O          0.2330  -46.3410  231.0110 O.2    62  PHE62      -0.2867
      5  CB         3.3360  -47.0360  231.3870 C.3    62  PHE62       0.0534
      6  CG         3.1050  -45.7630  232.1540 C.ar   62  PHE62      -0.0203
      7  CD1        2.6370  -45.8000  233.4580 C.ar   62  PHE62      -0.0042
      8  CD2        3.3660  -44.5300  231.5770 C.ar   62  PHE62      -0.0042
      9  CE1        2.4230  -44.6300  234.1700 C.ar   62  PHE62      -0.0003
     10  CE2        3.1570  -43.3560  232.2840 C.ar   62  PHE62      -0.0003
     11  CZ         2.6840  -43.4060  233.5810 C.ar   62  PHE62      -0.0000
     12  N         -2.3860  -48.4180  231.4430 N.3    65  TYR65      -0.1241
     13  CA        -2.7630  -47.8310  232.7240 C.3    65  TYR65       0.1605
     14  C         -3.3690  -46.4460  232.5360 C.2    65  TYR65       0.2264
     15  O         -4.3310  -46.0810  233.2220 O.2    65  TYR65      -0.2867
     16  CB        -1.5390  -47.7690  233.6430 C.3    65  TYR65       0.0534
     17  CG        -1.8240  -47.3320  235.0660 C.ar   65  TYR65      -0.0201
     18  CD1       -1.8970  -45.9840  235.4020 C.ar   65  TYR65      -0.0009
     19  CD2       -2.0010  -48.2670  236.0770 C.ar   65  TYR65      -0.0009
     20  CE1       -2.1510  -45.5810  236.7010 C.ar   65  TYR65       0.0417
     21  CE2       -2.2540  -47.8740  237.3790 C.ar   65  TYR65       0.0417
     22  CZ        -2.3280  -46.5320  237.6850 C.ar   65  TYR65       0.1957
     23  OH        -2.5800  -46.1420  238.9800 O.3    65  TYR65      -0.2866
     24  N          5.7230  -55.7700  235.9080 N.3    81  TRP81      -0.1227
     25  CA         5.9460  -54.5490  235.1400 C.3    81  TRP81       0.1737
     26  C          6.8340  -53.5750  235.9040 C.2    81  TRP81       0.2595
     27  O          7.8140  -53.0520  235.3610 O.2    81  TRP81      -0.2718
     28  CB         4.6080  -53.9010  234.7850 C.3    81  TRP81       0.0564
     29  CG         4.7400  -52.5220  234.2180 C.ar   81  TRP81       0.0003
     30  CD1        5.3580  -52.1700  233.0540 C.ar   81  TRP81       0.0946
     31  CD2        4.2290  -51.3080  234.7840 C.ar   81  TRP81       0.0152
     32  NE1        5.2710  -50.8120  232.8630 N.ar   81  TRP81      -0.2442
     33  CE2        4.5810  -50.2590  233.9110 C.ar   81  TRP81       0.0810
     34  CE3        3.5100  -51.0060  235.9460 C.ar   81  TRP81       0.0012
     35  CZ2        4.2400  -48.9310  234.1610 C.ar   81  TRP81       0.0191
     36  CZ3        3.1720  -49.6860  236.1930 C.ar   81  TRP81       0.0001
     37  CH2        3.5380  -48.6660  235.3050 C.ar   81  TRP81       0.0015
     38  N          6.5080  -53.3220  237.1740 N.am   82  LEU82      -0.1980
     39  CA         7.3320  -52.4250  237.9780 C.3    82  LEU82       0.1596
     40  C          8.7750  -52.9100  238.0440 C.2    82  LEU82       0.2287
     41  O          9.7100  -52.1010  238.0440 O.2    82  LEU82      -0.2864
     42  CB         6.7470  -52.2870  239.3840 C.3    82  LEU82       0.0297
     43  CG         5.4560  -51.4770  239.5220 C.3    82  LEU82       0.0022
     44  CD1        4.9680  -51.4960  240.9600 C.3    82  LEU82       0.0001
     45  CD2        5.6590  -50.0460  239.0470 C.3    82  LEU82       0.0001
     46  N         11.9350  -50.6860  236.3100 N.3    86  TYR86      -0.1241
     47  CA        12.9730  -50.0880  237.1420 C.3    86  TYR86       0.1605
     48  C         14.3170  -50.7930  237.0130 C.2    86  TYR86       0.2264
     49  O         15.3590  -50.1280  236.9850 O.2    86  TYR86      -0.2867
     50  CB        12.5200  -50.0660  238.6060 C.3    86  TYR86       0.0534
     51  CG        11.6370  -48.8820  238.9280 C.ar   86  TYR86      -0.0201
     52  CD1       10.3810  -48.7500  238.3490 C.ar   86  TYR86      -0.0009
     53  CD2       12.0640  -47.8870  239.7970 C.ar   86  TYR86      -0.0009
     54  CE1        9.5740  -47.6630  238.6290 C.ar   86  TYR86       0.0417
     55  CE2       11.2630  -46.7970  240.0860 C.ar   86  TYR86       0.0417
     56  CZ        10.0210  -46.6900  239.4990 C.ar   86  TYR86       0.1957
     57  OH         9.2250  -45.6060  239.7840 O.3    86  TYR86      -0.2866
     58  N         -1.5640  -49.3480  240.3640 N.3   158  CYS158     -0.1221
     59  CA        -0.2540  -49.9790  240.2940 C.3   158  CYS158      0.1808
     60  C          0.8150  -48.9440  240.6080 C.2   158  CYS158      0.2601
     61  O          0.8560  -47.8820  239.9800 O.2   158  CYS158     -0.2717
     62  CB        -0.0130  -50.5990  238.9140 C.3   158  CYS158      0.0970
     63  SG         1.5400  -51.5070  238.7690 S.3   158  CYS158     -0.0800
     64  N          1.6680  -49.2590  241.5790 N.am  159  PHE159     -0.1962
     65  CA         2.7610  -48.3850  241.9840 C.3   159  PHE159      0.1771
     66  C          3.6500  -49.1590  242.9430 C.2   159  PHE159      0.2619
     67  O          3.2510  -50.1920  243.4870 O.2   159  PHE159     -0.2715
     68  CB         2.2490  -47.0970  242.6380 C.3   159  PHE159      0.0574
     69  CG         1.5450  -47.3200  243.9470 C.ar  159  PHE159     -0.0200
     70  CD1        0.1910  -47.6150  243.9820 C.ar  159  PHE159     -0.0042
     71  CD2        2.2370  -47.2340  245.1450 C.ar  159  PHE159     -0.0042
     72  CE1       -0.4580  -47.8220  245.1870 C.ar  159  PHE159     -0.0003
     73  CE2        1.5920  -47.4400  246.3530 C.ar  159  PHE159     -0.0003
     74  CZ         0.2430  -47.7340  246.3720 C.ar  159  PHE159     -0.0000
     75  N          4.8630  -48.6520  243.1390 N.am  160  ILE160     -0.1977
     76  CA         5.8180  -49.2930  244.0370 C.3   160  ILE160      0.1596
     77  C          5.4570  -48.9240  245.4710 C.2   160  ILE160      0.2287
     78  O          5.3980  -47.7410  245.8230 O.2   160  ILE160     -0.2864
     79  CB         7.2590  -48.8850  243.7030 C.3   160  ILE160      0.0276
     80  CG1        7.6060  -49.2840  242.2660 C.3   160  ILE160      0.0022
     81  CG2        8.2260  -49.5300  244.6760 C.3   160  ILE160      0.0022
     82  CD1        9.0200  -48.9320  241.8640 C.3   160  ILE160      0.0001
     83  N          8.0660  -47.2930  248.1250 N.3   163  LEU163     -0.1231
     84  CA         8.3490  -45.9020  247.8060 C.3   163  LEU163      0.1693
     85  C          7.1630  -44.9880  248.0830 C.2   163  LEU163      0.2592
     86  O          7.1590  -43.8390  247.6300 O.2   163  LEU163     -0.2718
     87  CB         8.7790  -45.7720  246.3410 C.3   163  LEU163      0.0284
     88  CG        10.1320  -46.3930  245.9880 C.3   163  LEU163      0.0019
     89  CD1       10.4370  -46.2130  244.5120 C.3   163  LEU163      0.0001
     90  CD2       11.2400  -45.7950  246.8430 C.3   163  LEU163      0.0001
     91  N          6.1620  -45.4730  248.8230 N.am  164  SER164     -0.1952
     92  CA         4.9640  -44.6810  249.0780 C.3   164  SER164      0.1924
     93  C          5.2580  -43.4670  249.9490 C.2   164  SER164      0.2314
     94  O          4.6060  -42.4280  249.7990 O.2   164  SER164     -0.2863
     95  CB         3.8930  -45.5530  249.7290 C.3   164  SER164      0.2116
     96  OG         4.3870  -46.1610  250.9100 O.3   164  SER164     -0.2180
     97  N         11.3620  -41.8390  248.7430 N.3   169  THR169     -0.1218
     98  CA        11.5470  -41.6700  247.3070 C.3   169  THR169      0.1862
     99  C         12.6170  -40.6270  247.0040 C.2   169  THR169      0.2287
    100  O         13.4260  -40.8120  246.0880 O.2   169  THR169     -0.2866
    101  CB        10.2210  -41.2920  246.6460 C.3   169  THR169      0.1770
    102  OG1        9.2880  -42.3670  246.8020 O.3   169  THR169     -0.2211
    103  CG2       10.4190  -41.0190  245.1650 C.3   169  THR169      0.0375
    104  N         10.9580  -35.3560  235.8350 N.3   340  TYR340     -0.1241
    105  CA        10.3880  -36.2640  236.8270 C.3   340  TYR340      0.1605
    106  C         11.0900  -36.1200  238.1720 C.2   340  TYR340      0.2264
    107  O         10.4390  -36.0530  239.2200 O.2   340  TYR340     -0.2867
    108  CB        10.4740  -37.7060  236.3280 C.3   340  TYR340      0.0534
    109  CG         9.9070  -38.7300  237.2890 C.ar  340  TYR340     -0.0201
    110  CD1        8.5680  -39.0960  237.2340 C.ar  340  TYR340     -0.0009
    111  CD2       10.7110  -39.3360  238.2460 C.ar  340  TYR340     -0.0009
    112  CE1        8.0460  -40.0350  238.1050 C.ar  340  TYR340      0.0417
    113  CE2       10.1980  -40.2760  239.1210 C.ar  340  TYR340      0.0417
    114  CZ         8.8650  -40.6220  239.0480 C.ar  340  TYR340      0.1957
    115  OH         8.3490  -41.5560  239.9200 O.3   340  TYR340     -0.2866
    116  N          9.8900  -35.1870  242.2350 N.3   344  VAL344     -0.1245
    117  CA        10.1820  -35.9020  243.4740 C.3   344  VAL344      0.1561
    118  C         10.7390  -34.9430  244.5180 C.2   344  VAL344      0.2260
    119  O         10.3630  -34.9950  245.6960 O.2   344  VAL344     -0.2867
    120  CB        11.1460  -37.0720  243.2020 C.3   344  VAL344      0.0252
    121  CG1       11.5770  -37.7220  244.5060 C.3   344  VAL344      0.0019
    122  CG2       10.4910  -38.0920  242.2850 C.3   344  VAL344      0.0019
    123  N          7.7030  -32.7000  245.4690 N.3   347  ASN347     -0.1240
    124  CA         6.7600  -33.5100  246.2340 C.3   347  ASN347      0.1653
    125  C          7.2940  -33.8870  247.6090 C.2   347  ASN347      0.2266
    126  O          6.5020  -34.1710  248.5130 O.2   347  ASN347     -0.2867
    127  CB         6.4030  -34.7730  245.4480 C.3   347  ASN347      0.1155
    128  CG         5.5220  -35.7200  246.2350 C.2   347  ASN347      0.2627
    129  OD1        5.9920  -36.7280  246.7620 O.2   347  ASN347     -0.2716
    130  ND2        4.2360  -35.3980  246.3230 N.am  347  ASN347     -0.0877
    131  N         -1.4990  -35.4580  238.9490 N.3   356  LYS356     -0.1245
    132  CA        -1.0730  -36.7070  238.3280 C.3   356  LYS356      0.1561
    133  C         -0.7440  -36.5150  236.8570 C.2   356  LYS356      0.2260
    134  O          0.1470  -37.1880  236.3260 O.2   356  LYS356     -0.2867
    135  CB        -2.1460  -37.7810  238.4920 C.3   356  LYS356      0.0271
    136  CG        -1.6680  -39.0080  239.2480 C.3   356  LYS356      0.0035
    137  CD        -2.2110  -40.2880  238.6350 C.3   356  LYS356      0.0206
    138  CE        -1.3980  -41.5030  239.0670 C.3   356  LYS356      0.1093
    139  NZ        -1.3400  -42.5650  238.0140 N.3   356  LYS356     -0.1314
    140  N          2.7620  -35.8300  236.8130 N.3   359  TRP359     -0.1227
    141  CA         3.5390  -37.0250  237.1270 C.3   359  TRP359      0.1737
    142  C          3.5620  -37.9900  235.9500 C.2   359  TRP359      0.2595
    143  O          4.6050  -38.5820  235.6470 O.2   359  TRP359     -0.2718
    144  CB         2.9780  -37.7170  238.3680 C.3   359  TRP359      0.0564
    145  CG         3.4380  -37.1230  239.6610 C.ar  359  TRP359      0.0003
    146  CD1        2.6690  -36.4920  240.5910 C.ar  359  TRP359      0.0946
    147  CD2        4.7780  -37.1040  240.1680 C.ar  359  TRP359      0.0152
    148  NE1        3.4450  -36.0810  241.6480 N.ar  359  TRP359     -0.2442
    149  CE2        4.7440  -36.4450  241.4130 C.ar  359  TRP359      0.0810
    150  CE3        6.0040  -37.5810  239.6900 C.ar  359  TRP359      0.0012
    151  CZ2        5.8850  -36.2500  242.1870 C.ar  359  TRP359      0.0191
    152  CZ3        7.1370  -37.3860  240.4590 C.ar  359  TRP359      0.0001
    153  CH2        7.0690  -36.7280  241.6940 C.ar  359  TRP359      0.0015
    154  N          2.4240  -38.1620  235.2750 N.am  360  ASN360     -0.1974
    155  CA         2.3610  -39.1070  234.1660 C.3   360  ASN360      0.1688
    156  C          3.1750  -38.6190  232.9720 C.2   360  ASN360      0.2292
    157  O          3.8740  -39.4090  232.3260 O.2   360  ASN360     -0.2864
    158  CB         0.9060  -39.3500  233.7690 C.3   360  ASN360      0.1181
    159  CG         0.1030  -39.9940  234.8810 C.2   360  ASN360      0.2629
    160  OD1       -0.9440  -39.4860  235.2820 O.2   360  ASN360     -0.2716
    161  ND2        0.5960  -41.1180  235.3910 N.am  360  ASN360     -0.0877
    162  N          6.7850  -38.8540  233.7090 N.3   363  TYR363     -0.1241
    163  CA         7.1440  -40.2670  233.6440 C.3   363  TYR363      0.1605
    164  C          7.3940  -40.7000  232.2050 C.2   363  TYR363      0.2264
    165  O          8.3790  -41.3880  231.9140 O.2   363  TYR363     -0.2867
    166  CB         6.0370  -41.1090  234.2800 C.3   363  TYR363      0.0534
    167  CG         6.4710  -42.4860  234.7250 C.ar  363  TYR363     -0.0201
    168  CD1        7.1780  -42.6610  235.9070 C.ar  363  TYR363     -0.0009
    169  CD2        6.1570  -43.6120  233.9770 C.ar  363  TYR363     -0.0009
    170  CE1        7.5710  -43.9170  236.3250 C.ar  363  TYR363      0.0417
    171  CE2        6.5450  -44.8730  234.3880 C.ar  363  TYR363      0.0417
    172  CZ         7.2530  -45.0200  235.5630 C.ar  363  TYR363      0.1957
    173  OH         7.6450  -46.2720  235.9810 O.3   363  TYR363     -0.2866
@<TRIPOS>BOND
     1     3     4    2
     2     3     2    1
     3     1     2    1
     4     2     5    1
     5     5     6    1
     6    12    13    1
     7     8     6   ar
     8     8    10   ar
     9   165   164    2
    10     6     7   ar
    11   164   163    1
    12    10    11   ar
    13   157   156    2
    14    14    13    1
    15    14    15    2
    16    13    16    1
    17    32    30   ar
    18    32    33   ar
    19   156   155    1
    20    30    29   ar
    21     7     9   ar
    22    11     9   ar
    23    16    17    1
    24   163   162    1
    25   163   166    1
    26   158   155    1
    27   158   159    1
    28    33    35   ar
    29    33    31   ar
    30   169   171   ar
    31   169   167   ar
    32    35    37   ar
    33   155   154    1
    34    29    31   ar
    35    29    28    1
    36   166   167    1
    37   171   172   ar
    38   167   168   ar
    39    31    34   ar
    40    28    25    1
    41   159   160    2
    42   159   161   am
    43    17    18   ar
    44    17    19   ar
    45    25    26    1
    46    25    24    1
    47   154   142   am
    48    37    36   ar
    49    27    26    2
    50    18    20   ar
    51   172   173    1
    52   172   170   ar
    53   143   142    2
    54   104   105    1
    55    26    38   am
    56   168   170   ar
    57    34    36   ar
    58   142   141    1
    59    19    21   ar
    60    46    47    1
    61   134   133    2
    62   108   105    1
    63   108   109    1
    64    20    22   ar
    65   140   141    1
    66   105   106    1
    67   133   132    1
    68    49    48    2
    69    48    47    1
    70   141   144    1
    71    47    50    1
    72    38    39    1
    73   110   109   ar
    74   110   112   ar
    75   109   111   ar
    76    21    22   ar
    77    22    23    1
    78    39    40    1
    79    39    42    1
    80   139   138    1
    81    40    41    2
    82   112   114   ar
    83   106   107    2
    84   111   113   ar
    85   132   135    1
    86   132   131    1
    87    52    54   ar
    88    52    51   ar
    89   144   145    1
    90   135   136    1
    91    50    51    1
    92    54    56   ar
    93   137   138    1
    94   137   136    1
    95    63    62    1
    96    62    59    1
    97    51    53   ar
    98    45    43    1
    99   114   113   ar
   100   114   115    1
   101    42    43    1
   102    56    57    1
   103    56    55   ar
   104    43    44    1
   105   145   147   ar
   106   145   146   ar
   107   150   147   ar
   108   150   152   ar
   109    53    55   ar
   110    61    60    2
   111   147   149   ar
   112    59    58    1
   113    59    60    1
   114   152   153   ar
   115   146   148   ar
   116    60    64   am
   117   149   148   ar
   118   149   151   ar
   119    64    65    1
   120   153   151   ar
   121    82    80    1
   122    65    68    1
   123    65    66    1
   124   116   117    1
   125    80    79    1
   126   122   120    1
   127    68    69    1
   128    66    75   am
   129    66    67    2
   130    75    76    1
   131   120   117    1
   132   120   121    1
   133   117   118    1
   134    79    76    1
   135    79    81    1
   136    69    70   ar
   137    69    71   ar
   138    70    72   ar
   139    76    77    1
   140    89    88    1
   141   118   119    2
   142    71    73   ar
   143   103   101    1
   144    72    74   ar
   145   127   124    1
   146   127   128    1
   147   123   124    1
   148    77    78    2
   149    88    87    1
   150    88    90    1
   151   100    99    2
   152   124   125    1
   153   128   130   am
   154   128   129    2
   155    87    84    1
   156    73    74   ar
   157   101   102    1
   158   101    98    1
   159    99    98    1
   160    98    97    1
   161   125   126    2
   162    86    85    2
   163    84    85    1
   164    84    83    1
   165    85    91   am
   166    91    92    1
   167    92    95    1
   168    92    93    1
   169    95    96    1
   170    94    93    2
