@<TRIPOS>MOLECULE
tmp/5zhpA00.pdb
 152 151 0 0 0
SMALL
GASTEIGER

@<TRIPOS>ATOM
      1  N        -15.9250  -42.2010  208.0890 N.3    62  PHE62      -0.1241
      2  CA       -16.6540  -43.4360  208.3590 C.3    62  PHE62       0.1605
      3  C        -16.0030  -44.2380  209.4780 C.2    62  PHE62       0.2264
      4  O        -16.6950  -44.9570  210.2080 O.2    62  PHE62      -0.2867
      5  CB       -16.7580  -44.2770  207.0860 C.3    62  PHE62       0.0534
      6  CG       -17.5210  -45.5590  207.2670 C.ar   62  PHE62      -0.0203
      7  CD1      -18.8900  -45.5430  207.4680 C.ar   62  PHE62      -0.0042
      8  CD2      -16.8680  -46.7810  207.2290 C.ar   62  PHE62      -0.0042
      9  CE1      -19.5950  -46.7220  207.6340 C.ar   62  PHE62      -0.0003
     10  CE2      -17.5680  -47.9640  207.3940 C.ar   62  PHE62      -0.0003
     11  CZ       -18.9330  -47.9330  207.5970 C.ar   62  PHE62      -0.0000
     12  N        -17.6000  -42.8840  212.5240 N.3    65  TYR65      -0.1241
     13  CA       -18.9690  -43.3630  212.6870 C.3    65  TYR65       0.1605
     14  C        -18.9990  -44.7450  213.3290 C.2    65  TYR65       0.2264
     15  O        -19.7970  -44.9980  214.2380 O.2    65  TYR65      -0.2867
     16  CB       -19.6730  -43.3790  211.3280 C.3    65  TYR65       0.0534
     17  CG       -21.0850  -43.9290  211.3340 C.ar   65  TYR65      -0.0201
     18  CD1      -21.3240  -45.2940  211.2110 C.ar   65  TYR65      -0.0009
     19  CD2      -22.1790  -43.0820  211.4390 C.ar   65  TYR65      -0.0009
     20  CE1      -22.6130  -45.7980  211.2080 C.ar   65  TYR65       0.0417
     21  CE2      -23.4700  -43.5770  211.4370 C.ar   65  TYR65       0.0417
     22  CZ       -23.6810  -44.9340  211.3210 C.ar   65  TYR65       0.1957
     23  OH       -24.9660  -45.4230  211.3190 O.3    65  TYR65      -0.2866
     24  N        -20.5510  -36.0880  203.3250 N.3    81  TRP81      -0.1227
     25  CA       -19.7860  -37.3290  203.3010 C.3    81  TRP81       0.1737
     26  C        -20.3840  -38.3220  202.3120 C.2    81  TRP81       0.2595
     27  O        -19.7000  -38.8020  201.4010 O.2    81  TRP81      -0.2718
     28  CB       -19.7200  -37.9310  204.7050 C.3    81  TRP81       0.0564
     29  CG       -19.2160  -39.3400  204.7280 C.ar   81  TRP81       0.0003
     30  CD1      -18.0330  -39.7960  204.2260 C.ar   81  TRP81       0.0946
     31  CD2      -19.8770  -40.4780  205.2950 C.ar   81  TRP81       0.0152
     32  NE1      -17.9180  -41.1490  204.4390 N.ar   81  TRP81      -0.2442
     33  CE2      -19.0370  -41.5910  205.0950 C.ar   81  TRP81       0.0810
     34  CE3      -21.0980  -40.6640  205.9510 C.ar   81  TRP81       0.0012
     35  CZ2      -19.3780  -42.8710  205.5260 C.ar   81  TRP81       0.0191
     36  CZ3      -21.4340  -41.9360  206.3790 C.ar   81  TRP81       0.0001
     37  CH2      -20.5780  -43.0230  206.1640 C.ar   81  TRP81       0.0015
     38  N        -21.6710  -38.6360  202.4730 N.am   82  LEU82      -0.1980
     39  CA       -22.3110  -39.6040  201.5870 C.3    82  LEU82       0.1596
     40  C        -22.2270  -39.1590  200.1320 C.2    82  LEU82       0.2287
     41  O        -21.9010  -39.9550  199.2450 O.2    82  LEU82      -0.2864
     42  CB       -23.7670  -39.8150  202.0050 C.3    82  LEU82       0.0297
     43  CG       -24.0060  -40.5010  203.3510 C.3    82  LEU82       0.0022
     44  CD1      -25.4950  -40.6750  203.5950 C.3    82  LEU82       0.0001
     45  CD2      -23.2910  -41.8430  203.4130 C.3    82  LEU82       0.0001
     46  N        -20.0480  -41.0760  197.5410 N.3    86  TYR86      -0.1241
     47  CA       -20.6690  -41.7770  196.4230 C.3    86  TYR86       0.1605
     48  C        -20.3110  -41.1570  195.0770 C.2    86  TYR86       0.2264
     49  O        -20.2060  -41.8800  194.0790 O.2    86  TYR86      -0.2867
     50  CB       -22.1870  -41.8180  196.6090 C.3    86  TYR86       0.0534
     51  CG       -22.6470  -42.9790  197.4610 C.ar   86  TYR86      -0.0201
     52  CD1      -22.1370  -43.1710  198.7380 C.ar   86  TYR86      -0.0009
     53  CD2      -23.5870  -43.8860  196.9890 C.ar   86  TYR86      -0.0009
     54  CE1      -22.5490  -44.2330  199.5210 C.ar   86  TYR86       0.0417
     55  CE2      -24.0070  -44.9510  197.7650 C.ar   86  TYR86       0.0417
     56  CZ       -23.4840  -45.1190  199.0300 C.ar   86  TYR86       0.1957
     57  OH       -23.8960  -46.1770  199.8100 O.3    86  TYR86      -0.2866
     58  N        -26.3530  -41.7810  209.9510 N.3   158  CYS158     -0.1221
     59  CA       -26.0580  -41.2050  208.6420 C.3   158  CYS158      0.1808
     60  C        -26.1250  -42.3010  207.5880 C.2   158  CYS158      0.2601
     61  O        -25.2920  -43.2130  207.5820 O.2   158  CYS158     -0.2717
     62  CB       -24.6880  -40.5240  208.6400 C.3   158  CYS158      0.0970
     63  SG       -24.2570  -39.7230  207.0810 S.3   158  CYS158     -0.0800
     64  N        -27.1200  -42.2160  206.7090 N.am  159  PHE159     -0.1962
     65  CA       -27.2180  -43.1010  205.5570 C.3   159  PHE159      0.1771
     66  C        -28.1100  -42.4350  204.5200 C.2   159  PHE159      0.2619
     67  O        -28.8550  -41.5000  204.8250 O.2   159  PHE159     -0.2715
     68  CB       -27.7520  -44.4890  205.9390 C.3   159  PHE159      0.0574
     69  CG       -29.1960  -44.5000  206.3610 C.ar  159  PHE159     -0.0200
     70  CD1      -30.2100  -44.5600  205.4170 C.ar  159  PHE159     -0.0042
     71  CD2      -29.5410  -44.4750  207.7030 C.ar  159  PHE159     -0.0042
     72  CE1      -31.5380  -44.5770  205.8010 C.ar  159  PHE159     -0.0003
     73  CE2      -30.8690  -44.4930  208.0930 C.ar  159  PHE159     -0.0003
     74  CZ       -31.8680  -44.5440  207.1400 C.ar  159  PHE159     -0.0000
     75  N        -28.0220  -42.9290  203.2860 N.am  160  ILE160     -0.1977
     76  CA       -28.7750  -42.3350  202.1880 C.3   160  ILE160      0.1596
     77  C        -30.2560  -42.6360  202.3680 C.2   160  ILE160      0.2287
     78  O        -30.6500  -43.7810  202.6240 O.2   160  ILE160     -0.2864
     79  CB       -28.2540  -42.8460  200.8370 C.3   160  ILE160      0.0276
     80  CG1      -26.8140  -42.3780  200.6140 C.3   160  ILE160      0.0022
     81  CG2      -29.1510  -42.3700  199.7060 C.3   160  ILE160      0.0022
     82  CD1      -26.2330  -42.7930  199.2800 C.3   160  ILE160      0.0001
     83  N        -32.2820  -44.5840  199.4360 N.3   163  LEU163     -0.1245
     84  CA       -31.7790  -45.9480  199.3500 C.3   163  LEU163      0.1561
     85  C        -32.2600  -46.8220  200.5010 C.2   163  LEU163      0.2260
     86  O        -31.8350  -47.9780  200.6060 O.2   163  LEU163     -0.2867
     87  CB       -30.2490  -45.9410  199.3040 C.3   163  LEU163      0.0270
     88  CG       -29.6240  -45.2500  198.0920 C.3   163  LEU163      0.0019
     89  CD1      -28.1060  -45.3110  198.1590 C.3   163  LEU163      0.0001
     90  CD2      -30.1340  -45.8770  196.8050 C.3   163  LEU163      0.0001
     91  N        -32.4550  -50.3340  196.1710 N.3   169  THR169     -0.1218
     92  CA       -31.0000  -50.4480  196.1850 C.3   169  THR169      0.1862
     93  C        -30.5180  -51.5240  195.2200 C.2   169  THR169      0.2287
     94  O        -29.5140  -51.3340  194.5220 O.2   169  THR169     -0.2866
     95  CB       -30.5090  -50.7400  197.6030 C.3   169  THR169      0.1770
     96  OG1      -30.6460  -49.5620  198.4090 O.3   169  THR169     -0.2211
     97  CG2      -29.0500  -51.1790  197.5860 C.3   169  THR169      0.0375
     98  N        -19.6910  -56.5860  199.1410 N.3   340  TYR340     -0.1241
     99  CA       -20.7560  -55.6410  199.4640 C.3   340  TYR340      0.1605
    100  C        -21.9520  -55.8110  198.5350 C.2   340  TYR340      0.2264
    101  O        -23.1010  -55.8670  198.9840 O.2   340  TYR340     -0.2867
    102  CB       -20.2200  -54.2120  199.3930 C.3   340  TYR340      0.0534
    103  CG       -21.2520  -53.1440  199.6780 C.ar  340  TYR340     -0.0201
    104  CD1      -22.0290  -52.6110  198.6580 C.ar  340  TYR340     -0.0009
    105  CD2      -21.4440  -52.6610  200.9660 C.ar  340  TYR340     -0.0009
    106  CE1      -22.9690  -51.6330  198.9110 C.ar  340  TYR340      0.0417
    107  CE2      -22.3840  -51.6800  201.2300 C.ar  340  TYR340      0.0417
    108  CZ       -23.1440  -51.1710  200.1970 C.ar  340  TYR340      0.1957
    109  OH       -24.0820  -50.1960  200.4450 O.3   340  TYR340     -0.2866
    110  N        -25.2580  -55.8820  211.0760 N.3   356  LYS356     -0.1245
    111  CA       -24.7240  -54.5430  210.8550 C.3   356  LYS356      0.1561
    112  C        -23.2210  -54.5740  210.6170 C.2   356  LYS356      0.2260
    113  O        -22.6820  -53.6920  209.9380 O.2   356  LYS356     -0.2867
    114  CB       -25.0530  -53.6450  212.0490 C.3   356  LYS356      0.0271
    115  CG       -24.3710  -52.2820  212.0300 C.3   356  LYS356      0.0035
    116  CD       -24.9950  -51.3440  211.0030 C.3   356  LYS356      0.0206
    117  CE       -24.3800  -49.9480  211.0820 C.3   356  LYS356      0.1093
    118  NZ       -25.0420  -48.9660  210.1720 N.3   356  LYS356     -0.1314
    119  N        -22.1460  -55.5110  206.8060 N.3   359  TRP359     -0.1227
    120  CA       -22.2550  -54.3620  205.9130 C.3   359  TRP359      0.1737
    121  C        -21.0670  -53.4230  206.0850 C.2   359  TRP359      0.2595
    122  O        -20.4640  -52.9800  205.1000 O.2   359  TRP359     -0.2718
    123  CB       -23.5670  -53.6150  206.1590 C.3   359  TRP359      0.0564
    124  CG       -24.7920  -54.3490  205.7060 C.ar  359  TRP359      0.0003
    125  CD1      -25.6790  -55.0240  206.4910 C.ar  359  TRP359      0.0946
    126  CD2      -25.2710  -54.4760  204.3610 C.ar  359  TRP359      0.0152
    127  NE1      -26.6790  -55.5640  205.7210 N.ar  359  TRP359     -0.2442
    128  CE2      -26.4510  -55.2450  204.4090 C.ar  359  TRP359      0.0810
    129  CE3      -24.8140  -54.0180  203.1200 C.ar  359  TRP359      0.0012
    130  CZ2      -27.1820  -55.5650  203.2660 C.ar  359  TRP359      0.0191
    131  CZ3      -25.5410  -54.3380  201.9850 C.ar  359  TRP359      0.0001
    132  CH2      -26.7130  -55.1030  202.0670 C.ar  359  TRP359      0.0015
    133  N        -20.7150  -53.1090  207.3350 N.am  360  ASN360     -0.1974
    134  CA       -19.6090  -52.1890  207.5790 C.3   360  ASN360      0.1688
    135  C        -18.2890  -52.7430  207.0610 C.2   360  ASN360      0.2292
    136  O        -17.4230  -51.9750  206.6270 O.2   360  ASN360     -0.2864
    137  CB       -19.5070  -51.8730  209.0700 C.3   360  ASN360      0.1181
    138  CG       -20.6990  -51.0870  209.5800 C.2   360  ASN360      0.2629
    139  OD1      -21.3980  -51.5200  210.4950 O.2   360  ASN360     -0.2716
    140  ND2      -20.9370  -49.9230  208.9840 N.am  360  ASN360     -0.0877
    141  N        -18.2630  -52.3120  203.3000 N.3   363  TYR363     -0.1241
    142  CA       -18.0690  -50.8960  203.0040 C.3   363  TYR363      0.1605
    143  C        -16.5960  -50.5150  203.0970 C.2   363  TYR363      0.2264
    144  O        -16.0570  -49.8490  202.2050 O.2   363  TYR363     -0.2867
    145  CB       -18.9140  -50.0500  203.9560 C.3   363  TYR363      0.0534
    146  CG       -19.3190  -48.6980  203.4140 C.ar  363  TYR363     -0.0201
    147  CD1      -20.4870  -48.5460  202.6780 C.ar  363  TYR363     -0.0009
    148  CD2      -18.5420  -47.5710  203.6500 C.ar  363  TYR363     -0.0009
    149  CE1      -20.8660  -47.3110  202.1860 C.ar  363  TYR363      0.0417
    150  CE2      -18.9130  -46.3320  203.1620 C.ar  363  TYR363      0.0417
    151  CZ       -20.0750  -46.2080  202.4310 C.ar  363  TYR363      0.1957
    152  OH       -20.4470  -44.9770  201.9430 O.3   363  TYR363     -0.2866
@<TRIPOS>BOND
     1    49    48    2
     2    94    93    2
     3    48    47    1
     4    93    92    1
     5    91    92    1
     6    92    95    1
     7    47    50    1
     8    47    46    1
     9    50    51    1
    10    90    88    1
    11    53    51   ar
    12    53    55   ar
    13    51    52   ar
    14    97    95    1
    15    95    96    1
    16    55    56   ar
    17    88    89    1
    18    88    87    1
    19   100   101    2
    20   100    99    1
    21   104   106   ar
    22   104   103   ar
    23    52    54   ar
    24   106   108   ar
    25    56    54   ar
    26    56    57    1
    27    98    99    1
    28    41    40    2
    29    82    80    1
    30    87    84    1
    31    84    83    1
    32    84    85    1
    33   102    99    1
    34   102   103    1
    35   103   105   ar
    36    81    79    1
    37    40    39    1
    38   108   109    1
    39   108   107   ar
    40    85    86    2
    41    80    79    1
    42    79    76    1
    43   105   107   ar
    44    27    26    2
    45    39    42    1
    46    39    38    1
    47   152   151    1
    48   131   132   ar
    49   131   129   ar
    50    42    43    1
    51   132   130   ar
    52   149   151   ar
    53   149   147   ar
    54    76    77    1
    55    76    75    1
    56   144   143    2
    57    26    38   am
    58    26    25    1
    59    77    78    2
    60   151   150   ar
    61   147   146   ar
    62   142   143    1
    63   142   141    1
    64   142   145    1
    65   129   126   ar
    66   150   148   ar
    67   130   128   ar
    68    75    66   am
    69    25    24    1
    70    25    28    1
    71    43    45    1
    72    43    44    1
    73   146   148   ar
    74   146   145    1
    75    30    32   ar
    76    30    29   ar
    77   126   128   ar
    78   126   124   ar
    79   128   127   ar
    80    32    33   ar
    81    66    67    2
    82    66    65    1
    83    28    29    1
    84    29    31   ar
    85    33    31   ar
    86    33    35   ar
    87   122   121    2
    88    31    34   ar
    89    70    72   ar
    90    70    69   ar
    91    35    37   ar
    92    65    68    1
    93    65    64    1
    94   124   123    1
    95   124   125   ar
    96   127   125   ar
    97    72    74   ar
    98   120   121    1
    99   120   123    1
   100   120   119    1
   101    68    69    1
   102    34    36   ar
   103   121   133   am
   104    37    36   ar
   105    69    71   ar
   106   136   135    2
   107    64    60   am
   108   135   134    1
   109    63    62    1
   110     5     6    1
   111     5     2    1
   112    74    73   ar
   113     8     6   ar
   114     8    10   ar
   115     6     7   ar
   116   133   134    1
   117    10    11   ar
   118     7     9   ar
   119   134   137    1
   120    61    60    2
   121    60    59    1
   122    11     9   ar
   123    71    73   ar
   124     1     2    1
   125     2     3    1
   126    62    59    1
   127    59    58    1
   128   140   138   am
   129   137   138    1
   130     3     4    2
   131   138   139    2
   132   113   112    2
   133   118   117    1
   134   112   111    1
   135   111   110    1
   136   111   114    1
   137   116   117    1
   138   116   115    1
   139    20    18   ar
   140    20    22   ar
   141    18    17   ar
   142    23    22    1
   143    22    21   ar
   144    16    17    1
   145    16    13    1
   146    17    19   ar
   147    21    19   ar
   148   115   114    1
   149    12    13    1
   150    13    14    1
   151    14    15    2
