@<TRIPOS>MOLECULE
tmp/5zhrA00.pdb
 105 102 0 0 0
SMALL
GASTEIGER

@<TRIPOS>ATOM
      1  N        -23.1700   12.2060  -16.4990 N.3    25  PHE25      -0.1241
      2  CA       -24.3020   11.7830  -15.6880 C.3    25  PHE25       0.1605
      3  C        -24.7880   10.3910  -16.0690 C.2    25  PHE25       0.2264
      4  O        -25.0140   10.1020  -17.2450 O.2    25  PHE25      -0.2867
      5  CB       -25.4460   12.8060  -15.8430 C.3    25  PHE25       0.0534
      6  CG       -26.7790   12.3290  -15.3390 C.ar   25  PHE25      -0.0203
      7  CD1      -27.0610   12.3030  -13.9930 C.ar   25  PHE25      -0.0042
      8  CD2      -27.7570   11.9250  -16.2250 C.ar   25  PHE25      -0.0042
      9  CE1      -28.2970   11.8580  -13.5430 C.ar   25  PHE25      -0.0003
     10  CE2      -28.9850   11.4870  -15.7760 C.ar   25  PHE25      -0.0003
     11  CZ       -29.2490   11.4440  -14.4410 C.ar   25  PHE25      -0.0000
     12  N        -19.9870   15.4080  -20.9290 N.3    94  SER94      -0.1202
     13  CA       -21.2600   15.9730  -20.4560 C.3    94  SER94       0.2020
     14  C        -21.0350   16.9090  -19.2510 C.2    94  SER94       0.2618
     15  O        -20.3150   17.8940  -19.4150 O.2    94  SER94      -0.2717
     16  CB       -22.2610   14.8430  -20.1480 C.3    94  SER94       0.2103
     17  OG       -23.5950   15.3440  -20.2710 O.3    94  SER94      -0.2182
     18  N        -21.6120   16.6440  -18.0670 N.am   95  VAL95      -0.1979
     19  CA       -21.3690   17.5220  -16.9140 C.3    95  VAL95       0.1595
     20  C        -19.8550   17.6650  -16.6280 C.2    95  VAL95       0.2287
     21  O        -19.4000   18.7150  -16.1520 O.2    95  VAL95      -0.2864
     22  CB       -22.1350   17.0120  -15.6380 C.3    95  VAL95       0.0276
     23  CG1      -21.7030   15.6080  -15.2630 C.3    95  VAL95       0.0022
     24  CG2      -21.9610   18.0030  -14.4560 C.3    95  VAL95       0.0022
     25  N        -27.6540   23.9640  -21.3230 N.3   123  PHE123     -0.1241
     26  CA       -28.6140   23.0640  -21.9570 C.3   123  PHE123      0.1605
     27  C        -29.9770   23.7260  -22.2260 C.2   123  PHE123      0.2264
     28  O        -30.6490   23.3780  -23.2110 O.2   123  PHE123     -0.2867
     29  CB       -28.7390   21.7970  -21.1020 C.3   123  PHE123      0.0534
     30  CG       -27.5120   20.9430  -21.1600 C.ar  123  PHE123     -0.0203
     31  CD1      -27.2690   20.1370  -22.2770 C.ar  123  PHE123     -0.0042
     32  CD2      -26.5630   20.9710  -20.1470 C.ar  123  PHE123     -0.0042
     33  CE1      -26.1270   19.3510  -22.3630 C.ar  123  PHE123     -0.0003
     34  CE2      -25.4060   20.2050  -20.2350 C.ar  123  PHE123     -0.0003
     35  CZ       -25.1920   19.3800  -21.3450 C.ar  123  PHE123     -0.0000
     36  N        -33.2040   22.4720  -24.8450 N.3   133  PHE133     -0.1241
     37  CA       -34.2610   22.1670  -23.8780 C.3   133  PHE133      0.1605
     38  C        -35.0720   23.4010  -23.5000 C.2   133  PHE133      0.2264
     39  O        -34.5520   24.5100  -23.4900 O.2   133  PHE133     -0.2867
     40  CB       -33.6770   21.5630  -22.5930 C.3   133  PHE133      0.0534
     41  CG       -32.9450   20.2760  -22.8040 C.ar  133  PHE133     -0.0203
     42  CD1      -33.5680   19.0620  -22.5550 C.ar  133  PHE133     -0.0042
     43  CD2      -31.6270   20.2760  -23.2460 C.ar  133  PHE133     -0.0042
     44  CE1      -32.8830   17.8600  -22.7470 C.ar  133  PHE133     -0.0003
     45  CE2      -30.9330   19.0810  -23.4360 C.ar  133  PHE133     -0.0003
     46  CZ       -31.5580   17.8760  -23.1900 C.ar  133  PHE133     -0.0000
     47  N        -34.8440    6.7440  -21.1820 N.3   156  TYR156     -0.1241
     48  CA       -33.7800    7.6740  -21.5310 C.3   156  TYR156      0.1605
     49  C        -32.5680    6.9880  -22.1400 C.2   156  TYR156      0.2264
     50  O        -31.9850    7.5090  -23.0780 O.2   156  TYR156     -0.2867
     51  CB       -33.3630    8.4790  -20.3030 C.3   156  TYR156      0.0534
     52  CG       -32.1390    9.3540  -20.4870 C.ar  156  TYR156     -0.0201
     53  CD1      -32.0850   10.3310  -21.4770 C.ar  156  TYR156     -0.0009
     54  CD2      -31.0470    9.2050  -19.6570 C.ar  156  TYR156     -0.0009
     55  CE1      -30.9500   11.1280  -21.6270 C.ar  156  TYR156      0.0417
     56  CE2      -29.9310   10.0070  -19.7870 C.ar  156  TYR156      0.0417
     57  CZ       -29.8920   10.9560  -20.7730 C.ar  156  TYR156      0.1957
     58  OH       -28.7550   11.7520  -20.9160 O.3   156  TYR156     -0.2866
     59  N        -28.6250   16.1630   -9.3160 N.3   187  VAL187     -0.1231
     60  CA       -27.6050   16.4290  -10.3270 C.3   187  VAL187      0.1692
     61  C        -28.2150   17.0520  -11.5710 C.2   187  VAL187      0.2592
     62  O        -27.6560   18.0190  -12.1400 O.2   187  VAL187     -0.2718
     63  CB       -26.8590   15.1430  -10.7340 C.3   187  VAL187      0.0266
     64  CG1      -25.8930   15.4210  -11.8960 C.3   187  VAL187      0.0020
     65  CG2      -26.1280   14.5950   -9.5600 C.3   187  VAL187      0.0020
     66  N        -29.3480   16.5220  -12.0060 N.am  188  CYS188     -0.1970
     67  CA       -29.9780   17.0420  -13.2030 C.3   188  CYS188      0.1712
     68  C        -30.4300   18.4720  -13.0010 C.2   188  CYS188      0.2296
     69  O        -30.2410   19.3180  -13.8880 O.2   188  CYS188     -0.2864
     70  CB       -31.1480   16.1540  -13.6080 C.3   188  CYS188      0.0983
     71  SG       -30.5870   14.6350  -14.3690 S.3   188  CYS188     -0.0798
     72  N        -27.3000   20.6910  -13.1800 N.3   191  VAL191     -0.1231
     73  CA       -26.7750   20.8730  -14.5230 C.3   191  VAL191      0.1692
     74  C        -27.6640   21.8170  -15.3380 C.2   191  VAL191      0.2592
     75  O        -27.1640   22.7160  -16.0260 O.2   191  VAL191     -0.2718
     76  CB       -26.6080   19.5160  -15.2200 C.3   191  VAL191      0.0266
     77  CG1      -26.3400   19.7040  -16.7040 C.3   191  VAL191      0.0020
     78  CG2      -25.4620   18.7500  -14.5790 C.3   191  VAL191      0.0020
     79  N        -28.9800   21.6630  -15.2110 N.am  192  PHE192     -0.1976
     80  CA       -29.8800   22.4940  -15.9980 C.3   192  PHE192      0.1639
     81  C        -29.9000   23.9430  -15.4950 C.2   192  PHE192      0.2290
     82  O        -30.3720   24.8320  -16.2250 O.2   192  PHE192     -0.2864
     83  CB       -31.2950   21.8970  -16.0010 C.3   192  PHE192      0.0560
     84  CG       -31.4980   20.8460  -17.0440 C.ar  192  PHE192     -0.0200
     85  CD1      -31.8620   19.5530  -16.6890 C.ar  192  PHE192     -0.0042
     86  CD2      -31.3260   21.1460  -18.3940 C.ar  192  PHE192     -0.0042
     87  CE1      -32.0530   18.5770  -17.6680 C.ar  192  PHE192     -0.0003
     88  CE2      -31.5150   20.1730  -19.3820 C.ar  192  PHE192     -0.0003
     89  CZ       -31.8750   18.8890  -19.0170 C.ar  192  PHE192     -0.0000
     90  N        -28.8670   15.7020  -26.4220 N.3   217  SER217     -0.1217
     91  CA       -28.7050   16.7900  -25.4450 C.3   217  SER217      0.1889
     92  C        -27.8660   17.9460  -25.9520 C.2   217  SER217      0.2288
     93  O        -27.7140   18.9450  -25.2420 O.2   217  SER217     -0.2866
     94  CB       -28.0760   16.2710  -24.1510 C.3   217  SER217      0.2089
     95  OG       -28.9370   15.3500  -23.5180 O.3   217  SER217     -0.2183
     96  N        -24.7830   10.4870  -27.8170 N.3   244  HIS244     -0.1241
     97  CA       -24.2390   11.2580  -26.6980 C.3   244  HIS244      0.1621
     98  C        -23.0990   10.5260  -25.9720 C.2   244  HIS244      0.2264
     99  O        -22.3310   11.1800  -25.2570 O.2   244  HIS244     -0.2867
    100  CB       -25.3810   11.5950  -25.7200 C.3   244  HIS244      0.0745
    101  CG       -24.9480   12.3510  -24.5000 C.ar  244  HIS244      0.0817
    102  ND1      -24.4410   13.6320  -24.5620 N.ar  244  HIS244     -0.2268
    103  CD2      -24.9470   12.0110  -23.1890 C.ar  244  HIS244      0.1154
    104  CE1      -24.1660   14.0520  -23.3410 C.ar  244  HIS244      0.1986
    105  NE2      -24.4630   13.0920  -22.4860 N.ar  244  HIS244     -0.2212
@<TRIPOS>BOND
     1    96    97    1
     2    97    98    1
     3    97   100    1
     4    90    91    1
     5    98    99    2
     6    92    91    1
     7    92    93    2
     8   100   101    1
     9    91    94    1
    10    36    37    1
    11   102   101   ar
    12   102   104   ar
    13   101   103   ar
    14    94    95    1
    15    37    38    1
    16    37    40    1
    17    38    39    2
    18    45    43   ar
    19    45    46   ar
    20   104   105   ar
    21    43    41   ar
    22    28    27    2
    23    46    44   ar
    24   103   105   ar
    25    50    49    2
    26    41    40    1
    27    41    42   ar
    28    44    42   ar
    29    33    31   ar
    30    33    35   ar
    31    31    30   ar
    32    27    26    1
    33    49    48    1
    34    26    25    1
    35    26    29    1
    36    55    53   ar
    37    55    57   ar
    38    48    47    1
    39    48    51    1
    40    53    52   ar
    41    35    34   ar
    42    30    29    1
    43    30    32   ar
    44    12    13    1
    45    58    57    1
    46    57    56   ar
    47    52    51    1
    48    52    54   ar
    49    13    16    1
    50    13    14    1
    51    17    16    1
    52    34    32   ar
    53    56    54   ar
    54    15    14    2
    55    88    89   ar
    56    88    86   ar
    57    14    18   am
    58    89    87   ar
    59    86    84   ar
    60    18    19    1
    61    87    85   ar
    62     4     3    2
    63    84    85   ar
    64    84    83    1
    65    19    20    1
    66    19    22    1
    67    77    76    1
    68    20    21    2
    69     1     2    1
    70     8    10   ar
    71     8     6   ar
    72    82    81    2
    73     3     2    1
    74    75    74    2
    75    83    80    1
    76    80    81    1
    77    80    79    1
    78     5     2    1
    79     5     6    1
    80    10    11   ar
    81    22    23    1
    82    22    24    1
    83     6     7   ar
    84    74    79   am
    85    74    73    1
    86    76    78    1
    87    76    73    1
    88    73    72    1
    89    11     9   ar
    90    71    70    1
    91     7     9   ar
    92    69    68    2
    93    70    67    1
    94    67    68    1
    95    67    66    1
    96    62    61    2
    97    66    61   am
    98    64    63    1
    99    61    60    1
   100    63    60    1
   101    63    65    1
   102    60    59    1
