@<TRIPOS>MOLECULE
tmp/5zhsA00.pdb
 142 137 0 0 0
SMALL
GASTEIGER

@<TRIPOS>ATOM
      1  N         15.4580  -15.9640  208.6230 N.3    24  PHE24      -0.1241
      2  CA        14.1390  -16.3540  208.1410 C.3    24  PHE24       0.1605
      3  C         13.0640  -15.3220  208.4340 C.2    24  PHE24       0.2264
      4  O         12.9520  -14.8280  209.5550 O.2    24  PHE24      -0.2867
      5  CB        13.7330  -17.6940  208.7550 C.3    24  PHE24       0.0534
      6  CG        12.2900  -18.0440  208.5340 C.ar   24  PHE24      -0.0203
      7  CD1       11.8550  -18.4960  207.3010 C.ar   24  PHE24      -0.0042
      8  CD2       11.3710  -17.9140  209.5630 C.ar   24  PHE24      -0.0042
      9  CE1       10.5170  -18.8170  207.1010 C.ar   24  PHE24      -0.0003
     10  CE2       10.0380  -18.2320  209.3690 C.ar   24  PHE24      -0.0003
     11  CZ         9.6110  -18.6830  208.1390 C.ar   24  PHE24      -0.0000
     12  N         20.3760  -15.9510  212.4420 N.3    93  SER93      -0.1202
     13  CA        19.6450  -17.2200  212.3420 C.3    93  SER93       0.2020
     14  C         20.2460  -18.1310  211.2600 C.2    93  SER93       0.2618
     15  O         21.4020  -18.5430  211.3920 O.2    93  SER93      -0.2717
     16  CB        18.1570  -16.9590  212.0900 C.3    93  SER93       0.2103
     17  OG        17.3880  -18.0660  212.5160 O.3    93  SER93      -0.2182
     18  N         19.4880  -18.4470  210.2080 N.am   94  VAL94      -0.1979
     19  CA        20.0130  -19.2980  209.1370 C.3    94  VAL94       0.1595
     20  C         21.3070  -18.7080  208.5610 C.2    94  VAL94       0.2287
     21  O         22.2130  -19.4450  208.1790 O.2    94  VAL94      -0.2864
     22  CB        18.9740  -19.5130  208.0100 C.3    94  VAL94       0.0276
     23  CG1       18.5100  -18.1800  207.4230 C.3    94  VAL94       0.0022
     24  CG2       19.5420  -20.4190  206.9210 C.3    94  VAL94       0.0022
     25  N         19.0640  -26.6360  215.8120 N.3   122  PHE122     -0.1241
     26  CA        17.8570  -26.2000  216.5030 C.3   122  PHE122      0.1605
     27  C         17.0870  -27.3540  217.1410 C.2   122  PHE122      0.2264
     28  O         16.2920  -27.1270  218.0580 O.2   122  PHE122     -0.2867
     29  CB        16.9520  -25.4160  215.5440 C.3   122  PHE122      0.0534
     30  CG        17.4950  -24.0570  215.1850 C.ar  122  PHE122     -0.0203
     31  CD1       17.1890  -22.9490  215.9590 C.ar  122  PHE122     -0.0042
     32  CD2       18.3300  -23.8880  214.0890 C.ar  122  PHE122     -0.0042
     33  CE1       17.6990  -21.7000  215.6480 C.ar  122  PHE122     -0.0003
     34  CE2       18.8400  -22.6320  213.7670 C.ar  122  PHE122     -0.0003
     35  CZ        18.5200  -21.5370  214.5480 C.ar  122  PHE122     -0.0000
     36  N         14.0650  -27.4040  220.4240 N.3   132  PHE132     -0.1241
     37  CA        12.9080  -28.0960  219.8610 C.3   132  PHE132      0.1605
     38  C         13.0670  -29.6050  219.8210 C.2   132  PHE132      0.2264
     39  O         14.0930  -30.1220  219.3800 O.2   132  PHE132     -0.2867
     40  CB        12.6320  -27.6100  218.4330 C.3   132  PHE132      0.0534
     41  CG        12.3410  -26.1500  218.3430 C.ar  132  PHE132     -0.0203
     42  CD1       11.0410  -25.6880  218.3890 C.ar  132  PHE132     -0.0042
     43  CD2       13.3760  -25.2320  218.2290 C.ar  132  PHE132     -0.0042
     44  CE1       10.7680  -24.3310  218.3200 C.ar  132  PHE132     -0.0003
     45  CE2       13.1130  -23.8760  218.1580 C.ar  132  PHE132     -0.0003
     46  CZ        11.8050  -23.4250  218.2020 C.ar  132  PHE132     -0.0000
     47  N          8.6630  -29.2460  216.3410 N.3   137  ILE137     -0.1245
     48  CA         8.8040  -28.5420  215.0760 C.3   137  ILE137      0.1561
     49  C          7.8800  -29.1620  214.0270 C.2   137  ILE137      0.2260
     50  O          7.4380  -28.4690  213.1200 O.2   137  ILE137     -0.2867
     51  CB        10.2740  -28.5200  214.5730 C.3   137  ILE137      0.0252
     52  CG1       10.4760  -27.3640  213.5860 C.3   137  ILE137      0.0019
     53  CG2       10.6860  -29.8490  213.9550 C.3   137  ILE137      0.0019
     54  CD1       10.0730  -26.0090  214.1450 C.3   137  ILE137      0.0001
     55  N          4.7550  -27.3730  214.2570 N.3   140  VAL140     -0.1245
     56  CA         4.8970  -26.0770  213.6070 C.3   140  VAL140      0.1561
     57  C          4.7270  -26.2110  212.0990 C.2   140  VAL140      0.2260
     58  O          3.9830  -25.4550  211.4810 O.2   140  VAL140     -0.2867
     59  CB         6.2630  -25.4360  213.9060 C.3   140  VAL140      0.0252
     60  CG1        6.4700  -24.1940  213.0450 C.3   140  VAL140      0.0019
     61  CG2        6.3660  -25.0930  215.3880 C.3   140  VAL140      0.0019
     62  N          2.0700  -24.4290  209.6940 N.3   144  MET144     -0.1245
     63  CA         2.5100  -23.6150  208.5610 C.3   144  MET144      0.1570
     64  C          1.8420  -24.0640  207.2660 C.2   144  MET144      0.2261
     65  O          1.4800  -23.2430  206.4220 O.2   144  MET144     -0.2867
     66  CB         4.0300  -23.6870  208.3900 C.3   144  MET144      0.0387
     67  CG         4.8360  -23.1090  209.5350 C.3   144  MET144      0.0595
     68  SD         6.6040  -23.1620  209.1690 S.3   144  MET144     -0.1393
     69  CE         6.6100  -22.1980  207.6640 C.3   144  MET144      0.0692
     70  N         -0.6290  -19.1770  211.2920 N.3   151  TRP151     -0.1241
     71  CA         0.6180  -19.5350  211.9540 C.3   151  TRP151      0.1605
     72  C          1.5190  -18.3110  212.1110 C.2   151  TRP151      0.2264
     73  O          2.0720  -18.0730  213.1910 O.2   151  TRP151     -0.2867
     74  CB         1.3700  -20.6360  211.1980 C.3   151  TRP151      0.0550
     75  CG         2.7660  -20.7480  211.7170 C.ar  151  TRP151      0.0003
     76  CD1        3.1780  -21.4390  212.8180 C.ar  151  TRP151      0.0946
     77  CD2        3.9280  -20.1030  211.1850 C.ar  151  TRP151      0.0152
     78  NE1        4.5330  -21.2740  212.9980 N.ar  151  TRP151     -0.2442
     79  CE2        5.0150  -20.4560  212.0090 C.ar  151  TRP151      0.0810
     80  CE3        4.1580  -19.2680  210.0890 C.ar  151  TRP151      0.0012
     81  CZ2        6.3100  -20.0030  211.7680 C.ar  151  TRP151      0.0191
     82  CZ3        5.4420  -18.8130  209.8570 C.ar  151  TRP151      0.0001
     83  CH2        6.5010  -19.1820  210.6920 C.ar  151  TRP151      0.0015
     84  N          3.2970  -16.5950  215.3820 N.3   155  TYR155     -0.1241
     85  CA         4.7440  -16.7230  215.5560 C.3   155  TYR155      0.1605
     86  C          5.4350  -15.3720  215.7280 C.2   155  TYR155      0.2264
     87  O          6.3550  -15.2440  216.5320 O.2   155  TYR155     -0.2867
     88  CB         5.3480  -17.4800  214.3670 C.3   155  TYR155      0.0534
     89  CG         6.8630  -17.4590  214.2820 C.ar  155  TYR155     -0.0201
     90  CD1        7.6430  -18.0860  215.2420 C.ar  155  TYR155     -0.0009
     91  CD2        7.5060  -16.8400  213.2170 C.ar  155  TYR155     -0.0009
     92  CE1        9.0310  -18.0780  215.1530 C.ar  155  TYR155      0.0417
     93  CE2        8.8890  -16.8270  213.1190 C.ar  155  TYR155      0.0417
     94  CZ         9.6440  -17.4440  214.0870 C.ar  155  TYR155      0.1957
     95  OH        11.0230  -17.4190  213.9750 O.3   155  TYR155     -0.2866
     96  N         12.5210  -23.4590  206.3210 N.3   187  CYS187     -0.1235
     97  CA        12.4890  -23.8480  207.7240 C.3   187  CYS187      0.1677
     98  C         12.8870  -25.3040  207.8890 C.2   187  CYS187      0.2270
     99  O         13.6600  -25.6400  208.7810 O.2   187  CYS187     -0.2867
    100  CB        11.1120  -23.6010  208.3210 C.3   187  CYS187      0.0956
    101  SG        10.8390  -21.8650  208.6930 S.3   187  CYS187     -0.0801
    102  N         16.6280  -25.5470  207.4630 N.3   190  VAL190     -0.1231
    103  CA        17.3180  -25.1190  208.6740 C.3   190  VAL190      0.1692
    104  C         17.2690  -26.1990  209.7550 C.2   190  VAL190      0.2592
    105  O         18.2750  -26.4900  210.3930 O.2   190  VAL190     -0.2718
    106  CB        16.7220  -23.8140  209.2370 C.3   190  VAL190      0.0266
    107  CG1       17.3440  -23.4750  210.5860 C.3   190  VAL190      0.0020
    108  CG2       16.9440  -22.6620  208.2700 C.3   190  VAL190      0.0020
    109  N         16.1050  -26.8130  209.9440 N.am  191  PHE191     -0.1976
    110  CA        15.9620  -27.7780  211.0330 C.3   191  PHE191      0.1639
    111  C         16.5680  -29.1480  210.7510 C.2   191  PHE191      0.2290
    112  O         16.6770  -29.9680  211.6590 O.2   191  PHE191     -0.2864
    113  CB        14.4860  -27.9150  211.4130 C.3   191  PHE191      0.0560
    114  CG        14.0670  -26.9190  212.4370 C.ar  191  PHE191     -0.0200
    115  CD1       13.7840  -25.6120  212.0760 C.ar  191  PHE191     -0.0042
    116  CD2       14.0260  -27.2690  213.7800 C.ar  191  PHE191     -0.0042
    117  CE1       13.4320  -24.6790  213.0340 C.ar  191  PHE191     -0.0003
    118  CE2       13.6750  -26.3400  214.7420 C.ar  191  PHE191     -0.0003
    119  CZ        13.3810  -25.0480  214.3720 C.ar  191  PHE191     -0.0000
    120  N         13.0630  -17.5590  221.7720 N.3   215  VAL215     -0.1231
    121  CA        12.1700  -18.7070  221.6450 C.3   215  VAL215      0.1692
    122  C         12.7860  -19.8260  220.7920 C.2   215  VAL215      0.2592
    123  O         12.3960  -20.9900  220.9040 O.2   215  VAL215     -0.2718
    124  CB        10.8080  -18.2700  221.0500 C.3   215  VAL215      0.0266
    125  CG1       10.9820  -17.7790  219.6210 C.3   215  VAL215      0.0020
    126  CG2        9.7850  -19.4040  221.1290 C.3   215  VAL215      0.0020
    127  N         13.7770  -19.4810  219.9740 N.am  216  SER216     -0.1952
    128  CA        14.4260  -20.4630  219.1080 C.3   216  SER216      0.1924
    129  C         15.8560  -20.8170  219.5080 C.2   216  SER216      0.2314
    130  O         16.4340  -21.7470  218.9410 O.2   216  SER216     -0.2863
    131  CB        14.4340  -19.9680  217.6600 C.3   216  SER216      0.2116
    132  OG        13.1280  -19.9710  217.1260 O.3   216  SER216     -0.2180
    133  N         14.4280  -12.7840  219.5310 N.3   243  HIS243     -0.1241
    134  CA        15.2080  -13.4270  218.4780 C.3   243  HIS243      0.1621
    135  C         15.6900  -12.4160  217.4450 C.2   243  HIS243      0.2264
    136  O         16.6040  -12.6950  216.6750 O.2   243  HIS243     -0.2867
    137  CB        14.3550  -14.5200  217.8130 C.3   243  HIS243      0.0745
    138  CG        15.0280  -15.2290  216.6760 C.ar  243  HIS243      0.0817
    139  ND1       16.1490  -16.0150  216.8410 N.ar  243  HIS243     -0.2268
    140  CD2       14.7090  -15.2980  215.3630 C.ar  243  HIS243      0.1154
    141  CE1       16.5030  -16.5220  215.6730 C.ar  243  HIS243      0.1986
    142  NE2       15.6480  -16.1040  214.7590 N.ar  243  HIS243     -0.2212
@<TRIPOS>BOND
     1    96    97    1
     2    65    64    2
     3    24    22    1
     4     9     7   ar
     5     9    11   ar
     6    64    63    1
     7     7     6   ar
     8    23    22    1
     9   102   103    1
    10    69    68    1
    11    97    98    1
    12    97   100    1
    13    98    99    2
    14    22    19    1
    15    11    10   ar
    16     2     3    1
    17     2     1    1
    18     2     5    1
    19    21    20    2
    20   108   106    1
    21   100   101    1
    22    66    63    1
    23    66    67    1
    24     3     4    2
    25     6     5    1
    26     6     8   ar
    27    20    19    1
    28    63    62    1
    29   103   106    1
    30   103   104    1
    31    19    18    1
    32    68    67    1
    33   106   107    1
    34    10     8   ar
    35   104   109   am
    36   104   105    2
    37    82    80   ar
    38    82    83   ar
    39   109   110    1
    40    80    77   ar
    41    18    14   am
    42    83    81   ar
    43   111   110    1
    44   111   112    2
    45   110   113    1
    46    77    75   ar
    47    77    79   ar
    48    74    75    1
    49    74    71    1
    50    14    15    2
    51    14    13    1
    52    70    71    1
    53   113   114    1
    54    58    57    2
    55    75    76   ar
    56    81    79   ar
    57    71    72    1
    58    79    78   ar
    59   115   114   ar
    60   115   117   ar
    61    16    13    1
    62    16    17    1
    63    57    56    1
    64    72    73    2
    65    13    12    1
    66   114   116   ar
    67    76    78   ar
    68   117   119   ar
    69    60    59    1
    70    93    91   ar
    71    93    94   ar
    72    50    49    2
    73    91    89   ar
    74    52    54    1
    75    52    51    1
    76    56    59    1
    77    56    55    1
    78    34    32   ar
    79    34    35   ar
    80   116   118   ar
    81    59    61    1
    82    53    51    1
    83    95    94    1
    84    49    48    1
    85    94    92   ar
    86    32    30   ar
    87    89    88    1
    88    89    90   ar
    89    88    85    1
    90   119   118   ar
    91    35    33   ar
    92    51    48    1
    93   142   140   ar
    94   142   141   ar
    95    48    47    1
    96    92    90   ar
    97    30    29    1
    98    30    31   ar
    99   140   138   ar
   100    84    85    1
   101    29    26    1
   102    85    86    1
   103    33    31   ar
   104   141   139   ar
   105    86    87    2
   106    25    26    1
   107    26    27    1
   108   136   135    2
   109   138   139   ar
   110   138   137    1
   111   132   131    1
   112    27    28    2
   113   135   134    1
   114   131   128    1
   115   137   134    1
   116    45    46   ar
   117    45    43   ar
   118    46    44   ar
   119    43    41   ar
   120    44    42   ar
   121    41    42   ar
   122    41    40    1
   123    40    37    1
   124   134   133    1
   125   130   129    2
   126   128   129    1
   127   128   127    1
   128    39    38    2
   129   125   124    1
   130    38    37    1
   131    37    36    1
   132   127   122   am
   133   122   123    2
   134   122   121    1
   135   124   126    1
   136   124   121    1
   137   121   120    1
