@<TRIPOS>MOLECULE
tmp/5zhtA00.pdb
 161 156 0 0 0
SMALL
GASTEIGER

@<TRIPOS>ATOM
      1  N         15.6800  -15.8900  208.9600 N.3    25  PHE25      -0.1241
      2  CA        14.3720  -16.3010  208.4740 C.3    25  PHE25       0.1605
      3  C         13.2890  -15.2780  208.7570 C.2    25  PHE25       0.2264
      4  O         13.1590  -14.7960  209.8770 O.2    25  PHE25      -0.2867
      5  CB        13.9780  -17.6430  209.0930 C.3    25  PHE25       0.0534
      6  CG        12.5440  -18.0180  208.8530 C.ar   25  PHE25      -0.0203
      7  CD1       12.1310  -18.4600  207.6080 C.ar   25  PHE25      -0.0042
      8  CD2       11.6090  -17.9220  209.8690 C.ar   25  PHE25      -0.0042
      9  CE1       10.8060  -18.8030  207.3840 C.ar   25  PHE25      -0.0003
     10  CE2       10.2840  -18.2610  209.6510 C.ar   25  PHE25      -0.0003
     11  CZ         9.8840  -18.6980  208.4070 C.ar   25  PHE25      -0.0000
     12  N         20.6260  -15.9800  212.7300 N.3    94  SER94      -0.1202
     13  CA        19.9080  -17.2520  212.6230 C.3    94  SER94       0.2020
     14  C         20.5040  -18.1620  211.5370 C.2    94  SER94       0.2618
     15  O         21.6470  -18.6080  211.6680 O.2    94  SER94      -0.2717
     16  CB        18.4230  -16.9960  212.3610 C.3    94  SER94       0.2103
     17  OG        17.6510  -18.1000  212.7830 O.3    94  SER94      -0.2182
     18  N         19.7470  -18.4380  210.4760 N.am   95  VAL95      -0.1979
     19  CA        20.2510  -19.2880  209.3990 C.3    95  VAL95       0.1595
     20  C         21.5530  -18.7160  208.8200 C.2    95  VAL95       0.2287
     21  O         22.4570  -19.4670  208.4480 O.2    95  VAL95      -0.2864
     22  CB        19.1990  -19.4750  208.2750 C.3    95  VAL95       0.0276
     23  CG1       18.7630  -18.1280  207.6910 C.3    95  VAL95       0.0022
     24  CG2       19.7390  -20.3910  207.1760 C.3    95  VAL95       0.0022
     25  N         19.2470  -26.5990  216.1220 N.3   123  PHE123     -0.1241
     26  CA        18.0490  -26.1460  216.8260 C.3   123  PHE123      0.1605
     27  C         17.2400  -27.2780  217.4650 C.2   123  PHE123      0.2264
     28  O         16.4130  -27.0200  218.3430 O.2   123  PHE123     -0.2867
     29  CB        17.1620  -25.3370  215.8750 C.3   123  PHE123      0.0534
     30  CG        17.7310  -23.9870  215.5250 C.ar  123  PHE123     -0.0203
     31  CD1       17.4640  -22.8830  216.3140 C.ar  123  PHE123     -0.0042
     32  CD2       18.5460  -23.8250  214.4090 C.ar  123  PHE123     -0.0042
     33  CE1       17.9890  -21.6430  216.0050 C.ar  123  PHE123     -0.0003
     34  CE2       19.0760  -22.5820  214.0930 C.ar  123  PHE123     -0.0003
     35  CZ        18.7980  -21.4900  214.8900 C.ar  123  PHE123     -0.0000
     36  N         14.1380  -27.4040  220.7460 N.3   133  PHE133     -0.1241
     37  CA        12.9560  -28.0740  220.2100 C.3   133  PHE133      0.1605
     38  C         13.1470  -29.5820  220.0880 C.2   133  PHE133      0.2264
     39  O         14.1840  -30.0540  219.6190 O.2   133  PHE133     -0.2867
     40  CB        12.5900  -27.5090  218.8260 C.3   133  PHE133      0.0534
     41  CG        11.7670  -26.2460  218.8710 C.ar  133  PHE133     -0.0203
     42  CD1       10.3980  -26.2930  218.6670 C.ar  133  PHE133     -0.0042
     43  CD2       12.3630  -25.0190  219.1010 C.ar  133  PHE133     -0.0042
     44  CE1        9.6350  -25.1420  218.6940 C.ar  133  PHE133     -0.0003
     45  CE2       11.6080  -23.8630  219.1320 C.ar  133  PHE133     -0.0003
     46  CZ        10.2410  -23.9230  218.9320 C.ar  133  PHE133     -0.0000
     47  N          8.6730  -29.3370  216.6370 N.3   138  ILE138     -0.1245
     48  CA         8.8130  -28.5980  215.3920 C.3   138  ILE138      0.1561
     49  C          7.9290  -29.2180  214.3110 C.2   138  ILE138      0.2260
     50  O          7.4900  -28.5190  213.4020 O.2   138  ILE138     -0.2867
     51  CB        10.2920  -28.5230  214.9150 C.3   138  ILE138      0.0252
     52  CG1       10.4920  -27.3220  213.9820 C.3   138  ILE138      0.0019
     53  CG2       10.7420  -29.8180  214.2670 C.3   138  ILE138      0.0019
     54  CD1       10.1080  -25.9920  214.6090 C.3   138  ILE138      0.0001
     55  N          4.7570  -27.6040  214.5500 N.3   141  VAL141     -0.1231
     56  CA         4.8750  -26.2790  213.9500 C.3   141  VAL141      0.1692
     57  C          4.7580  -26.3540  212.4320 C.2   141  VAL141      0.2592
     58  O          4.0410  -25.5640  211.8130 O.2   141  VAL141     -0.2718
     59  CB         6.2120  -25.6110  214.3210 C.3   141  VAL141      0.0266
     60  CG1        6.4210  -24.3330  213.5110 C.3   141  VAL141      0.0020
     61  CG2        6.2530  -25.3260  215.8160 C.3   141  VAL141      0.0020
     62  N          5.4610  -27.3120  211.8390 N.am  142  PHE142     -0.1976
     63  CA         5.4320  -27.4900  210.3910 C.3   142  PHE142      0.1639
     64  C          4.0240  -27.8440  209.9160 C.2   142  PHE142      0.2290
     65  O          3.5910  -27.3760  208.8640 O.2   142  PHE142     -0.2864
     66  CB         6.4290  -28.5660  209.9570 C.3   142  PHE142      0.0560
     67  CG         7.8690  -28.1730  210.1470 C.ar  142  PHE142     -0.0200
     68  CD1        8.2280  -26.8400  210.2720 C.ar  142  PHE142     -0.0042
     69  CD2        8.8620  -29.1350  210.1950 C.ar  142  PHE142     -0.0042
     70  CE1        9.5530  -26.4760  210.4440 C.ar  142  PHE142     -0.0003
     71  CE2       10.1920  -28.7760  210.3700 C.ar  142  PHE142     -0.0003
     72  CZ        10.5330  -27.4470  210.4920 C.ar  142  PHE142     -0.0000
     73  N          2.1670  -24.4950  209.9170 N.3   145  MET145     -0.1245
     74  CA         2.6170  -23.6730  208.7940 C.3   145  MET145      0.1570
     75  C          1.9460  -24.1150  207.4990 C.2   145  MET145      0.2261
     76  O          1.5820  -23.2890  206.6600 O.2   145  MET145     -0.2867
     77  CB         4.1400  -23.7440  208.6250 C.3   145  MET145      0.0387
     78  CG         4.9540  -23.1690  209.7770 C.3   145  MET145      0.0595
     79  SD         6.7300  -23.2010  209.4360 S.3   145  MET145     -0.1393
     80  CE         6.7980  -22.1480  207.9910 C.3   145  MET145      0.0692
     81  N         -0.4570  -19.2800  211.4920 N.3   152  TRP152     -0.1241
     82  CA         0.8200  -19.6240  212.1070 C.3   152  TRP152      0.1605
     83  C          1.7010  -18.3870  212.2820 C.2   152  TRP152      0.2264
     84  O          2.2810  -18.1760  213.3510 O.2   152  TRP152     -0.2867
     85  CB         1.5780  -20.6750  211.2900 C.3   152  TRP152      0.0550
     86  CG         3.0010  -20.7600  211.7430 C.ar  152  TRP152      0.0003
     87  CD1        3.4790  -21.4570  212.8150 C.ar  152  TRP152      0.0946
     88  CD2        4.1260  -20.0810  211.1710 C.ar  152  TRP152      0.0152
     89  NE1        4.8340  -21.2650  212.9370 N.ar  152  TRP152     -0.2442
     90  CE2        5.2570  -20.4260  211.9400 C.ar  152  TRP152      0.0810
     91  CE3        4.2890  -19.2210  210.0810 C.ar  152  TRP152      0.0012
     92  CZ2        6.5310  -19.9420  211.6530 C.ar  152  TRP152      0.0191
     93  CZ3        5.5550  -18.7390  209.7990 C.ar  152  TRP152      0.0001
     94  CH2        6.6600  -19.1020  210.5830 C.ar  152  TRP152      0.0015
     95  N          3.5050  -16.7280  215.6060 N.3   156  TYR156     -0.1241
     96  CA         4.9520  -16.8290  215.7780 C.3   156  TYR156      0.1605
     97  C          5.6320  -15.4750  215.9640 C.2   156  TYR156      0.2264
     98  O          6.5650  -15.3520  216.7560 O.2   156  TYR156     -0.2867
     99  CB         5.5700  -17.5570  214.5810 C.3   156  TYR156      0.0534
    100  CG         7.0830  -17.5060  214.5150 C.ar  156  TYR156     -0.0201
    101  CD1        7.8640  -18.0310  215.5380 C.ar  156  TYR156     -0.0009
    102  CD2        7.7280  -16.9540  213.4150 C.ar  156  TYR156     -0.0009
    103  CE1        9.2490  -17.9900  215.4720 C.ar  156  TYR156      0.0417
    104  CE2        9.1100  -16.9140  213.3360 C.ar  156  TYR156      0.0417
    105  CZ         9.8660  -17.4320  214.3670 C.ar  156  TYR156      0.1957
    106  OH        11.2440  -17.3850  214.2770 O.3   156  TYR156     -0.2866
    107  N          6.3170  -14.2120  219.4730 N.3   159  LEU159     -0.1245
    108  CA         7.2270  -15.1040  220.1860 C.3   159  LEU159      0.1561
    109  C          8.6680  -14.8290  219.7780 C.2   159  LEU159      0.2260
    110  O          9.5630  -14.7980  220.6230 O.2   159  LEU159     -0.2867
    111  CB         6.8800  -16.5670  219.9250 C.3   159  LEU159      0.0270
    112  CG         5.4970  -17.0420  220.3750 C.3   159  LEU159      0.0019
    113  CD1        5.2890  -18.4890  219.9570 C.3   159  LEU159      0.0001
    114  CD2        5.3160  -16.8770  221.8810 C.3   159  LEU159      0.0001
    115  N         12.6630  -23.3770  206.7160 N.3   188  CYS188     -0.1235
    116  CA        12.6090  -23.8040  208.1080 C.3   188  CYS188      0.1677
    117  C         13.0160  -25.2610  208.2530 C.2   188  CYS188      0.2270
    118  O         13.7950  -25.6070  209.1410 O.2   188  CYS188     -0.2867
    119  CB        11.2160  -23.5900  208.6770 C.3   188  CYS188      0.0956
    120  SG        10.9100  -21.8810  209.0800 S.3   188  CYS188     -0.0801
    121  N         16.7700  -25.5570  207.8190 N.3   191  VAL191     -0.1231
    122  CA        17.4820  -25.1210  209.0070 C.3   191  VAL191      0.1692
    123  C         17.4160  -26.1820  210.1070 C.2   191  VAL191      0.2592
    124  O         18.4200  -26.4860  210.7450 O.2   191  VAL191     -0.2718
    125  CB        16.9230  -23.7880  209.5470 C.3   191  VAL191      0.0266
    126  CG1       17.5380  -23.4510  210.8930 C.3   191  VAL191      0.0020
    127  CG2       17.1910  -22.6670  208.5520 C.3   191  VAL191      0.0020
    128  N         16.2430  -26.7730  210.3070 N.am  192  PHE192     -0.1976
    129  CA        16.0880  -27.7170  211.4080 C.3   192  PHE192      0.1639
    130  C         16.6910  -29.0870  211.1240 C.2   192  PHE192      0.2290
    131  O         16.7960  -29.9140  212.0300 O.2   192  PHE192     -0.2864
    132  CB        14.6100  -27.8500  211.7870 C.3   192  PHE192      0.0560
    133  CG        14.1840  -26.8570  212.8220 C.ar  192  PHE192     -0.0200
    134  CD1       13.8690  -25.5590  212.4640 C.ar  192  PHE192     -0.0042
    135  CD2       14.1480  -27.2060  214.1620 C.ar  192  PHE192     -0.0042
    136  CE1       13.5030  -24.6290  213.4180 C.ar  192  PHE192     -0.0003
    137  CE2       13.7840  -26.2800  215.1220 C.ar  192  PHE192     -0.0003
    138  CZ        13.4620  -24.9910  214.7540 C.ar  192  PHE192     -0.0000
    139  N         13.2800  -17.6620  222.0770 N.3   216  VAL216     -0.1231
    140  CA        12.3940  -18.8110  221.9270 C.3   216  VAL216      0.1692
    141  C         13.0410  -19.9540  221.1260 C.2   216  VAL216      0.2592
    142  O         12.6410  -21.1120  221.2530 O.2   216  VAL216     -0.2718
    143  CB        11.0610  -18.3790  221.2570 C.3   216  VAL216      0.0266
    144  CG1       11.3060  -17.9190  219.8250 C.3   216  VAL216      0.0020
    145  CG2       10.0230  -19.4960  221.3150 C.3   216  VAL216      0.0020
    146  N         14.0530  -19.6300  220.3220 N.am  217  SER217     -0.1952
    147  CA        14.7070  -20.6260  219.4720 C.3   217  SER217      0.1924
    148  C         16.1430  -20.9380  219.8880 C.2   217  SER217      0.2314
    149  O         16.7650  -21.8470  219.3330 O.2   217  SER217     -0.2863
    150  CB        14.7030  -20.1610  218.0110 C.3   217  SER217      0.2116
    151  OG        13.3900  -20.1210  217.5010 O.3   217  SER217     -0.2180
    152  N         14.6050  -12.8940  219.8970 N.3   244  HIS244     -0.1241
    153  CA        15.3960  -13.5020  218.8350 C.3   244  HIS244      0.1621
    154  C         15.8550  -12.4780  217.7980 C.2   244  HIS244      0.2264
    155  O         16.7640  -12.7540  217.0160 O.2   244  HIS244     -0.2867
    156  CB        14.5620  -14.6110  218.1710 C.3   244  HIS244      0.0745
    157  CG        15.2540  -15.3210  217.0480 C.ar  244  HIS244      0.0817
    158  ND1       16.3720  -16.1040  217.2360 N.ar  244  HIS244     -0.2268
    159  CD2       14.9620  -15.3910  215.7280 C.ar  244  HIS244      0.1154
    160  CE1       16.7510  -16.6120  216.0760 C.ar  244  HIS244      0.1986
    161  NE2       15.9120  -16.1960  215.1450 N.ar  244  HIS244     -0.2212
@<TRIPOS>BOND
     1    76    75    2
     2   115   116    1
     3    24    22    1
     4     9     7   ar
     5     9    11   ar
     6    75    74    1
     7     7     6   ar
     8    23    22    1
     9   121   122    1
    10    80    79    1
    11   116   117    1
    12   116   119    1
    13   117   118    2
    14    22    19    1
    15    11    10   ar
    16    21    20    2
    17     2     3    1
    18     2     1    1
    19     2     5    1
    20   127   125    1
    21    77    74    1
    22    77    78    1
    23   119   120    1
    24     3     4    2
    25    74    73    1
    26    20    19    1
    27     6     5    1
    28     6     8   ar
    29    65    64    2
    30   122   125    1
    31   122   123    1
    32    19    18    1
    33    79    78    1
    34   125   126    1
    35    10     8   ar
    36    93    91   ar
    37    93    94   ar
    38    64    63    1
    39    66    67    1
    40    66    63    1
    41    91    88   ar
    42   123   128   am
    43   123   124    2
    44    67    69   ar
    45    67    68   ar
    46    69    71   ar
    47    68    70   ar
    48   128   129    1
    49    71    72   ar
    50    63    62    1
    51    70    72   ar
    52    18    14   am
    53    94    92   ar
    54   130   129    1
    55   130   131    2
    56    88    86   ar
    57    88    90   ar
    58    85    86    1
    59    85    82    1
    60   129   132    1
    61    81    82    1
    62    14    15    2
    63    14    13    1
    64    92    90   ar
    65    86    87   ar
    66   132   133    1
    67    58    57    2
    68    62    57   am
    69    90    89   ar
    70    82    83    1
    71    83    84    2
    72    16    13    1
    73    16    17    1
    74    57    56    1
    75   134   133   ar
    76   134   136   ar
    77    13    12    1
    78    87    89   ar
    79   133   135   ar
    80   104   102   ar
    81   104   105   ar
    82    50    49    2
    83   102   100   ar
    84   136   138   ar
    85    60    59    1
    86    56    59    1
    87    56    55    1
    88    52    54    1
    89    52    51    1
    90    34    32   ar
    91    34    35   ar
    92   135   137   ar
    93    53    51    1
    94   106   105    1
    95    49    48    1
    96    59    61    1
    97   105   103   ar
    98    32    30   ar
    99   100    99    1
   100   100   101   ar
   101    99    96    1
   102   138   137   ar
   103    35    33   ar
   104    51    48    1
   105   161   159   ar
   106   161   160   ar
   107    48    47    1
   108   103   101   ar
   109    30    29    1
   110    30    31   ar
   111    95    96    1
   112   159   157   ar
   113    96    97    1
   114    29    26    1
   115    97    98    2
   116    33    31   ar
   117   160   158   ar
   118    25    26    1
   119    26    27    1
   120   155   154    2
   121   157   158   ar
   122   157   156    1
   123    27    28    2
   124   151   150    1
   125   154   153    1
   126   150   147    1
   127   156   153    1
   128    42    44   ar
   129    42    41   ar
   130    44    46   ar
   131    40    41    1
   132    40    37    1
   133   153   152    1
   134    41    43   ar
   135    46    45   ar
   136    43    45   ar
   137   149   148    2
   138   147   148    1
   139   147   146    1
   140   107   108    1
   141    39    38    2
   142   109   108    1
   143   109   110    2
   144   144   143    1
   145   111   108    1
   146   111   112    1
   147   113   112    1
   148    38    37    1
   149    37    36    1
   150   146   141   am
   151   112   114    1
   152   141   142    2
   153   141   140    1
   154   143   145    1
   155   143   140    1
   156   140   139    1
