@<TRIPOS>MOLECULE
tmp/5zhxB00.pdb
 150 137 0 0 0
SMALL
GASTEIGER

@<TRIPOS>ATOM
      1  N        -27.2360    6.9580    7.3060 N.3    12  LEU12      -0.1245
      2  CA       -27.9000    7.6120    8.4380 C.3    12  LEU12       0.1561
      3  C        -29.2580    8.2000    8.0940 C.2    12  LEU12       0.2260
      4  O        -30.1170    8.3800    8.9750 O.2    12  LEU12      -0.2867
      5  CB       -27.0300    8.7070    9.0570 C.3    12  LEU12       0.0270
      6  CG       -26.1700    8.3020   10.2570 C.3    12  LEU12       0.0019
      7  CD1      -25.6720    6.8660   10.2170 C.3    12  LEU12       0.0001
      8  CD2      -24.9830    9.2430   10.3880 C.3    12  LEU12       0.0001
      9  N        -29.8480    1.8520   11.1020 N.3    20  LEU20      -0.1245
     10  CA       -29.0930    2.8530   11.8600 C.3    20  LEU20       0.1561
     11  C        -28.2130    2.1800   12.8830 C.2    20  LEU20       0.2260
     12  O        -27.0020    2.4020   12.9330 O.2    20  LEU20      -0.2867
     13  CB       -30.0410    3.8220   12.5570 C.3    20  LEU20       0.0270
     14  CG       -30.7660    4.7540   11.5880 C.3    20  LEU20       0.0019
     15  CD1      -31.9180    5.4610   12.2910 C.3    20  LEU20       0.0001
     16  CD2      -29.7920    5.7610   10.9770 C.3    20  LEU20       0.0001
     17  N        -24.4950    2.6000   12.5590 N.3    24  GLY24      -0.1225
     18  CA       -23.9550    3.1290   13.8070 C.3    24  GLY24       0.1811
     19  C        -22.8250    2.2960   14.3830 C.2    24  GLY24       0.2280
     20  O        -21.7160    2.8030   14.5970 O.2    24  GLY24      -0.2866
     21  N        -19.9220    2.8150   11.9550 N.3    27  LEU27      -0.1231
     22  CA       -19.3440    4.1660   12.1330 C.3    27  LEU27       0.1693
     23  C        -18.5600    4.2020   13.4380 C.2    27  LEU27       0.2592
     24  O        -17.4830    4.7950   13.5070 O.2    27  LEU27      -0.2718
     25  CB       -20.4160    5.2790   12.1760 C.3    27  LEU27       0.0284
     26  CG       -20.6230    6.4360   11.1700 C.3    27  LEU27       0.0019
     27  CD1      -19.3880    6.7740   10.3430 C.3    27  LEU27       0.0001
     28  CD2      -21.8710    6.3050   10.3000 C.3    27  LEU27       0.0001
     29  N        -19.1290    3.5630   14.4640 N.am   28  GLY28      -0.1957
     30  CA       -18.4860    3.3900   15.7680 C.3    28  GLY28       0.1869
     31  C        -17.0000    3.1050   15.6810 C.2    28  GLY28       0.2309
     32  O        -16.1730    3.9460   16.0170 O.2    28  GLY28      -0.2863
     33  N        -14.2880    4.9970   13.4300 N.3    31  CYS31      -0.1221
     34  CA       -13.4890    5.8870   14.2630 C.3    31  CYS31       0.1808
     35  C        -13.5600    5.8810   15.8190 C.2    31  CYS31       0.2601
     36  O        -13.9830    6.8520   16.4280 O.2    31  CYS31      -0.2717
     37  CB       -13.7640    7.2890   13.7420 C.3    31  CYS31       0.0970
     38  SG       -15.5190    7.7120   13.5870 S.3    31  CYS31      -0.0800
     39  N        -13.0450    4.8310   16.4520 N.am   32  TYR32      -0.1976
     40  CA       -12.9390    4.7820   17.9090 C.3    32  TYR32       0.1639
     41  C        -11.5200    5.2260   18.1970 C.2    32  TYR32       0.2290
     42  O        -10.5770    4.6760   17.6180 O.2    32  TYR32      -0.2864
     43  CB       -13.1600    3.3800   18.4640 C.3    32  TYR32       0.0560
     44  CG       -12.9630    3.3300   19.9540 C.ar   32  TYR32      -0.0198
     45  CD1      -13.9520    3.7860   20.8170 C.ar   32  TYR32      -0.0009
     46  CD2      -11.7800    2.8530   20.5040 C.ar   32  TYR32      -0.0009
     47  CE1      -13.7770    3.7520   22.1890 C.ar   32  TYR32       0.0417
     48  CE2      -11.5930    2.8160   21.8770 C.ar   32  TYR32       0.0417
     49  CZ       -12.5970    3.2650   22.7160 C.ar   32  TYR32       0.1957
     50  OH       -12.4260    3.2320   24.0810 O.3    32  TYR32      -0.2866
     51  N        -13.2220   11.3740   13.3980 N.3    38  GLN38      -0.1245
     52  CA       -14.3030   12.0750   14.1290 C.3    38  GLN38       0.1566
     53  C        -14.4500   13.5160   13.6500 C.2    38  GLN38       0.2260
     54  O        -15.5610   14.0300   13.5070 O.2    38  GLN38      -0.2867
     55  CB       -14.0280   12.1200   15.6420 C.3    38  GLN38       0.0367
     56  CG       -14.2840   10.8360   16.4030 C.3    38  GLN38       0.0905
     57  CD       -14.1330   10.9710   17.9290 C.2    38  GLN38       0.2608
     58  OE1      -14.6040   11.9230   18.5820 O.2    38  GLN38      -0.2717
     59  NE2      -13.4800    9.9890   18.5040 N.am   38  GLN38      -0.0878
     60  N        -16.1210   13.7150   10.3740 N.3    41  LEU41      -0.1245
     61  CA       -17.5670   13.5000   10.5870 C.3    41  LEU41       0.1561
     62  C        -18.3210   14.7800   10.9400 C.2    41  LEU41       0.2260
     63  O        -19.5090   14.8980   10.6440 O.2    41  LEU41      -0.2867
     64  CB       -17.8280   12.4570   11.6820 C.3    41  LEU41       0.0270
     65  CG       -18.0500   11.0200   11.2160 C.3    41  LEU41       0.0019
     66  CD1      -18.0170   10.0650   12.4000 C.3    41  LEU41       0.0001
     67  CD2      -19.3650   10.9070   10.4530 C.3    41  LEU41       0.0001
     68  N        -22.3770   15.7130   10.2540 N.3    46  VAL46      -0.1245
     69  CA       -23.2650   14.7040   10.8030 C.3    46  VAL46       0.1561
     70  C        -24.0480   15.1980   12.0290 C.2    46  VAL46       0.2260
     71  O        -25.1350   14.6890   12.3190 O.2    46  VAL46      -0.2867
     72  CB       -22.4580   13.4200   11.1300 C.3    46  VAL46       0.0252
     73  CG1      -21.7140   13.5290   12.4610 C.3    46  VAL46       0.0019
     74  CG2      -23.3680   12.2060   11.1120 C.3    46  VAL46       0.0019
     75  N        -27.5370   13.9850   13.3870 N.3    50  LEU50      -0.1245
     76  CA       -27.6540   13.1490   14.5970 C.3    50  LEU50       0.1561
     77  C        -28.6400   13.6860   15.6240 C.2    50  LEU50       0.2260
     78  O        -29.3730   12.9240   16.2540 O.2    50  LEU50      -0.2867
     79  CB       -26.2980   12.9950   15.2880 C.3    50  LEU50       0.0270
     80  CG       -25.2120   12.1820   14.5850 C.3    50  LEU50       0.0019
     81  CD1      -24.0400   11.9520   15.5310 C.3    50  LEU50       0.0001
     82  CD2      -25.7470   10.8520   14.0850 C.3    50  LEU50       0.0001
     83  N        -31.9650   12.6580   14.6280 N.3    53  LEU53      -0.1245
     84  CA       -32.1730   11.2300   14.9540 C.3    53  LEU53       0.1561
     85  C        -32.5870   11.0420   16.3950 C.2    53  LEU53       0.2260
     86  O        -33.5960   10.3910   16.6870 O.2    53  LEU53      -0.2867
     87  CB       -30.9090   10.3970   14.7340 C.3    53  LEU53       0.0270
     88  CG       -30.4260   10.1940   13.3060 C.3    53  LEU53       0.0019
     89  CD1      -29.1540    9.3610   13.3550 C.3    53  LEU53       0.0001
     90  CD2      -31.4840    9.5210   12.4400 C.3    53  LEU53       0.0001
     91  N        -35.9390    9.0770   17.3410 N.3    57  HIS57      -0.1241
     92  CA       -35.7920    7.7580   17.9870 C.3    57  HIS57       0.1621
     93  C        -35.4650    7.8620   19.4830 C.2    57  HIS57       0.2264
     94  O        -34.6340    7.1080   19.9910 O.2    57  HIS57      -0.2867
     95  CB       -34.6930    6.9360   17.2990 C.3    57  HIS57       0.0745
     96  CG       -34.8450    6.8360   15.8170 C.ar   57  HIS57       0.0817
     97  ND1      -35.0060    5.6300   15.1730 N.ar   57  HIS57      -0.2268
     98  CD2      -34.8670    7.7850   14.8530 C.ar   57  HIS57       0.1154
     99  CE1      -35.1250    5.8400   13.8760 C.ar   57  HIS57       0.1986
    100  NE2      -35.0430    7.1390   13.6550 N.ar   57  HIS57      -0.2212
    101  N        -30.2770    2.9350   20.3880 N.3    63  LEU63      -0.1245
    102  CA       -29.5130    3.9300   19.6060 C.3    63  LEU63       0.1561
    103  C        -29.3750    5.2330   20.3940 C.2    63  LEU63       0.2260
    104  O        -28.3220    5.8750   20.3680 O.2    63  LEU63      -0.2867
    105  CB       -30.1250    4.2400   18.2240 C.3    63  LEU63       0.0270
    106  CG       -31.2950    3.4850   17.5830 C.3    63  LEU63       0.0019
    107  CD1      -32.4890    4.4190   17.4600 C.3    63  LEU63       0.0001
    108  CD2      -30.9240    2.9720   16.2030 C.3    63  LEU63       0.0001
    109  N        -26.4110    5.0150   22.1240 N.3    66  MET66      -0.1230
    110  CA       -25.2960    5.1300   21.1790 C.3    66  MET66       0.1702
    111  C        -25.1280    6.5540   20.6350 C.2    66  MET66       0.2592
    112  O        -24.0100    7.0130   20.3570 O.2    66  MET66      -0.2718
    113  CB       -25.5080    4.1140   20.0450 C.3    66  MET66       0.0401
    114  CG       -24.5550    4.1910   18.8690 C.3    66  MET66       0.0596
    115  SD       -24.8020    2.7970   17.7640 S.3    66  MET66      -0.1393
    116  CE       -26.1700    3.4300   16.7990 C.3    66  MET66       0.0692
    117  N        -26.2550    7.2430   20.4860 N.am   67  CYS67      -0.1970
    118  CA       -26.2960    8.6380   20.0220 C.3    67  CYS67       0.1712
    119  C        -25.5810    9.5680   21.0050 C.2    67  CYS67       0.2296
    120  O        -24.7620   10.3880   20.6120 O.2    67  CYS67      -0.2864
    121  CB       -27.7500    9.0880   19.8520 C.3    67  CYS67       0.0983
    122  SG       -27.9950   10.2120   18.4660 S.3    67  CYS67      -0.0798
    123  N        -23.3260    8.7570   23.2040 N.3    69  VAL69      -0.1231
    124  CA       -21.8920    8.4600   23.3350 C.3    69  VAL69       0.1692
    125  C        -21.1430    9.1920   22.2430 C.2    69  VAL69       0.2591
    126  O        -20.0230    9.6580   22.4440 O.2    69  VAL69      -0.2718
    127  CB       -21.5480    6.9600   23.2010 C.3    69  VAL69       0.0266
    128  CG1      -20.1370    6.7110   23.7260 C.3    69  VAL69       0.0020
    129  CG2      -22.5520    6.0760   23.9380 C.3    69  VAL69       0.0020
    130  N        -21.7700    9.2370   21.0690 N.am   70  ALA70      -0.1980
    131  CA       -21.2570    9.9930   19.9290 C.3    70  ALA70       0.1597
    132  C        -21.0530   11.4570   20.3020 C.2    70  ALA70       0.2287
    133  O        -19.9550   11.9990   20.1440 O.2    70  ALA70      -0.2864
    134  CB       -22.2070    9.8870   18.7400 C.3    70  ALA70       0.0319
    135  N        -18.2670   12.1240   22.6870 N.3    73  ASN73      -0.1225
    136  CA       -16.9710   12.0190   22.0090 C.3    73  ASN73       0.1785
    137  C        -16.6950   13.2130   21.1100 C.2    73  ASN73       0.2597
    138  O        -15.6150   13.8040   21.1610 O.2    73  ASN73      -0.2718
    139  CB       -16.8990   10.7390   21.1740 C.3    73  ASN73       0.1169
    140  CG       -16.5200    9.5380   21.9980 C.2    73  ASN73       0.2627
    141  OD1      -17.3380    8.6580   22.2580 O.2    73  ASN73      -0.2716
    142  ND2      -15.2630    9.4920   22.4120 N.am   73  ASN73      -0.0877
    143  N        -17.6760   13.5300   20.2690 N.am   74  LEU74      -0.1980
    144  CA       -17.5920   14.6680   19.3450 C.3    74  LEU74       0.1596
    145  C        -17.3790   15.9890   20.0740 C.2    74  LEU74       0.2287
    146  O        -16.5230   16.7870   19.6900 O.2    74  LEU74      -0.2864
    147  CB       -18.8440   14.7460   18.4580 C.3    74  LEU74       0.0297
    148  CG       -18.7680   14.1720   17.0330 C.3    74  LEU74       0.0022
    149  CD1      -17.9080   12.9150   16.9380 C.3    74  LEU74       0.0001
    150  CD2      -20.1840   13.9110   16.5230 C.3    74  LEU74       0.0001
@<TRIPOS>BOND
     1     1     2    1
     2     3     2    1
     3     3     4    2
     4     2     5    1
     5     5     6    1
     6     7     6    1
     7    68    69    1
     8     6     8    1
     9    28    26    1
    10    27    26    1
    11    60    61    1
    12    67    65    1
    13    61    62    1
    14    61    64    1
    15    63    62    2
    16    69    72    1
    17    69    70    1
    18    16    14    1
    19     9    10    1
    20    74    72    1
    21    72    73    1
    22    26    25    1
    23    65    64    1
    24    65    66    1
    25    14    15    1
    26    14    13    1
    27    10    13    1
    28    10    11    1
    29    21    22    1
    30    70    71    2
    31    22    25    1
    32    22    23    1
    33    90    88    1
    34    17    18    1
    35    11    12    2
    36    88    89    1
    37    88    87    1
    38    75    76    1
    39    51    52    1
    40    33    34    1
    41    23    24    2
    42    23    29   am
    43    54    53    2
    44    38    37    1
    45    53    52    1
    46   100    99   ar
    47   100    98   ar
    48    37    34    1
    49    18    19    1
    50    99    97   ar
    51    82    80    1
    52    52    55    1
    53    34    35    1
    54    19    20    2
    55    29    30    1
    56    80    79    1
    57    80    81    1
    58    76    79    1
    59    76    77    1
    60    83    84    1
    61    87    84    1
    62    98    96   ar
    63    84    85    1
    64    97    96   ar
    65    77    78    2
    66    55    56    1
    67    31    30    1
    68    31    32    2
    69    96    95    1
    70    35    36    2
    71    35    39   am
    72   108   106    1
    73    85    86    2
    74    56    57    1
    75    39    40    1
    76   150   148    1
    77   116   115    1
    78   149   148    1
    79   148   147    1
    80    95    92    1
    81    91    92    1
    82   107   106    1
    83   106   105    1
    84    42    41    2
    85   115   114    1
    86    40    41    1
    87    40    43    1
    88    57    59   am
    89    57    58    2
    90    92    93    1
    91   105   102    1
    92   147   144    1
    93    43    44    1
    94   122   121    1
    95   134   131    1
    96   114   113    1
    97   144   145    1
    98   144   143    1
    99    93    94    2
   100   102   101    1
   101   102   103    1
   102   146   145    2
   103   121   118    1
   104   131   132    1
   105   131   130    1
   106    44    46   ar
   107    44    45   ar
   108   118   117    1
   109   118   119    1
   110   113   110    1
   111   133   132    2
   112   143   137   am
   113   112   111    2
   114   104   103    2
   115   117   111   am
   116    46    48   ar
   117   120   119    2
   118   111   110    1
   119    45    47   ar
   120   130   125   am
   121   137   138    2
   122   137   136    1
   123   139   140    1
   124   139   136    1
   125   110   109    1
   126    48    49   ar
   127   140   141    2
   128   140   142   am
   129   136   135    1
   130    47    49   ar
   131   125   126    2
   132   125   124    1
   133    49    50    1
   134   127   124    1
   135   127   128    1
   136   127   129    1
   137   123   124    1
