@<TRIPOS>MOLECULE
tmp/5zhxA00.pdb
 148 135 0 0 0
SMALL
GASTEIGER

@<TRIPOS>ATOM
      1  N         30.4830   34.1660   15.5280 N.3    12  LEU12      -0.1245
      2  CA        30.6790   35.5570   15.0750 C.3    12  LEU12       0.1561
      3  C         32.0810   36.1000   15.3170 C.2    12  LEU12       0.2260
      4  O         32.4670   37.0840   14.7010 O.2    12  LEU12      -0.2867
      5  CB        29.6520   36.5040   15.7080 C.3    12  LEU12       0.0270
      6  CG        28.3610   36.7680   14.9230 C.3    12  LEU12       0.0019
      7  CD1       27.8940   35.6030   14.0600 C.3    12  LEU12       0.0001
      8  CD2       27.2590   37.1520   15.8930 C.3    12  LEU12       0.0001
      9  N         31.0760   33.7320    8.6400 N.3    20  LEU20      -0.1245
     10  CA        30.1540   34.7610    9.1320 C.3    20  LEU20       0.1561
     11  C         28.8880   34.7700    8.3070 C.2    20  LEU20       0.2260
     12  O         27.7780   34.6660    8.8380 O.2    20  LEU20      -0.2867
     13  CB        30.8080   36.1380    9.0860 C.3    20  LEU20       0.0270
     14  CG        31.9280   36.2960   10.1100 C.3    20  LEU20       0.0019
     15  CD1       32.7570   37.5290    9.8030 C.3    20  LEU20       0.0001
     16  CD2       31.3610   36.3520   11.5230 C.3    20  LEU20       0.0001
     17  N         25.6570   33.9270   10.0440 N.3    24  GLY24      -0.1225
     18  CA        24.6970   34.9970    9.8270 C.3    24  GLY24       0.1811
     19  C         23.3740   34.5270    9.2490 C.2    24  GLY24       0.2280
     20  O         22.3070   34.7740    9.8300 O.2    24  GLY24      -0.2866
     21  N         21.7310   32.5840   12.0710 N.3    27  LEU27      -0.1231
     22  CA        21.2190   33.5150   13.1080 C.3    27  LEU27       0.1693
     23  C         19.9790   34.2340   12.5860 C.2    27  LEU27       0.2592
     24  O         19.0240   34.4520   13.3280 O.2    27  LEU27      -0.2718
     25  CB        22.2650   34.5750   13.5290 C.3    27  LEU27       0.0284
     26  CG        22.9400   34.7420   14.9120 C.3    27  LEU27       0.0019
     27  CD1       22.1520   34.1380   16.0720 C.3    27  LEU27       0.0001
     28  CD2       24.4110   34.3310   14.9280 C.3    27  LEU27       0.0001
     29  N         20.0340   34.6070   11.3070 N.am   28  GLY28      -0.1957
     30  CA        18.9090   35.2120   10.5900 C.3    28  GLY28       0.1869
     31  C         17.5580   34.6050   10.9200 C.2    28  GLY28       0.2309
     32  O         16.7590   35.2070   11.6360 O.2    28  GLY28      -0.2863
     33  N         16.2040   33.8260   14.4670 N.3    31  CYS31      -0.1221
     34  CA        15.1550   34.7630   14.9590 C.3    31  CYS31       0.1808
     35  C         14.5920   35.8330   13.9930 C.2    31  CYS31       0.2601
     36  O         14.8190   37.0370   14.1660 O.2    31  CYS31      -0.2717
     37  CB        15.7140   35.4720   16.2120 C.3    31  CYS31       0.0970
     38  SG        17.4080   36.1040   16.0420 S.3    31  CYS31      -0.0800
     39  N         13.7840   35.3870   13.0360 N.am   32  TYR32      -0.1962
     40  CA        13.0980   36.2760   12.1010 C.3    32  TYR32       0.1771
     41  C         11.7230   36.4630   12.7160 C.2    32  TYR32       0.2619
     42  O         11.0560   35.4760   13.0320 O.2    32  TYR32      -0.2715
     43  CB        12.9900   35.6550   10.7000 C.3    32  TYR32       0.0574
     44  CG        12.2230   36.4760    9.6790 C.ar   32  TYR32      -0.0198
     45  CD1       12.8500   37.4570    8.9050 C.ar   32  TYR32      -0.0009
     46  CD2       10.8700   36.2530    9.4720 C.ar   32  TYR32      -0.0009
     47  CE1       12.1370   38.1960    7.9710 C.ar   32  TYR32       0.0417
     48  CE2       10.1490   36.9840    8.5440 C.ar   32  TYR32       0.0417
     49  CZ        10.7870   37.9550    7.7950 C.ar   32  TYR32       0.1957
     50  OH        10.0750   38.6850    6.8720 O.3    32  TYR32      -0.2866
     51  N         11.3270   37.7180   12.9230 N.am   33  ASP33      -0.1971
     52  CA        10.0410   38.0630   13.5430 C.3    33  ASP33       0.1709
     53  C          9.8440   37.3100   14.8720 C.2    33  ASP33       0.2293
     54  O          8.7550   36.8210   15.1890 O.2    33  ASP33      -0.2864
     55  CB         8.8980   37.7710   12.5590 C.3    33  ASP33       0.1436
     56  CG         7.5810   38.4580   12.9310 C.2    33  ASP33       0.3671
     57  OD1        7.5930   39.6460   13.3140 O.co2  33  ASP33      -0.2456
     58  OD2        6.5180   37.8100   12.7970 O.co2  33  ASP33      -0.2456
     59  N         15.6810   37.9920   19.5180 N.3    38  GLN38      -0.1245
     60  CA        16.4390   39.2270   19.2100 C.3    38  GLN38       0.1566
     61  C         16.8810   39.9420   20.4750 C.2    38  GLN38       0.2260
     62  O         18.0020   40.4540   20.5570 O.2    38  GLN38      -0.2867
     63  CB        15.5950   40.2200   18.4040 C.3    38  GLN38       0.0367
     64  CG        15.4130   39.8800   16.9470 C.3    38  GLN38       0.0905
     65  CD        14.5090   40.8640   16.2460 C.2    38  GLN38       0.2608
     66  OE1       13.4940   40.4450   15.7430 O.2    38  GLN38      -0.2717
     67  NE2       14.8390   42.1620   16.2390 N.am   38  GLN38      -0.0878
     68  N         19.7260   38.2380   22.0750 N.3    41  LEU41      -0.1245
     69  CA        20.9430   38.5730   21.3050 C.3    41  LEU41       0.1561
     70  C         21.6050   39.8760   21.7480 C.2    41  LEU41       0.2260
     71  O         22.8220   40.0290   21.6220 O.2    41  LEU41      -0.2867
     72  CB        20.6600   38.6530   19.7990 C.3    41  LEU41       0.0270
     73  CG        20.9280   37.3860   18.9900 C.3    41  LEU41       0.0019
     74  CD1       20.3510   37.5190   17.5910 C.3    41  LEU41       0.0001
     75  CD2       22.4250   37.0980   18.9380 C.3    41  LEU41       0.0001
     76  N         25.6640   40.9710   21.4850 N.3    46  VAL46      -0.1245
     77  CA        26.1700   40.8580   20.1220 C.3    46  VAL46       0.1561
     78  C         26.4340   42.2160   19.4530 C.2    46  VAL46       0.2260
     79  O         27.2860   42.3180   18.5620 O.2    46  VAL46      -0.2867
     80  CB        25.1940   40.0120   19.2710 C.3    46  VAL46       0.0252
     81  CG1       23.9990   40.8280   18.7850 C.3    46  VAL46       0.0019
     82  CG2       25.9270   39.3760   18.1050 C.3    46  VAL46       0.0019
     83  N         28.9950   43.1290   16.6040 N.3    50  LEU50      -0.1245
     84  CA        28.5510   43.4070   15.2220 C.3    50  LEU50       0.1561
     85  C         29.1020   44.7070   14.6500 C.2    50  LEU50       0.2260
     86  O         29.4510   44.7870   13.4720 O.2    50  LEU50      -0.2867
     87  CB        27.0220   43.4610   15.1330 C.3    50  LEU50       0.0270
     88  CG        26.2390   42.1700   15.3460 C.3    50  LEU50       0.0019
     89  CD1       24.7780   42.3830   14.9890 C.3    50  LEU50       0.0001
     90  CD2       26.8160   41.0330   14.5250 C.3    50  LEU50       0.0001
     91  N         32.4570   44.0910   13.4280 N.3    53  LEU53      -0.1245
     92  CA        32.3900   43.3790   12.1340 C.3    53  LEU53       0.1561
     93  C         32.1800   44.3280   10.9760 C.2    53  LEU53       0.2260
     94  O         32.9410   44.3190   10.0050 O.2    53  LEU53      -0.2867
     95  CB        31.2470   42.3620   12.1000 C.3    53  LEU53       0.0270
     96  CG        31.3470   41.1460   13.0080 C.3    53  LEU53       0.0019
     97  CD1       30.1020   40.3030   12.7970 C.3    53  LEU53       0.0001
     98  CD2       32.6130   40.3420   12.7430 C.3    53  LEU53       0.0001
     99  N         27.8150   40.9340    3.5240 N.3    63  LEU63      -0.1245
    100  CA        27.5130   40.9110    4.9700 C.3    63  LEU63       0.1561
    101  C         27.1840   42.3170    5.4600 C.2    63  LEU63       0.2260
    102  O         26.2760   42.4990    6.2620 O.2    63  LEU63      -0.2867
    103  CB        28.6460   40.3250    5.8420 C.3    63  LEU63       0.0270
    104  CG        29.9080   39.6350    5.3160 C.3    63  LEU63       0.0019
    105  CD1       31.1220   40.4770    5.6610 C.3    63  LEU63       0.0001
    106  CD2       30.0810   38.2510    5.9290 C.3    63  LEU63       0.0001
    107  N         23.7620   42.6730    5.1720 N.3    66  MET66      -0.1230
    108  CA        23.1300   41.8610    6.2040 C.3    66  MET66       0.1702
    109  C         23.3190   42.4250    7.6320 C.2    66  MET66       0.2592
    110  O         22.4420   42.2790    8.5010 O.2    66  MET66      -0.2718
    111  CB        23.6650   40.4320    6.1250 C.3    66  MET66       0.0401
    112  CG        23.1400   39.6150    7.3040 C.3    66  MET66       0.0596
    113  SD        24.3570   38.6910    8.2310 S.3    66  MET66      -0.1393
    114  CE        23.2060   37.8030    9.2710 C.3    66  MET66       0.0692
    115  N         24.4690   43.0500    7.8530 N.am   67  CYS67      -0.1970
    116  CA        24.8050   43.7000    9.1160 C.3    67  CYS67       0.1712
    117  C         23.8380   44.8480    9.4130 C.2    67  CYS67       0.2296
    118  O         23.3000   44.9510   10.5140 O.2    67  CYS67      -0.2864
    119  CB        26.2300   44.2350    9.0530 C.3    67  CYS67       0.0983
    120  SG        27.1060   44.1060   10.6190 S.3    67  CYS67      -0.0798
    121  N         20.8130   45.2680    8.2310 N.3    69  VAL69      -0.1231
    122  CA        19.4320   44.8090    8.4200 C.3    69  VAL69       0.1692
    123  C         19.2450   44.3790    9.8650 C.2    69  VAL69       0.2591
    124  O         18.1850   44.5850   10.4540 O.2    69  VAL69      -0.2718
    125  CB        19.0470   43.6050    7.5380 C.3    69  VAL69       0.0266
    126  CG1       17.5280   43.4580    7.5100 C.3    69  VAL69       0.0020
    127  CG2       19.5950   43.7360    6.1200 C.3    69  VAL69       0.0020
    128  N         20.2860   43.7550   10.4080 N.am   70  ALA70      -0.1980
    129  CA        20.3330   43.3840   11.8180 C.3    70  ALA70       0.1597
    130  C         20.1270   44.6030   12.7060 C.2    70  ALA70       0.2287
    131  O         19.2310   44.6150   13.5590 O.2    70  ALA70      -0.2864
    132  CB        21.6650   42.7200   12.1510 C.3    70  ALA70       0.0319
    133  N         16.6930   46.0540   12.6510 N.3    73  ASN73      -0.1225
    134  CA        15.7650   45.2080   13.4250 C.3    73  ASN73       0.1785
    135  C         15.9700   45.3450   14.9300 C.2    73  ASN73       0.2597
    136  O         15.0150   45.5460   15.6840 O.2    73  ASN73      -0.2718
    137  CB        15.9220   43.7330   13.0440 C.3    73  ASN73       0.1169
    138  CG        15.1390   43.3690   11.8110 C.2    73  ASN73       0.2627
    139  OD1       15.7080   43.1450   10.7410 O.2    73  ASN73      -0.2716
    140  ND2       13.8220   43.3100   11.9520 N.am   73  ASN73      -0.0877
    141  N         17.2250   45.2090   15.3480 N.am   74  LEU74      -0.1980
    142  CA        17.6150   45.3530   16.7560 C.3    74  LEU74       0.1596
    143  C         17.2470   46.7270   17.3310 C.2    74  LEU74       0.2287
    144  O         16.6850   46.8170   18.4230 O.2    74  LEU74      -0.2864
    145  CB        19.1190   45.0950   16.9310 C.3    74  LEU74       0.0297
    146  CG        19.5590   43.7060   17.4090 C.3    74  LEU74       0.0022
    147  CD1       18.7020   42.5700   16.8560 C.3    74  LEU74       0.0001
    148  CD2       21.0300   43.5060   17.0650 C.3    74  LEU74       0.0001
@<TRIPOS>BOND
     1    99   100    1
     2   100   101    1
     3   100   103    1
     4   107   108    1
     5   104   105    1
     6   104   103    1
     7   104   106    1
     8   101   102    2
     9   127   125    1
    10   111   108    1
    11   111   112    1
    12   108   109    1
    13    50    49    1
    14   112   113    1
    15   126   125    1
    16   125   122    1
    17   109   115   am
    18   109   110    2
    19    49    47   ar
    20    49    48   ar
    21   115   116    1
    22    47    45   ar
    23   113   114    1
    24   121   122    1
    25    11    12    2
    26    11    10    1
    27   122   123    1
    28    48    46   ar
    29     9    10    1
    30    45    44   ar
    31   119   116    1
    32   119   120    1
    33    13    10    1
    34    13    14    1
    35   116   117    1
    36    19    18    1
    37    19    20    2
    38   117   118    2
    39    46    44   ar
    40    44    43    1
    41    15    14    1
    42    18    17    1
    43   123   128   am
    44   123   124    2
    45    94    93    2
    46    14    16    1
    47   128   129    1
    48    30    31    1
    49    30    29    1
    50    43    40    1
    51   139   138    2
    52    31    32    2
    53    93    92    1
    54    29    23   am
    55   138   140   am
    56   138   137    1
    57   129   132    1
    58   129   130    1
    59    21    22    1
    60    95    92    1
    61    95    96    1
    62    40    41    1
    63    40    39    1
    64    92    91    1
    65    55    56    1
    66    55    52    1
    67    23    22    1
    68    23    24    2
    69   133   134    1
    70   130   131    2
    71    41    51   am
    72    41    42    2
    73    98    96    1
    74    58    56   ar
    75    97    96    1
    76    51    52    1
    77    56    57   ar
    78    39    35   am
    79   137   134    1
    80    22    25    1
    81   134   135    1
    82    86    85    2
    83    25    26    1
    84    52    53    1
    85    35    36    2
    86    35    34    1
    87     7     6    1
    88    33    34    1
    89    90    88    1
    90    85    84    1
    91     4     3    2
    92    53    54    2
    93    26    28    1
    94    26    27    1
    95     6     5    1
    96     6     8    1
    97   135   141   am
    98   135   136    2
    99    34    37    1
   100    89    88    1
   101     2     3    1
   102     2     1    1
   103     2     5    1
   104    87    84    1
   105    87    88    1
   106    84    83    1
   107   141   142    1
   108    66    65    2
   109    38    37    1
   110    67    65   am
   111    65    64    1
   112   142   145    1
   113   142   143    1
   114   147   146    1
   115   145   146    1
   116    64    63    1
   117   148   146    1
   118   143   144    2
   119    74    73    1
   120    82    80    1
   121    63    60    1
   122    79    78    2
   123    81    80    1
   124    75    73    1
   125    73    72    1
   126    60    59    1
   127    60    61    1
   128    80    77    1
   129    78    77    1
   130    72    69    1
   131    77    76    1
   132    61    62    2
   133    69    70    1
   134    69    68    1
   135    71    70    2
