@<TRIPOS>MOLECULE
tmp/5zi2B00.pdb
 138 134 0 0 0
SMALL
GASTEIGER

@<TRIPOS>ATOM
      1  N        -28.6150   -5.4090  -25.3180 N.3     8  GLY8       -0.1225
      2  CA       -28.9990   -6.4710  -24.4410 C.3     8  GLY8        0.1811
      3  C        -27.9840   -6.7070  -23.3550 C.2     8  GLY8        0.2280
      4  O        -27.8350   -7.8670  -22.9370 O.2     8  GLY8       -0.2866
      5  N        -27.7040   -6.1030  -20.1330 N.3    10  SER10      -0.1202
      6  CA       -28.0800   -6.3960  -18.7880 C.3    10  SER10       0.2020
      7  C        -28.4960   -7.7930  -18.5350 C.2    10  SER10       0.2619
      8  O        -28.6960   -8.1410  -17.4170 O.2    10  SER10      -0.2717
      9  CB       -29.1630   -5.4410  -18.3470 C.3    10  SER10       0.2103
     10  OG       -28.6850   -4.1130  -18.5300 O.3    10  SER10      -0.2182
     11  N        -28.5620   -8.6180  -19.5650 N.am   11  GLY11      -0.1942
     12  CA       -29.1070   -9.9370  -19.4330 C.3    11  GLY11       0.2014
     13  C        -28.1470  -10.9530  -18.8980 C.2    11  GLY11       0.2639
     14  O        -26.9570  -10.6420  -18.6200 O.2    11  GLY11      -0.2714
     15  N        -28.6290  -12.1900  -18.8060 N.am   12  GLY12      -0.1939
     16  CA       -27.7940  -13.2820  -18.3600 C.3    12  GLY12       0.2014
     17  C        -26.5130  -13.4720  -19.1740 C.2    12  GLY12       0.2639
     18  O        -25.4360  -13.6840  -18.6100 O.2    12  GLY12      -0.2714
     19  N        -26.6100  -13.3760  -20.4880 N.am   13  VAL13      -0.1963
     20  CA       -25.4310  -13.4910  -21.3390 C.3    13  VAL13       0.1727
     21  C        -24.7570  -12.1030  -21.4090 C.2    13  VAL13       0.2616
     22  O        -23.5400  -11.9880  -21.4110 O.2    13  VAL13      -0.2715
     23  CB       -25.8050  -13.9330  -22.7810 C.3    13  VAL13       0.0290
     24  CG1      -24.5730  -13.8400  -23.7060 C.3    13  VAL13       0.0023
     25  CG2      -26.4060  -15.3630  -22.8320 C.3    13  VAL13       0.0023
     26  N        -25.5610  -11.0710  -21.5720 N.am   14  GLY14      -0.1955
     27  CA       -25.0230   -9.7170  -21.7650 C.3    14  GLY14       0.1869
     28  C        -24.1000   -9.2070  -20.6780 C.2    14  GLY14       0.2309
     29  O        -23.1230   -8.4890  -20.9800 O.2    14  GLY14      -0.2863
     30  N        -26.2550   -1.0270  -23.6820 N.3    33  TYR33      -0.1227
     31  CA       -27.6160   -0.6100  -23.8250 C.3    33  TYR33       0.1736
     32  C        -28.5000   -1.7480  -23.4770 C.2    33  TYR33       0.2595
     33  O        -28.1700   -2.9250  -23.7430 O.2    33  TYR33      -0.2718
     34  CB       -27.8660   -0.2230  -25.2960 C.3    33  TYR33       0.0548
     35  CG       -29.2930   -0.0080  -25.5550 C.ar   33  TYR33      -0.0200
     36  CD1      -29.8790    1.2370  -25.2710 C.ar   33  TYR33      -0.0009
     37  CD2      -30.0910   -1.0220  -26.0760 C.ar   33  TYR33      -0.0009
     38  CE1      -31.2320    1.4380  -25.4690 C.ar   33  TYR33       0.0417
     39  CE2      -31.4610   -0.8210  -26.2570 C.ar   33  TYR33       0.0417
     40  CZ       -31.9960    0.4320  -25.9640 C.ar   33  TYR33       0.1957
     41  OH       -33.3460    0.6270  -26.1840 O.3    33  TYR33      -0.2866
     42  N        -29.6640   -1.4150  -22.9290 N.am   34  ASP34      -0.1960
     43  CA       -30.6610   -2.4100  -22.5900 C.3    34  ASP34       0.1840
     44  C        -31.9520   -1.6650  -22.1960 C.2    34  ASP34       0.2622
     45  O        -31.9800   -0.4310  -21.9650 O.2    34  ASP34      -0.2715
     46  CB       -30.1770   -3.3000  -21.4380 C.3    34  ASP34       0.1450
     47  CG       -30.9550   -4.6140  -21.3260 C.2    34  ASP34       0.3671
     48  OD1      -32.2080   -4.5370  -21.1810 O.co2  34  ASP34      -0.2456
     49  OD2      -30.3570   -5.7290  -21.4270 O.co2  34  ASP34      -0.2456
     50  N        -33.0550   -2.3830  -22.1780 N.am   35  ILE35      -0.1963
     51  CA       -34.2950   -1.6920  -21.8010 C.3    35  ILE35       0.1727
     52  C        -34.2690   -1.3900  -20.3100 C.2    35  ILE35       0.2616
     53  O        -34.9130   -0.4690  -19.8990 O.2    35  ILE35      -0.2715
     54  CB       -35.5490   -2.4750  -22.1750 C.3    35  ILE35       0.0290
     55  CG1      -35.5930   -3.8260  -21.4520 C.3    35  ILE35       0.0022
     56  CG2      -35.6500   -2.6270  -23.7170 C.3    35  ILE35       0.0023
     57  CD1      -36.9640   -4.4500  -21.5890 C.3    35  ILE35       0.0001
     58  N        -33.4860   -2.1530  -19.5240 N.am   36  ARG36      -0.1977
     59  CA       -33.2750   -1.8620  -18.0900 C.3    36  ARG36       0.1597
     60  C        -31.8120   -2.0250  -17.6290 C.2    36  ARG36       0.2287
     61  O        -31.0970   -2.8870  -18.1430 O.2    36  ARG36      -0.2864
     62  CB       -34.1750   -2.7650  -17.2420 C.3    36  ARG36       0.0334
     63  CG       -33.9960   -4.2720  -17.4750 C.3    36  ARG36       0.0492
     64  CD       -34.7580   -5.1560  -16.4530 C.3    36  ARG36       0.2205
     65  NE       -34.2420   -4.8520  -15.1130 N.pl3  36  ARG36      -0.0865
     66  CZ       -33.1220   -5.3500  -14.5640 C.cat  36  ARG36       0.5346
     67  NH1      -32.7680   -4.9080  -13.3640 N.pl3  36  ARG36       0.1354
     68  NH2      -32.3470   -6.2620  -15.1910 N.pl3  36  ARG36       0.1354
     69  N        -26.7430   -9.7590  -27.8150 N.3    75  PRO75      -0.2102
     70  CA       -27.1960  -10.9160  -27.0780 C.3    75  PRO75       0.1504
     71  C        -28.6120  -10.6520  -26.5220 C.2    75  PRO75       0.2576
     72  O        -29.1130  -11.4370  -25.7040 O.2    75  PRO75      -0.2718
     73  CB       -26.2190  -10.9880  -25.9300 C.3    75  PRO75       0.0282
     74  CG       -25.8740   -9.5850  -25.6560 C.3    75  PRO75       0.0208
     75  CD       -25.8210   -8.9430  -27.0100 C.3    75  PRO75       0.0893
     76  N        -29.2680   -9.5910  -26.9370 N.am   76  ALA76      -0.1966
     77  CA       -30.6220   -9.3110  -26.4160 C.3    76  ALA76       0.1728
     78  C        -31.5900  -10.4360  -26.7440 C.2    76  ALA76       0.2617
     79  O        -31.4820  -11.0980  -27.7720 O.2    76  ALA76      -0.2715
     80  CB       -31.1410   -8.0240  -26.9990 C.3    76  ALA76       0.0334
     81  N        -32.5900  -10.6390  -25.9130 N.am   77  GLY77      -0.1940
     82  CA       -33.5190  -11.7430  -26.1920 C.3    77  GLY77       0.2014
     83  C        -34.3660  -12.0270  -24.9840 C.2    77  GLY77       0.2639
     84  O        -34.1250  -11.4540  -23.9530 O.2    77  GLY77      -0.2714
     85  N        -35.3990  -12.8460  -25.0970 N.am   78  VAL78      -0.1963
     86  CA       -36.1300  -13.2140  -23.8870 C.3    78  VAL78       0.1712
     87  C        -35.7300  -14.6220  -23.4840 C.2    78  VAL78       0.2458
     88  O        -35.5890  -15.4860  -24.3540 O.2    78  VAL78      -0.2730
     89  CB       -37.6690  -13.0960  -23.9850 C.3    78  VAL78       0.0289
     90  CG1      -38.0620  -11.7190  -24.5190 C.3    78  VAL78       0.0023
     91  CG2      -38.2620  -14.2340  -24.7950 C.3    78  VAL78       0.0023
     92  N        -35.6040  -14.8450  -22.1680 N.am   79  PRO79      -0.2727
     93  CA       -35.2840  -16.1380  -21.6190 C.3    79  PRO79       0.1402
     94  C        -36.5970  -16.9830  -21.4540 C.2    79  PRO79       0.2269
     95  O        -37.6880  -16.4190  -21.1240 O.2    79  PRO79      -0.2865
     96  CB       -34.7140  -15.7630  -20.2420 C.3    79  PRO79       0.0296
     97  CG       -35.6340  -14.6320  -19.7890 C.3    79  PRO79       0.0237
     98  CD       -36.0660  -13.9260  -21.0830 C.3    79  PRO79       0.0939
     99  N        -37.4730   -8.4530  -31.1810 N.3    96  ILE96      -0.1245
    100  CA       -36.3200   -7.7470  -30.5450 C.3    96  ILE96       0.1561
    101  C        -35.1760   -7.5100  -31.6060 C.2    96  ILE96       0.2260
    102  O        -34.6870   -6.3830  -31.7730 O.2    96  ILE96      -0.2867
    103  CB       -35.7850   -8.5810  -29.3530 C.3    96  ILE96       0.0252
    104  CG1      -36.7490   -8.4760  -28.1550 C.3    96  ILE96       0.0019
    105  CG2      -34.3690   -8.1500  -28.9500 C.3    96  ILE96       0.0019
    106  CD1      -36.6590   -9.6430  -27.2100 C.3    96  ILE96       0.0001
    107  N        -36.0250   -5.0070  -34.3160 N.3    99  SER99      -0.1202
    108  CA       -36.0010   -3.6840  -33.7910 C.3    99  SER99       0.2020
    109  C        -34.5760   -3.1900  -33.5370 C.2    99  SER99       0.2618
    110  O        -34.2820   -2.0480  -33.8130 O.2    99  SER99      -0.2717
    111  CB       -36.7720   -3.7150  -32.4760 C.3    99  SER99       0.2103
    112  OG       -36.7400   -2.4450  -31.9860 O.3    99  SER99      -0.2182
    113  N        -33.7150   -4.0490  -32.9790 N.am  100  LEU100     -0.1979
    114  CA       -32.3410   -3.6310  -32.7100 C.3   100  LEU100      0.1596
    115  C        -31.5340   -3.3760  -33.9980 C.2   100  LEU100      0.2287
    116  O        -30.7650   -2.4460  -34.0700 O.2   100  LEU100     -0.2864
    117  CB       -31.6310   -4.5900  -31.7590 C.3   100  LEU100      0.0297
    118  CG       -32.2620   -4.5400  -30.3630 C.3   100  LEU100      0.0022
    119  CD1      -31.7550   -5.7260  -29.5860 C.3   100  LEU100      0.0001
    120  CD2      -32.0680   -3.2180  -29.6010 C.3   100  LEU100      0.0001
    121  N        -30.2160  -21.6890  -19.4660 N.3   232  SER232     -0.1202
    122  CA       -29.3700  -22.3250  -20.4840 C.3   232  SER232      0.2020
    123  C        -27.9540  -21.7500  -20.3340 C.2   232  SER232      0.2619
    124  O        -27.6800  -21.1380  -19.3410 O.2   232  SER232     -0.2717
    125  CB       -29.9540  -22.1050  -21.8800 C.3   232  SER232      0.2103
    126  OG       -30.4670  -20.7870  -21.9760 O.3   232  SER232     -0.2182
    127  N        -27.0420  -22.0530  -21.2470 N.am  233  ALA233     -0.1965
    128  CA       -25.6700  -21.6140  -21.1220 C.3   233  ALA233      0.1728
    129  C        -25.6760  -20.0900  -21.2010 C.2   233  ALA233      0.2616
    130  O        -26.2300  -19.4970  -22.1410 O.2   233  ALA233     -0.2715
    131  CB       -24.8400  -22.2200  -22.2290 C.3   233  ALA233      0.0334
    132  N        -25.2250  -19.4500  -20.1480 N.am  234  THR234     -0.1951
    133  CA       -25.0160  -18.0000  -20.1230 C.3   234  THR234      0.1897
    134  C        -23.5300  -17.6610  -20.1710 C.2   234  THR234      0.2313
    135  O        -23.1160  -16.9160  -20.9990 O.2   234  THR234     -0.2863
    136  CB       -25.6070  -17.3980  -18.8690 C.3   234  THR234      0.1794
    137  OG1      -25.0410  -18.0460  -17.7360 O.3   234  THR234     -0.2208
    138  CG2      -27.1360  -17.6520  -18.8400 C.3   234  THR234      0.0378
@<TRIPOS>BOND
     1   107   108    1
     2   116   115    2
     3   115   114    1
     4   110   109    2
     5   108   109    1
     6   108   111    1
     7   109   113   am
     8   113   114    1
     9   114   117    1
    10   111   112    1
    11   102   101    2
    12   117   118    1
    13   101   100    1
    14    99   100    1
    15   100   103    1
    16   118   120    1
    17   118   119    1
    18   103   105    1
    19   103   104    1
    20   104   106    1
    21    69    70    1
    22    69    75    1
    23    79    78    2
    24    70    71    1
    25    70    73    1
    26    75    74    1
    27    80    77    1
    28    76    71   am
    29    76    77    1
    30    78    77    1
    31    78    81   am
    32    71    72    2
    33    39    37   ar
    34    39    40   ar
    35    82    81    1
    36    82    83    1
    37    41    40    1
    38    37    35   ar
    39    40    38   ar
    40    73    74    1
    41    35    34    1
    42    35    36   ar
    43    38    36   ar
    44     1     2    1
    45    34    31    1
    46    85    83   am
    47    85    86    1
    48    83    84    2
    49    91    89    1
    50    90    89    1
    51     2     3    1
    52    88    87    2
    53    89    86    1
    54    86    87    1
    55    31    30    1
    56    31    32    1
    57    33    32    2
    58    56    54    1
    59    24    23    1
    60    87    92   am
    61    32    42   am
    62     3     4    2
    63    42    43    1
    64    25    23    1
    65    23    20    1
    66    43    44    1
    67    43    46    1
    68   131   128    1
    69    44    50   am
    70    44    45    2
    71    50    51    1
    72    54    51    1
    73    54    55    1
    74    92    93    1
    75    92    98    1
    76   130   129    2
    77   126   125    1
    78   125   122    1
    79    51    52    1
    80    27    26    1
    81    27    28    1
    82    93    94    1
    83    93    96    1
    84    57    55    1
    85    26    21   am
    86    94    95    2
    87    46    47    1
    88    49    47   ar
    89    22    21    2
    90    21    20    1
    91    20    19    1
    92    47    48   ar
    93   127   128    1
    94   127   123   am
    95   129   128    1
    96   129   132   am
    97    98    97    1
    98   135   134    2
    99    29    28    2
   100    19    17   am
   101   122   123    1
   102   122   121    1
   103   123   124    2
   104    52    53    2
   105    52    58   am
   106    96    97    1
   107   134   133    1
   108   132   133    1
   109     5     6    1
   110   133   136    1
   111    11    12    1
   112    11     7   am
   113    58    59    1
   114    12    13    1
   115    17    18    2
   116    17    16    1
   117    13    15   am
   118    13    14    2
   119   136   138    1
   120   136   137    1
   121    15    16    1
   122     6     7    1
   123     6     9    1
   124     7     8    2
   125    10     9    1
   126    61    60    2
   127    59    60    1
   128    59    62    1
   129    63    62    1
   130    63    64    1
   131    64    65    1
   132    68    66    1
   133    65    66    2
   134    66    67    1
