@<TRIPOS>MOLECULE
tmp/5zi4A00.pdb
 85 78 0 0 0
SMALL
GASTEIGER

@<TRIPOS>ATOM
      1  N        -13.6820   13.8640    8.4710 N.3    79  PRO79      -0.2102
      2  CA       -14.8200   14.1920    7.6500 C.3    79  PRO79       0.1504
      3  C        -15.0480   15.7160    7.5020 C.2    79  PRO79       0.2575
      4  O        -14.3430   16.5480    8.1150 O.2    79  PRO79      -0.2718
      5  CB       -15.9790   13.5410    8.4050 C.3    79  PRO79       0.0282
      6  CG       -15.5990   13.7530    9.8290 C.3    79  PRO79       0.0208
      7  CD       -14.0980   13.5190    9.8390 C.3    79  PRO79       0.0893
      8  N        -16.0350   16.0640    6.6860 N.am   80  ARG80      -0.1980
      9  CA       -16.4960   17.4470    6.6020 C.3    80  ARG80       0.1597
     10  C        -16.9960   17.9860    7.9420 C.2    80  ARG80       0.2287
     11  O        -17.5750   17.2560    8.7280 O.2    80  ARG80      -0.2864
     12  CB       -17.5990   17.5870    5.5680 C.3    80  ARG80       0.0334
     13  CG       -17.0490   17.7500    4.1640 C.3    80  ARG80       0.0492
     14  CD       -18.1060   18.3310    3.2480 C.3    80  ARG80       0.2205
     15  NE       -18.6020   17.3930    2.2360 N.pl3  80  ARG80      -0.0865
     16  CZ       -19.8130   17.4660    1.6780 C.cat  80  ARG80       0.5346
     17  NH1      -20.1760   16.5860    0.7570 N.pl3  80  ARG80       0.1354
     18  NH2      -20.6860   18.4090    2.0420 N.pl3  80  ARG80       0.1354
     19  N        -11.9130   10.5730    2.1220 N.3   118  ASN118     -0.1240
     20  CA       -12.2880   11.5970    1.1230 C.3   118  ASN118      0.1653
     21  C        -11.3730   12.8530    1.2340 C.2   118  ASN118      0.2266
     22  O        -10.9970   13.1860    2.3340 O.2   118  ASN118     -0.2867
     23  CB       -13.7610   11.9260    1.3410 C.3   118  ASN118      0.1155
     24  CG       -14.5160   12.1670    0.0680 C.2   118  ASN118      0.2627
     25  OD1      -14.3430   11.4880   -0.9520 O.2   118  ASN118     -0.2716
     26  ND2      -15.3800   13.1530    0.1180 N.am  118  ASN118     -0.0877
     27  N        -20.8550    4.1200   -2.8370 N.3   148  LEU148     -0.1245
     28  CA       -21.9700    4.8560   -2.2530 C.3   148  LEU148      0.1561
     29  C        -22.7060    5.7000   -3.3010 C.2   148  LEU148      0.2260
     30  O        -23.8620    6.0230   -3.1630 O.2   148  LEU148     -0.2867
     31  CB       -21.5330    5.6920   -1.0730 C.3   148  LEU148      0.0270
     32  CG       -22.6380    6.4640   -0.3780 C.3   148  LEU148      0.0019
     33  CD1      -23.6830    5.4830    0.1290 C.3   148  LEU148      0.0001
     34  CD2      -22.0670    7.3650    0.7160 C.3   148  LEU148      0.0001
     35  N        -26.7790    5.5290   -3.8610 N.3   152  ARG152     -0.1245
     36  CA       -27.6830    6.6580   -3.9080 C.3   152  ARG152      0.1563
     37  C        -28.4700    6.7680   -5.2400 C.2   152  ARG152      0.2260
     38  O        -29.6450    7.1970   -5.2480 O.2   152  ARG152     -0.2867
     39  CB       -26.8900    7.9310   -3.6870 C.3   152  ARG152      0.0307
     40  CG       -26.3470    8.0590   -2.2870 C.3   152  ARG152      0.0489
     41  CD       -25.4360    9.2520   -2.2210 C.3   152  ARG152      0.2205
     42  NE       -25.1410    9.6240   -0.8320 N.pl3 152  ARG152     -0.0865
     43  CZ       -23.9820   10.1310   -0.4030 C.cat 152  ARG152      0.5346
     44  NH1      -22.9520   10.2770   -1.2150 N.pl3 152  ARG152      0.1354
     45  NH2      -23.8420   10.4230    0.8690 N.pl3 152  ARG152      0.1354
     46  N        -15.8120   11.0140   -7.2910 N.3   187  HIS187     -0.1241
     47  CA       -16.6300   11.1170   -6.1000 C.3   187  HIS187      0.1621
     48  C        -16.6410   12.5650   -5.6070 C.2   187  HIS187      0.2264
     49  O        -15.8950   12.9480   -4.7150 O.2   187  HIS187     -0.2867
     50  CB       -16.0330   10.2210   -5.0160 C.3   187  HIS187      0.0745
     51  CG       -16.9450   10.0540   -3.8540 C.ar  187  HIS187      0.0817
     52  ND1      -18.0430    9.2220   -3.9000 N.ar  187  HIS187     -0.2268
     53  CD2      -16.9810   10.6690   -2.6550 C.ar  187  HIS187      0.1154
     54  CE1      -18.7060    9.3170   -2.7660 C.ar  187  HIS187      0.1986
     55  NE2      -18.0830   10.1910   -1.9930 N.ar  187  HIS187     -0.2212
     56  N        -23.8590   13.5780   -0.6290 N.3   220  GLY220     -0.1225
     57  CA       -23.0070   13.9030    0.4940 C.3   220  GLY220      0.1811
     58  C        -23.4300   15.1350    1.2380 C.2   220  GLY220      0.2280
     59  O        -23.5940   15.0970    2.4720 O.2   220  GLY220     -0.2866
     60  N        -24.7890   15.9240    5.1530 N.3   224  VAL224     -0.1245
     61  CA       -24.1280   16.9180    5.9450 C.3   224  VAL224      0.1561
     62  C        -25.1440   17.9610    6.4520 C.2   224  VAL224      0.2260
     63  O        -25.0650   18.4350    7.6240 O.2   224  VAL224     -0.2867
     64  CB       -22.9960   17.6010    5.0990 C.3   224  VAL224      0.0252
     65  CG1      -22.5220   18.8990    5.7280 C.3   224  VAL224      0.0019
     66  CG2      -21.8280   16.6390    4.8580 C.3   224  VAL224      0.0019
     67  N        -21.1320   13.6450    8.6180 N.3   232  SER232     -0.1202
     68  CA       -21.5000   13.3210    7.2870 C.3   232  SER232      0.2020
     69  C        -21.9990   11.8680    7.2750 C.2   232  SER232      0.2618
     70  O        -22.1310   11.2380    8.3140 O.2   232  SER232     -0.2717
     71  CB       -20.2780   13.4870    6.3600 C.3   232  SER232      0.2103
     72  OG       -19.0770   13.0250    6.9460 O.3   232  SER232     -0.2182
     73  N        -22.3170   11.3840    6.0970 N.am  233  ALA233     -0.1979
     74  CA       -22.7780   10.0170    5.9060 C.3   233  ALA233      0.1597
     75  C        -21.7920    9.0440    6.5490 C.2   233  ALA233      0.2287
     76  O        -20.5870    9.1200    6.2700 O.2   233  ALA233     -0.2864
     77  CB       -22.8700    9.7220    4.4080 C.3   233  ALA233      0.0319
     78  N        -22.5430    4.7580    4.1840 N.3   237  MET237     -0.1245
     79  CA       -21.1780    4.4780    3.7320 C.3   237  MET237      0.1570
     80  C        -20.6930    3.1210    4.1630 C.2   237  MET237      0.2261
     81  O        -20.0960    2.4260    3.3830 O.2   237  MET237     -0.2867
     82  CB       -20.1510    5.5590    4.1340 C.3   237  MET237      0.0387
     83  CG       -18.7440    5.2330    3.6450 C.3   237  MET237      0.0595
     84  SD       -18.6840    5.3320    1.8220 S.3   237  MET237     -0.1393
     85  CE       -17.9890    3.7520    1.3750 C.3   237  MET237      0.0692
@<TRIPOS>BOND
     1    46    47    1
     2    47    48    1
     3    47    50    1
     4    48    49    2
     5    38    37    2
     6    37    36    1
     7    50    51    1
     8    36    35    1
     9    36    39    1
    10    52    51   ar
    11    52    54   ar
    12    51    53   ar
    13    39    40    1
    14    29    30    2
    15    29    28    1
    16    27    28    1
    17    54    55   ar
    18    53    55   ar
    19    40    41    1
    20    28    31    1
    21    41    42    1
    22    44    43    1
    23    31    32    1
    24    25    24    2
    25    42    43    2
    26    56    57    1
    27    43    45    1
    28    32    33    1
    29    32    34    1
    30    24    26   am
    31    24    23    1
    32    57    58    1
    33    17    16    1
    34    20    21    1
    35    20    23    1
    36    20    19    1
    37    21    22    2
    38    58    59    2
    39    85    84    1
    40    16    18    1
    41    16    15    2
    42    84    83    1
    43    15    14    1
    44    14    13    1
    45    81    80    2
    46    83    82    1
    47    79    82    1
    48    79    80    1
    49    79    78    1
    50    13    12    1
    51    77    74    1
    52    66    64    1
    53    64    65    1
    54    64    61    1
    55    60    61    1
    56    12     9    1
    57    74    73    1
    58    74    75    1
    59    61    62    1
    60    73    69   am
    61    76    75    2
    62    71    72    1
    63    71    68    1
    64    62    63    2
    65     9     8    1
    66     9    10    1
    67     8     3   am
    68    69    68    1
    69    69    70    2
    70    68    67    1
    71     3     2    1
    72     3     4    2
    73     2     5    1
    74     2     1    1
    75    10    11    2
    76     5     6    1
    77     1     7    1
    78     6     7    1
