@<TRIPOS>MOLECULE
tmp/5zi9B00.pdb
 115 108 0 0 0
SMALL
GASTEIGER

@<TRIPOS>ATOM
      1  N        -19.2040   19.4110   61.4490 N.3    69  GLY69      -0.1210
      2  CA       -18.7280   19.0910   62.7560 C.3    69  GLY69       0.1956
      3  C        -18.8330   20.3220   63.6060 C.2    69  GLY69       0.2613
      4  O        -19.0240   21.4290   63.0880 O.2    69  GLY69      -0.2717
      5  N        -18.6860   20.1090   64.9080 N.am   70  SER70      -0.1938
      6  CA       -18.7980   21.1550   65.9280 C.3    70  SER70       0.2055
      7  C        -17.9910   22.4070   65.6610 C.2    70  SER70       0.2643
      8  O        -16.8380   22.3450   65.2190 O.2    70  SER70      -0.2714
      9  CB       -18.4030   20.6140   67.2870 C.3    70  SER70       0.2130
     10  OG       -18.5270   21.6060   68.2720 O.3    70  SER70      -0.2179
     11  N        -18.6390   23.5340   65.9450 N.am   71  ALA71      -0.1963
     12  CA       -18.0180   24.8630   65.9160 C.3    71  ALA71       0.1728
     13  C        -17.0630   25.0950   67.0990 C.2    71  ALA71       0.2616
     14  O        -16.1630   25.9330   67.0090 O.2    71  ALA71      -0.2715
     15  CB       -19.0970   25.9480   65.9070 C.3    71  ALA71       0.0334
     16  N        -17.2520   24.3240   68.1660 N.am   72  ARG72      -0.1977
     17  CA       -16.6260   24.5690   69.4420 C.3    72  ARG72       0.1597
     18  C        -15.4010   23.7130   69.6680 C.2    72  ARG72       0.2287
     19  O        -14.7190   23.8790   70.6530 O.2    72  ARG72      -0.2864
     20  CB       -17.6470   24.2980   70.5370 C.3    72  ARG72       0.0334
     21  CG       -18.9830   24.9670   70.2590 C.3    72  ARG72       0.0492
     22  CD       -20.0620   24.6500   71.2750 C.3    72  ARG72       0.2205
     23  NE       -21.3610   25.1850   70.8260 N.pl3  72  ARG72      -0.0865
     24  CZ       -22.4060   25.4410   71.6230 C.cat  72  ARG72       0.5346
     25  NH1      -22.3540   25.1970   72.9450 N.pl3  72  ARG72       0.1354
     26  NH2      -23.5360   25.9220   71.0940 N.pl3  72  ARG72       0.1354
     27  N        -14.8880   22.7110   61.5360 N.3   106  MET106     -0.1245
     28  CA       -14.9780   23.3120   60.1840 C.3   106  MET106      0.1570
     29  C        -13.6280   23.8660   59.7690 C.2   106  MET106      0.2261
     30  O        -13.1410   23.5940   58.6760 O.2   106  MET106     -0.2867
     31  CB       -16.0320   24.4390   60.1390 C.3   106  MET106      0.0387
     32  CG       -17.4630   23.9380   60.0390 C.3   106  MET106      0.0595
     33  SD       -18.7100   25.1700   60.4180 S.3   106  MET106     -0.1393
     34  CE       -18.4420   25.3470   62.1830 C.3   106  MET106      0.0692
     35  N        -22.8150   31.6370   57.2950 N.3   125  ILE125     -0.1245
     36  CA       -24.1730   32.0100   57.5190 C.3   125  ILE125      0.1561
     37  C        -24.1810   33.1380   58.5380 C.2   125  ILE125      0.2260
     38  O        -23.4370   33.1110   59.5310 O.2   125  ILE125     -0.2867
     39  CB       -25.0410   30.7780   57.9710 C.3   125  ILE125      0.0252
     40  CG1      -26.5470   31.0480   57.7840 C.3   125  ILE125      0.0019
     41  CG2      -24.7920   30.3910   59.4160 C.3   125  ILE125      0.0019
     42  CD1      -27.0020   31.0000   56.3320 C.3   125  ILE125      0.0001
     43  N        -25.0380   35.1640   61.6900 N.3   127  LEU127     -0.1245
     44  CA       -25.3310   34.8100   63.0710 C.3   127  LEU127      0.1561
     45  C        -25.5520   36.0950   63.8690 C.2   127  LEU127      0.2260
     46  O        -25.1600   37.1950   63.4320 O.2   127  LEU127     -0.2867
     47  CB       -24.1290   34.1000   63.6320 C.3   127  LEU127      0.0270
     48  CG       -23.8110   32.7370   63.0680 C.3   127  LEU127      0.0019
     49  CD1      -22.4610   32.2310   63.5980 C.3   127  LEU127      0.0001
     50  CD2      -24.9080   31.7650   63.4580 C.3   127  LEU127      0.0001
     51  N        -24.1560   37.0400   66.5520 N.3   129  PHE129     -0.1241
     52  CA       -22.9170   37.5370   67.1640 C.3   129  PHE129      0.1605
     53  C        -21.7870   37.6440   66.1300 C.2   129  PHE129      0.2264
     54  O        -21.8810   37.1500   64.9990 O.2   129  PHE129     -0.2867
     55  CB       -22.5170   36.6330   68.3310 C.3   129  PHE129      0.0534
     56  CG       -22.5070   35.1890   67.9750 C.ar  129  PHE129     -0.0203
     57  CD1      -23.6700   34.4190   68.1170 C.ar  129  PHE129     -0.0042
     58  CD2      -21.3340   34.5900   67.4670 C.ar  129  PHE129     -0.0042
     59  CE1      -23.6710   33.0840   67.7600 C.ar  129  PHE129     -0.0003
     60  CE2      -21.3180   33.2400   67.1230 C.ar  129  PHE129     -0.0003
     61  CZ       -22.4970   32.4910   67.2590 C.ar  129  PHE129     -0.0000
     62  N        -18.7070   36.8560   64.1120 N.3   131  GLN131     -0.1245
     63  CA       -17.9460   35.6640   63.7690 C.3   131  GLN131      0.1566
     64  C        -17.7100   35.6950   62.2620 C.2   131  GLN131      0.2260
     65  O        -18.6670   35.6450   61.5050 O.2   131  GLN131     -0.2867
     66  CB       -18.6860   34.3700   64.1890 C.3   131  GLN131      0.0367
     67  CG       -17.7710   33.1700   64.4660 C.3   131  GLN131      0.0905
     68  CD       -18.5020   31.8410   64.3290 C.2   131  GLN131      0.2608
     69  OE1      -18.6410   31.3190   63.2200 O.2   131  GLN131     -0.2717
     70  NE2      -18.9700   31.2890   65.4500 N.am  131  GLN131     -0.0878
     71  N        -30.4770   30.7630   55.3420 N.3   146  PHE146     -0.1241
     72  CA       -30.2450   29.3850   55.7680 C.3   146  PHE146      0.1605
     73  C        -30.5270   28.3150   54.7150 C.2   146  PHE146      0.2264
     74  O        -29.7310   27.4050   54.4750 O.2   146  PHE146     -0.2867
     75  CB       -31.1530   29.1390   56.9720 C.3   146  PHE146      0.0534
     76  CG       -30.7200   28.0030   57.8400 C.ar  146  PHE146     -0.0203
     77  CD1      -29.5690   28.1180   58.6810 C.ar  146  PHE146     -0.0042
     78  CD2      -31.4610   26.8100   57.8780 C.ar  146  PHE146     -0.0042
     79  CE1      -29.1670   27.0630   59.5150 C.ar  146  PHE146     -0.0003
     80  CE2      -31.0480   25.7490   58.7160 C.ar  146  PHE146     -0.0003
     81  CZ       -29.9120   25.8810   59.5270 C.ar  146  PHE146     -0.0000
     82  N        -28.3330   28.3070   51.7000 N.3   149  ARG149     -0.1245
     83  CA       -27.0800   27.6220   51.9920 C.3   149  ARG149      0.1563
     84  C        -27.2210   26.1070   52.0390 C.2   149  ARG149      0.2260
     85  O        -26.3480   25.4010   51.5570 O.2   149  ARG149     -0.2867
     86  CB       -26.4410   28.0990   53.2790 C.3   149  ARG149      0.0307
     87  CG       -25.0370   27.5360   53.4530 C.3   149  ARG149      0.0489
     88  CD       -24.3560   28.0480   54.6950 C.3   149  ARG149      0.2205
     89  NE       -24.8880   27.4250   55.9020 N.pl3 149  ARG149     -0.0865
     90  CZ       -24.2330   27.3190   57.0420 C.cat 149  ARG149      0.5346
     91  NH1      -24.8130   26.7220   58.0490 N.pl3 149  ARG149      0.1354
     92  NH2      -22.9990   27.8000   57.1990 N.pl3 149  ARG149      0.1354
     93  N        -22.6630   19.2760   67.1380 N.3   166  GLY166     -0.1210
     94  CA       -23.8780   19.6890   67.8210 C.3   166  GLY166      0.1956
     95  C        -25.1240   19.6330   66.9580 C.2   166  GLY166      0.2612
     96  O        -25.1880   18.9950   65.8800 O.2   166  GLY166     -0.2717
     97  N        -26.1290   20.3320   67.4400 N.am  167  LEU167     -0.1965
     98  CA       -27.4230   20.4340   66.7660 C.3   167  LEU167      0.1728
     99  C        -27.3100   20.7460   65.2570 C.2   167  LEU167      0.2617
    100  O        -27.9870   20.1160   64.4180 O.2   167  LEU167     -0.2715
    101  CB       -28.2450   21.5270   67.4520 C.3   167  LEU167      0.0311
    102  CG       -28.5010   21.2900   68.9440 C.3   167  LEU167      0.0022
    103  CD1      -29.3700   22.3940   69.4820 C.3   167  LEU167      0.0001
    104  CD2      -29.1520   19.9490   69.1960 C.3   167  LEU167      0.0001
    105  N        -26.4570   21.7020   64.9070 N.am  168  GLY168     -0.1940
    106  CA       -26.2650   22.0820   63.4950 C.3   168  GLY168      0.2014
    107  C        -25.7830   20.9710   62.5960 C.2   168  GLY168      0.2639
    108  O        -26.1610   20.8870   61.4280 O.2   168  GLY168     -0.2714
    109  N        -24.9270   20.1350   63.1710 N.am  169  THR169     -0.1950
    110  CA       -24.3180   19.0380   62.4770 C.3   169  THR169      0.1897
    111  C        -25.3490   17.9340   62.2890 C.2   169  THR169      0.2313
    112  O        -25.4180   17.3790   61.2360 O.2   169  THR169     -0.2863
    113  CB       -23.0890   18.5430   63.2680 C.3   169  THR169      0.1794
    114  OG1      -22.0500   19.5480   63.2520 O.3   169  THR169     -0.2208
    115  CG2      -22.5390   17.2710   62.6810 C.3   169  THR169      0.0378
@<TRIPOS>BOND
     1    85    84    2
     2    82    83    1
     3    83    84    1
     4    83    86    1
     5    86    87    1
     6    87    88    1
     7    74    73    2
     8    88    89    1
     9    73    72    1
    10    71    72    1
    11    72    75    1
    12    89    90    2
    13    42    40    1
    14    75    76    1
    15    90    92    1
    16    90    91    1
    17    35    36    1
    18    36    39    1
    19    36    37    1
    20    40    39    1
    21    76    78   ar
    22    76    77   ar
    23    78    80   ar
    24    39    41    1
    25    37    38    2
    26    30    29    2
    27    77    79   ar
    28    80    81   ar
    29    79    81   ar
    30    29    28    1
    31    32    31    1
    32    32    33    1
    33    31    28    1
    34    28    27    1
    35    33    34    1
    36   112   111    2
    37   108   107    2
    38     1     2    1
    39    65    64    2
    40    43    44    1
    41    64    63    1
    42   111   110    1
    43   110   109    1
    44   110   113    1
    45   107   109   am
    46   107   106    1
    47   115   113    1
    48     2     3    1
    49    48    50    1
    50    48    49    1
    51    48    47    1
    52    44    47    1
    53    44    45    1
    54     4     3    2
    55    69    68    2
    56   114   113    1
    57    46    45    2
    58   106   105    1
    59     3     5   am
    60    63    62    1
    61    63    66    1
    62    66    67    1
    63    68    67    1
    64    68    70   am
    65   100    99    2
    66   105    99   am
    67     5     6    1
    68    54    53    2
    69     8     7    2
    70    99    98    1
    71     7     6    1
    72     7    11   am
    73    96    95    2
    74    15    12    1
    75    12    11    1
    76    12    13    1
    77     6     9    1
    78    53    52    1
    79    51    52    1
    80    98    97    1
    81    98   101    1
    82    95    97   am
    83    95    94    1
    84    14    13    2
    85    13    16   am
    86    60    61   ar
    87    60    58   ar
    88    93    94    1
    89    52    55    1
    90    61    59   ar
    91     9    10    1
    92   101   102    1
    93    58    56   ar
    94    59    57   ar
    95    56    57   ar
    96    56    55    1
    97    16    17    1
    98   102   104    1
    99   102   103    1
   100    17    18    1
   101    17    20    1
   102    18    19    2
   103    21    20    1
   104    21    22    1
   105    23    22    1
   106    23    24    2
   107    26    24    1
   108    24    25    1
