@<TRIPOS>MOLECULE
tmp/5zicB01.pdb
 88 86 0 0 0
SMALL
GASTEIGER

@<TRIPOS>ATOM
      1  N         25.5770   33.3930   11.6810 N.3    61  LEU61      -0.1245
      2  CA        25.6950   32.8350   10.3390 C.3    61  LEU61       0.1561
      3  C         27.1320   32.8830    9.8340 C.2    61  LEU61       0.2260
      4  O         27.6090   31.9360    9.1980 O.2    61  LEU61      -0.2867
      5  CB        24.7680   33.6050    9.3950 C.3    61  LEU61       0.0270
      6  CG        24.5850   33.1360    7.9530 C.3    61  LEU61       0.0019
      7  CD1       24.0580   31.7160    7.9160 C.3    61  LEU61       0.0001
      8  CD2       23.6460   34.0820    7.2210 C.3    61  LEU61       0.0001
      9  N         28.4120   26.5070    9.3470 N.3    67  GLY67      -0.1210
     10  CA        29.1180   26.0700    8.1590 C.3    67  GLY67       0.1956
     11  C         29.0080   26.9980    6.9720 C.2    67  GLY67       0.2611
     12  O         29.5310   26.6740    5.9020 O.2    67  GLY67      -0.2717
     13  N         28.3550   28.1460    7.1310 N.am   68  PHE68      -0.1976
     14  CA        28.1300   29.0470    6.0090 C.3    68  PHE68       0.1639
     15  C         29.4150   29.7630    5.6140 C.2    68  PHE68       0.2290
     16  O         30.1440   30.2820    6.4630 O.2    68  PHE68      -0.2864
     17  CB        27.0530   30.0720    6.3610 C.3    68  PHE68       0.0560
     18  CG        26.8490   31.1230    5.3060 C.ar   68  PHE68      -0.0200
     19  CD1       25.9610   30.9100    4.2660 C.ar   68  PHE68      -0.0042
     20  CD2       27.5440   32.3230    5.3530 C.ar   68  PHE68      -0.0042
     21  CE1       25.7680   31.8690    3.2960 C.ar   68  PHE68      -0.0003
     22  CE2       27.3570   33.2840    4.3830 C.ar   68  PHE68      -0.0003
     23  CZ        26.4680   33.0560    3.3540 C.ar   68  PHE68      -0.0000
     24  N         28.6970   29.0320   -1.0850 N.3    73  THR73      -0.1218
     25  CA        27.2890   29.2160   -1.4210 C.3    73  THR73       0.1862
     26  C         27.1200   29.9870   -2.7290 C.2    73  THR73       0.2287
     27  O         26.2100   29.6910   -3.5110 O.2    73  THR73      -0.2866
     28  CB        26.5660   29.9310   -0.2770 C.3    73  THR73       0.1770
     29  OG1       26.9070   29.3080    0.9670 O.3    73  THR73      -0.2211
     30  CG2       25.0600   29.8680   -0.4680 C.3    73  THR73       0.0375
     31  N         21.1930   29.5190   -0.7430 N.3    79  PRO79      -0.2116
     32  CA        20.4750   30.7530   -0.3990 C.3    79  PRO79       0.1372
     33  C         21.4020   31.8850    0.0200 C.2    79  PRO79       0.2244
     34  O         22.4320   31.6750    0.6650 O.2    79  PRO79      -0.2868
     35  CB        19.5620   30.3300    0.7700 C.3    79  PRO79       0.0268
     36  CG        19.6790   28.8350    0.8760 C.3    79  PRO79       0.0207
     37  CD        20.9890   28.4680    0.2650 C.3    79  PRO79       0.0892
     38  N         14.1930   32.3410   10.0800 N.3   148  SER148     -0.1202
     39  CA        13.5340   32.5550    8.7930 C.3   148  SER148      0.2020
     40  C         12.2200   31.7890    8.6930 C.2   148  SER148      0.2618
     41  O         11.2030   32.3360    8.2520 O.2   148  SER148     -0.2717
     42  CB        14.4760   32.1640    7.6520 C.3   148  SER148      0.2103
     43  OG        14.7460   30.7740    7.6610 O.3   148  SER148     -0.2182
     44  N         12.2170   30.5200    9.0950 N.am  149  PHE149     -0.1975
     45  CA        11.0400   29.6810    8.9080 C.3   149  PHE149      0.1639
     46  C         10.0550   29.7460   10.0690 C.2   149  PHE149      0.2290
     47  O          8.9630   29.1780    9.9630 O.2   149  PHE149     -0.2864
     48  CB        11.4620   28.2290    8.6700 C.3   149  PHE149      0.0560
     49  CG        12.2680   28.0350    7.4180 C.ar  149  PHE149     -0.0200
     50  CD1       11.6470   27.9620    6.1800 C.ar  149  PHE149     -0.0042
     51  CD2       13.6470   27.9340    7.4760 C.ar  149  PHE149     -0.0042
     52  CE1       12.3890   27.7870    5.0250 C.ar  149  PHE149     -0.0003
     53  CE2       14.3940   27.7610    6.3250 C.ar  149  PHE149     -0.0003
     54  CZ        13.7650   27.6860    5.0990 C.ar  149  PHE149     -0.0000
     55  N         16.7050   23.4800   17.1280 N.3   170  TRP170     -0.1241
     56  CA        16.5540   24.9170   16.9490 C.3   170  TRP170      0.1605
     57  C         15.6420   25.5680   17.9820 C.2   170  TRP170      0.2264
     58  O         15.6200   26.8000   18.0690 O.2   170  TRP170     -0.2867
     59  CB        16.0070   25.2280   15.5480 C.3   170  TRP170      0.0550
     60  CG        16.8610   24.7460   14.4100 C.ar  170  TRP170      0.0003
     61  CD1       16.7100   23.5860   13.7070 C.ar  170  TRP170      0.0946
     62  CD2       17.9790   25.4250   13.8250 C.ar  170  TRP170      0.0152
     63  NE1       17.6710   23.4950   12.7300 N.ar  170  TRP170     -0.2442
     64  CE2       18.4630   24.6110   12.7810 C.ar  170  TRP170      0.0810
     65  CE3       18.6220   26.6390   14.0880 C.ar  170  TRP170      0.0012
     66  CZ2       19.5600   24.9720   12.0010 C.ar  170  TRP170      0.0191
     67  CZ3       19.7110   26.9950   13.3110 C.ar  170  TRP170      0.0001
     68  CH2       20.1680   26.1650   12.2810 C.ar  170  TRP170      0.0015
     69  N         13.4120   18.3020    4.3540 N.3   305  PHE305     -0.1241
     70  CA        14.0540   19.6080    4.4630 C.3   305  PHE305      0.1605
     71  C         13.6150   20.3300    5.7280 C.2   305  PHE305      0.2264
     72  O         14.3990   21.0780    6.3220 O.2   305  PHE305     -0.2867
     73  CB        13.7460   20.4690    3.2360 C.3   305  PHE305      0.0534
     74  CG        14.3130   21.8650    3.3160 C.ar  305  PHE305     -0.0203
     75  CD1       13.5460   22.9170    3.7970 C.ar  305  PHE305     -0.0042
     76  CD2       15.6160   22.1220    2.9200 C.ar  305  PHE305     -0.0042
     77  CE1       14.0660   24.1990    3.8780 C.ar  305  PHE305     -0.0003
     78  CE2       16.1410   23.4020    2.9980 C.ar  305  PHE305     -0.0003
     79  CZ        15.3640   24.4420    3.4780 C.ar  305  PHE305     -0.0000
     80  N         12.8570   21.2990   12.1900 N.3   309  LYS309     -0.1245
     81  CA        12.5670   22.7120   12.3600 C.3   309  LYS309      0.1561
     82  C         11.4870   22.9060   13.4240 C.2   309  LYS309      0.2260
     83  O         10.5760   22.0830   13.5520 O.2   309  LYS309     -0.2867
     84  CB        12.1270   23.3310   11.0370 C.3   309  LYS309      0.0271
     85  CG        13.2580   23.4410   10.0210 C.3   309  LYS309      0.0035
     86  CD        12.8670   24.2710    8.8090 C.3   309  LYS309      0.0206
     87  CE        14.0370   24.4110    7.8440 C.3   309  LYS309      0.1093
     88  NZ        15.1940   25.1290    8.4510 N.3   309  LYS309     -0.1314
@<TRIPOS>BOND
     1    27    26    2
     2    26    25    1
     3    25    24    1
     4    25    28    1
     5    31    32    1
     6    31    37    1
     7    30    28    1
     8    32    33    1
     9    32    35    1
    10    28    29    1
    11    33    34    2
    12    37    36    1
    13    35    36    1
    14    76    78   ar
    15    76    74   ar
    16    78    79   ar
    17    73    74    1
    18    73    70    1
    19    21    23   ar
    20    21    19   ar
    21    74    75   ar
    22    23    22   ar
    23    79    77   ar
    24    75    77   ar
    25    19    18   ar
    26    69    70    1
    27    22    20   ar
    28    70    71    1
    29    52    54   ar
    30    52    50   ar
    31    54    53   ar
    32    18    20   ar
    33    18    17    1
    34    15    14    1
    35    15    16    2
    36    71    72    2
    37    12    11    2
    38    14    17    1
    39    14    13    1
    40    50    49   ar
    41    53    51   ar
    42    11    13   am
    43    11    10    1
    44     8     6    1
    45    49    51   ar
    46    49    48    1
    47    42    43    1
    48    42    39    1
    49    87    88    1
    50    87    86    1
    51     7     6    1
    52     6     5    1
    53    10     9    1
    54    41    40    2
    55    48    45    1
    56    40    39    1
    57    40    44   am
    58    39    38    1
    59    86    85    1
    60    45    44    1
    61    45    46    1
    62     4     3    2
    63     5     2    1
    64     3     2    1
    65    47    46    2
    66    85    84    1
    67     2     1    1
    68    84    81    1
    69    66    68   ar
    70    66    64   ar
    71    80    81    1
    72    68    67   ar
    73    81    82    1
    74    63    64   ar
    75    63    61   ar
    76    64    62   ar
    77    67    65   ar
    78    82    83    2
    79    61    60   ar
    80    62    65   ar
    81    62    60   ar
    82    60    59    1
    83    59    56    1
    84    56    55    1
    85    56    57    1
    86    57    58    2
