@<TRIPOS>MOLECULE
tmp/5zicB02.pdb
 122 119 0 0 0
SMALL
GASTEIGER

@<TRIPOS>ATOM
      1  N         25.5770   33.3930   11.6810 N.3    61  LEU61      -0.1245
      2  CA        25.6950   32.8350   10.3390 C.3    61  LEU61       0.1561
      3  C         27.1320   32.8830    9.8340 C.2    61  LEU61       0.2260
      4  O         27.6090   31.9360    9.1980 O.2    61  LEU61      -0.2867
      5  CB        24.7680   33.6050    9.3950 C.3    61  LEU61       0.0270
      6  CG        24.5850   33.1360    7.9530 C.3    61  LEU61       0.0019
      7  CD1       24.0580   31.7160    7.9160 C.3    61  LEU61       0.0001
      8  CD2       23.6460   34.0820    7.2210 C.3    61  LEU61       0.0001
      9  N         28.3550   28.1460    7.1310 N.3    68  PHE68      -0.1241
     10  CA        28.1300   29.0470    6.0090 C.3    68  PHE68       0.1605
     11  C         29.4150   29.7630    5.6140 C.2    68  PHE68       0.2264
     12  O         30.1440   30.2820    6.4630 O.2    68  PHE68      -0.2867
     13  CB        27.0530   30.0720    6.3610 C.3    68  PHE68       0.0534
     14  CG        26.8490   31.1230    5.3060 C.ar   68  PHE68      -0.0203
     15  CD1       25.9610   30.9100    4.2660 C.ar   68  PHE68      -0.0042
     16  CD2       27.5440   32.3230    5.3530 C.ar   68  PHE68      -0.0042
     17  CE1       25.7680   31.8690    3.2960 C.ar   68  PHE68      -0.0003
     18  CE2       27.3570   33.2840    4.3830 C.ar   68  PHE68      -0.0003
     19  CZ        26.4680   33.0560    3.3540 C.ar   68  PHE68      -0.0000
     20  N         21.1930   29.5190   -0.7430 N.3    79  PRO79      -0.2116
     21  CA        20.4750   30.7530   -0.3990 C.3    79  PRO79       0.1372
     22  C         21.4020   31.8850    0.0200 C.2    79  PRO79       0.2244
     23  O         22.4320   31.6750    0.6650 O.2    79  PRO79      -0.2868
     24  CB        19.5620   30.3300    0.7700 C.3    79  PRO79       0.0268
     25  CG        19.6790   28.8350    0.8760 C.3    79  PRO79       0.0207
     26  CD        20.9890   28.4680    0.2650 C.3    79  PRO79       0.0892
     27  N         18.9720   34.8860    3.9610 N.3    82  GLU82      -0.1245
     28  CA        19.3550   35.3400    5.2930 C.3    82  GLU82       0.1567
     29  C         20.4350   36.4110    5.2270 C.2    82  GLU82       0.2260
     30  O         20.4420   37.3300    6.0520 O.2    82  GLU82      -0.2867
     31  CB        19.8260   34.1620    6.1400 C.3    82  GLU82       0.0388
     32  CG        20.1240   34.4910    7.5890 C.3    82  GLU82       0.1160
     33  CD        18.9130   34.6640    8.4270 C.2    82  GLU82       0.3649
     34  OE1       17.9480   33.8720    8.2730 O.co2  82  GLU82      -0.2457
     35  OE2       19.0230   35.5490    9.3480 O.co2  82  GLU82      -0.2457
     36  N         20.8860   35.3560   15.4100 N.3   121  ASP121     -0.1225
     37  CA        20.2480   34.1410   14.9260 C.3   121  ASP121      0.1805
     38  C         20.4040   33.0360   15.9630 C.2   121  ASP121      0.2597
     39  O         21.1390   33.1730   16.9450 O.2   121  ASP121     -0.2718
     40  CB        20.8280   33.7120   13.5720 C.3   121  ASP121      0.1424
     41  CG        22.3450   33.7720   13.5350 C.2   121  ASP121      0.3668
     42  OD1       22.9740   33.7420   14.6130 O.co2 121  ASP121     -0.2456
     43  OD2       22.9100   33.8490   12.4240 O.co2 121  ASP121     -0.2456
     44  N         19.6940   31.9290   15.7330 N.am  122  ILE122     -0.1980
     45  CA        19.6830   30.8380   16.7060 C.3   122  ILE122      0.1595
     46  C         21.0830   30.2640   16.8830 C.2   122  ILE122      0.2287
     47  O         21.4990   29.9390   18.0030 O.2   122  ILE122     -0.2864
     48  CB        18.6680   29.7590   16.2880 C.3   122  ILE122      0.0276
     49  CG1       17.2480   30.3300   16.3160 C.3   122  ILE122      0.0022
     50  CG2       18.7650   28.5470   17.2010 C.3   122  ILE122      0.0022
     51  CD1       16.1740   29.3230   15.9770 C.3   122  ILE122      0.0001
     52  N         16.5000   36.3430   14.4320 N.3   146  LEU146     -0.1231
     53  CA        16.2400   36.1420   13.0080 C.3   146  LEU146      0.1693
     54  C         16.1010   34.6480   12.7510 C.2   146  LEU146      0.2592
     55  O         17.0900   33.9140   12.6900 O.2   146  LEU146     -0.2718
     56  CB        17.3520   36.7590   12.1650 C.3   146  LEU146      0.0284
     57  CG        17.2520   38.2630   11.8730 C.3   146  LEU146      0.0019
     58  CD1       17.2630   39.1030   13.1450 C.3   146  LEU146      0.0001
     59  CD2       18.3580   38.7150   10.9300 C.3   146  LEU146      0.0001
     60  N         14.8570   34.1980   12.6090 N.am  147  ASP147     -0.1960
     61  CA        14.5070   32.7880   12.4530 C.3   147  ASP147      0.1840
     62  C         13.6050   32.7040   11.2250 C.2   147  ASP147      0.2623
     63  O         12.4010   32.9590   11.3170 O.2   147  ASP147     -0.2715
     64  CB        13.8220   32.2660   13.7150 C.3   147  ASP147      0.1450
     65  CG        13.1940   30.9010   13.5300 C.2   147  ASP147      0.3671
     66  OD1       13.7320   30.0860   12.7520 O.co2 147  ASP147     -0.2456
     67  OD2       12.1580   30.6430   14.1780 O.co2 147  ASP147     -0.2456
     68  N         14.1930   32.3410   10.0800 N.am  148  SER148     -0.1936
     69  CA        13.5340   32.5550    8.7930 C.3   148  SER148      0.2055
     70  C         12.2200   31.7890    8.6930 C.2   148  SER148      0.2643
     71  O         11.2030   32.3360    8.2520 O.2   148  SER148     -0.2714
     72  CB        14.4760   32.1640    7.6520 C.3   148  SER148      0.2130
     73  OG        14.7460   30.7740    7.6610 O.3   148  SER148     -0.2179
     74  N         12.2170   30.5200    9.0950 N.am  149  PHE149     -0.1973
     75  CA        11.0400   29.6810    8.9080 C.3   149  PHE149      0.1639
     76  C         10.0550   29.7460   10.0690 C.2   149  PHE149      0.2290
     77  O          8.9630   29.1780    9.9630 O.2   149  PHE149     -0.2864
     78  CB        11.4620   28.2290    8.6700 C.3   149  PHE149      0.0560
     79  CG        12.2680   28.0350    7.4180 C.ar  149  PHE149     -0.0200
     80  CD1       11.6470   27.9620    6.1800 C.ar  149  PHE149     -0.0042
     81  CD2       13.6470   27.9340    7.4760 C.ar  149  PHE149     -0.0042
     82  CE1       12.3890   27.7870    5.0250 C.ar  149  PHE149     -0.0003
     83  CE2       14.3940   27.7610    6.3250 C.ar  149  PHE149     -0.0003
     84  CZ        13.7650   27.6860    5.0990 C.ar  149  PHE149     -0.0000
     85  N         16.7050   23.4800   17.1280 N.3   170  TRP170     -0.1241
     86  CA        16.5540   24.9170   16.9490 C.3   170  TRP170      0.1605
     87  C         15.6420   25.5680   17.9820 C.2   170  TRP170      0.2264
     88  O         15.6200   26.8000   18.0690 O.2   170  TRP170     -0.2867
     89  CB        16.0070   25.2280   15.5480 C.3   170  TRP170      0.0550
     90  CG        16.8610   24.7460   14.4100 C.ar  170  TRP170      0.0003
     91  CD1       16.7100   23.5860   13.7070 C.ar  170  TRP170      0.0946
     92  CD2       17.9790   25.4250   13.8250 C.ar  170  TRP170      0.0152
     93  NE1       17.6710   23.4950   12.7300 N.ar  170  TRP170     -0.2442
     94  CE2       18.4630   24.6110   12.7810 C.ar  170  TRP170      0.0810
     95  CE3       18.6220   26.6390   14.0880 C.ar  170  TRP170      0.0012
     96  CZ2       19.5600   24.9720   12.0010 C.ar  170  TRP170      0.0191
     97  CZ3       19.7110   26.9950   13.3110 C.ar  170  TRP170      0.0001
     98  CH2       20.1680   26.1650   12.2810 C.ar  170  TRP170      0.0015
     99  N         11.1790   35.3900    7.9470 N.3   183  MET183     -0.1245
    100  CA        11.5010   35.8600    6.6040 C.3   183  MET183      0.1570
    101  C         10.2570   36.3410    5.8660 C.2   183  MET183      0.2261
    102  O         10.3180   37.3150    5.1080 O.2   183  MET183     -0.2867
    103  CB        12.1910   34.7410    5.8210 C.3   183  MET183      0.0387
    104  CG        12.8110   35.1730    4.5060 C.3   183  MET183      0.0595
    105  SD        14.2660   36.2130    4.7310 S.3   183  MET183     -0.1393
    106  CE        15.3020   35.1450    5.7290 C.3   183  MET183      0.0692
    107  N         12.8570   21.2990   12.1900 N.3   309  LYS309     -0.1231
    108  CA        12.5670   22.7120   12.3600 C.3   309  LYS309      0.1678
    109  C         11.4870   22.9060   13.4240 C.2   309  LYS309      0.2434
    110  O         10.5760   22.0830   13.5520 O.2   309  LYS309     -0.2733
    111  CB        12.1270   23.3310   11.0370 C.3   309  LYS309      0.0284
    112  CG        13.2580   23.4410   10.0210 C.3   309  LYS309      0.0035
    113  CD        12.8670   24.2710    8.8090 C.3   309  LYS309      0.0206
    114  CE        14.0370   24.4110    7.8440 C.3   309  LYS309      0.1093
    115  NZ        15.1940   25.1290    8.4510 N.3   309  LYS309     -0.1314
    116  N         11.5720   23.9930   14.2110 N.am  310  PRO310     -0.2729
    117  CA        10.6820   24.1920   15.3590 C.3   310  PRO310      0.1401
    118  C          9.2790   24.6760   14.9960 C.2   310  PRO310      0.2269
    119  O          8.7550   25.6260   15.5780 O.2   310  PRO310     -0.2865
    120  CB        11.4360   25.2470   16.1850 C.3   310  PRO310      0.0296
    121  CG        12.1720   26.0430   15.1620 C.3   310  PRO310      0.0237
    122  CD        12.5650   25.0740   14.0800 C.3   310  PRO310      0.0939
@<TRIPOS>BOND
     1    20    21    1
     2    20    26    1
     3    21    22    1
     4    21    24    1
     5    22    23    2
     6    26    25    1
     7    24    25    1
     8    17    19   ar
     9    17    15   ar
    10    19    18   ar
    11    27    28    1
    12    15    14   ar
    13    18    16   ar
    14   104   105    1
    15   104   103    1
    16   105   106    1
    17    82    84   ar
    18    82    80   ar
    19    84    83   ar
    20   102   101    2
    21    29    28    1
    22    29    30    2
    23    28    31    1
    24    14    16   ar
    25    14    13    1
    26    11    10    1
    27    11    12    2
    28   103   100    1
    29   101   100    1
    30    10    13    1
    31    10     9    1
    32    31    32    1
    33    80    79   ar
    34    83    81   ar
    35   100    99    1
    36     8     6    1
    37    79    81   ar
    38    79    78    1
    39    32    33    1
    40    72    73    1
    41    72    69    1
    42   114   115    1
    43   114   113    1
    44     7     6    1
    45     6     5    1
    46    71    70    2
    47    34    33   ar
    48    33    35   ar
    49    78    75    1
    50    70    69    1
    51    70    74   am
    52    69    68    1
    53   113   112    1
    54    75    74    1
    55    75    76    1
    56     4     3    2
    57     5     2    1
    58     3     2    1
    59    77    76    2
    60   112   111    1
    61    68    62   am
    62     2     1    1
    63    59    57    1
    64   111   108    1
    65    62    63    2
    66    62    61    1
    67    57    56    1
    68    57    58    1
    69    96    98   ar
    70    96    94   ar
    71    56    53    1
    72   107   108    1
    73    98    97   ar
    74   108   109    1
    75    43    41   ar
    76    61    60    1
    77    61    64    1
    78    60    54   am
    79    55    54    2
    80    93    94   ar
    81    93    91   ar
    82    54    53    1
    83    66    65   ar
    84    94    92   ar
    85    53    52    1
    86    97    95   ar
    87   109   110    2
    88   109   116   am
    89    65    64    1
    90    65    67   ar
    91    41    40    1
    92    41    42   ar
    93    40    37    1
    94    91    90   ar
    95    92    95   ar
    96    92    90   ar
    97   122   116    1
    98   122   121    1
    99   116   117    1
   100    90    89    1
   101    37    36    1
   102    37    38    1
   103   118   117    1
   104   118   119    2
   105   121   120    1
   106   117   120    1
   107    89    86    1
   108    44    38   am
   109    44    45    1
   110    38    39    2
   111    51    49    1
   112    48    49    1
   113    48    45    1
   114    48    50    1
   115    45    46    1
   116    46    47    2
   117    86    85    1
   118    86    87    1
   119    87    88    2
