@<TRIPOS>MOLECULE
tmp/5zihB11.pdb
 69 62 0 0 0
SMALL
GASTEIGER

@<TRIPOS>ATOM
      1  N          7.5610   35.0170  145.6650 N.3    36  GLY36      -0.1225
      2  CA         7.6270   35.6850  144.3750 C.3    36  GLY36       0.1811
      3  C          7.9670   34.7330  143.2440 C.2    36  GLY36       0.2280
      4  O          7.3270   34.7460  142.1880 O.2    36  GLY36      -0.2866
      5  N          5.0420   32.5300  142.3180 N.3    39  ILE39      -0.1231
      6  CA         4.0790   33.1860  141.4390 C.3    39  ILE39       0.1692
      7  C          4.6190   33.2590  140.0170 C.2    39  ILE39       0.2592
      8  O          3.9200   32.9250  139.0510 O.2    39  ILE39      -0.2718
      9  CB         3.7340   34.5860  141.9760 C.3    39  ILE39       0.0266
     10  CG1        3.0660   34.4870  143.3490 C.3    39  ILE39       0.0019
     11  CG2        2.8620   35.3320  140.9830 C.3    39  ILE39       0.0020
     12  CD1        3.0020   35.8000  144.0820 C.3    39  ILE39       0.0001
     13  N          5.8690   33.7100  139.8660 N.am   40  GLY40      -0.1957
     14  CA         6.4640   33.7970  138.5440 C.3    40  GLY40       0.1869
     15  C          6.5210   32.4610  137.8300 C.2    40  GLY40       0.2309
     16  O          6.4490   32.4060  136.5990 O.2    40  GLY40      -0.2863
     17  N          2.7950   31.7850  136.5840 N.3    43  VAL43      -0.1231
     18  CA         2.4760   32.5830  135.4030 C.3    43  VAL43       0.1692
     19  C          3.0190   31.9140  134.1490 C.2    43  VAL43       0.2592
     20  O          2.3110   31.7590  133.1470 O.2    43  VAL43      -0.2718
     21  CB         3.0220   34.0150  135.5550 C.3    43  VAL43       0.0266
     22  CG1        2.8810   34.7770  134.2480 C.3    43  VAL43       0.0020
     23  CG2        2.3050   34.7360  136.6810 C.3    43  VAL43       0.0020
     24  N          4.2810   31.4910  134.1900 N.am   44  CYS44      -0.1970
     25  CA         4.8920   30.9120  132.9990 C.3    44  CYS44       0.1712
     26  C          4.3100   29.5450  132.6600 C.2    44  CYS44       0.2296
     27  O          4.2840   29.1600  131.4860 O.2    44  CYS44      -0.2864
     28  CB         6.4030   30.8290  133.1860 C.3    44  CYS44       0.0983
     29  SG         7.2120   32.4440  133.2540 S.3    44  CYS44      -0.0798
     30  N          0.9360   30.0730  130.8170 N.3    47  ILE47      -0.1245
     31  CA         1.1920   30.5870  129.4750 C.3    47  ILE47       0.1561
     32  C          1.5540   29.4460  128.5340 C.2    47  ILE47       0.2260
     33  O          1.0280   29.3510  127.4200 O.2    47  ILE47      -0.2867
     34  CB         2.2930   31.6650  129.5040 C.3    47  ILE47       0.0252
     35  CG1        1.8120   32.9000  130.2640 C.3    47  ILE47       0.0019
     36  CG2        2.7030   32.0400  128.0880 C.3    47  ILE47       0.0019
     37  CD1        2.8500   33.9880  130.3920 C.3    47  ILE47       0.0001
     38  N         10.8170   28.8130  136.0640 N.3   233  ILE233     -0.1245
     39  CA        10.5750   29.9840  135.2230 C.3   233  ILE233      0.1561
     40  C         11.4190   29.9110  133.9580 C.2   233  ILE233      0.2260
     41  O         10.9180   30.0900  132.8400 O.2   233  ILE233     -0.2867
     42  CB        10.8610   31.2800  136.0070 C.3   233  ILE233      0.0252
     43  CG1        9.8000   31.5170  137.0850 C.3   233  ILE233      0.0019
     44  CG2       10.9480   32.4660  135.0590 C.3   233  ILE233      0.0019
     45  CD1       10.1800   32.5940  138.0670 C.3   233  ILE233      0.0001
     46  N         10.1190   29.3230  129.8550 N.3   237  ILE237     -0.1245
     47  CA        10.4360   30.2650  128.7850 C.3   237  ILE237      0.1561
     48  C         11.1640   29.5580  127.6490 C.2   237  ILE237      0.2260
     49  O         10.8900   29.8070  126.4680 O.2   237  ILE237     -0.2867
     50  CB        11.2520   31.4490  129.3360 C.3   237  ILE237      0.0252
     51  CG1       10.5040   32.1110  130.4940 C.3   237  ILE237      0.0019
     52  CG2       11.5240   32.4660  128.2380 C.3   237  ILE237      0.0019
     53  CD1       11.3220   33.1240  131.2550 C.3   237  ILE237      0.0001
     54  N          8.5320   27.4190  125.7510 N.3   240  ILE240     -0.1231
     55  CA         7.6980   28.2420  124.8810 C.3   240  ILE240      0.1692
     56  C          8.4220   28.5530  123.5790 C.2   240  ILE240      0.2591
     57  O          7.7970   28.6520  122.5130 O.2   240  ILE240     -0.2718
     58  CB         7.2720   29.5250  125.6270 C.3   240  ILE240      0.0266
     59  CG1        6.2990   29.1880  126.7560 C.3   240  ILE240      0.0019
     60  CG2        6.6280   30.5220  124.6880 C.3   240  ILE240      0.0020
     61  CD1        6.0000   30.3590  127.6510 C.3   240  ILE240      0.0001
     62  N          9.7460   28.6780  123.6330 N.am  241  ILE241     -0.1980
     63  CA        10.5290   28.9540  122.4350 C.3   241  ILE241      0.1595
     64  C         10.8360   27.6670  121.6780 C.2   241  ILE241      0.2287
     65  O         10.6640   27.5930  120.4560 O.2   241  ILE241     -0.2864
     66  CB        11.8120   29.7130  122.8180 C.3   241  ILE241      0.0276
     67  CG1       11.4370   31.0830  123.3880 C.3   241  ILE241      0.0022
     68  CG2       12.7440   29.8430  121.6180 C.3   241  ILE241      0.0022
     69  CD1       12.5450   31.7750  124.1090 C.3   241  ILE241      0.0001
@<TRIPOS>BOND
     1    65    64    2
     2    68    66    1
     3    64    63    1
     4    63    66    1
     5    63    62    1
     6    57    56    2
     7    66    67    1
     8    67    69    1
     9    56    62   am
    10    56    55    1
    11    60    58    1
    12    55    58    1
    13    55    54    1
    14    58    59    1
    15    49    48    2
    16    59    61    1
    17    33    32    2
    18    48    47    1
    19    36    34    1
    20    52    50    1
    21    32    31    1
    22    47    50    1
    23    47    46    1
    24    50    51    1
    25    31    34    1
    26    31    30    1
    27    34    35    1
    28    35    37    1
    29    51    53    1
    30    27    26    2
    31    26    25    1
    32    41    40    2
    33    25    28    1
    34    25    24    1
    35    20    19    2
    36    28    29    1
    37    40    39    1
    38    19    24   am
    39    19    18    1
    40    22    21    1
    41    44    42    1
    42    39    42    1
    43    39    38    1
    44    18    21    1
    45    18    17    1
    46    21    23    1
    47    42    43    1
    48    16    15    2
    49    43    45    1
    50    15    14    1
    51    14    13    1
    52     8     7    2
    53    13     7   am
    54     7     6    1
    55    11     9    1
    56     6     9    1
    57     6     5    1
    58     9    10    1
    59     4     3    2
    60     3     2    1
    61    10    12    1
    62     2     1    1
