@<TRIPOS>MOLECULE
tmp/5zihA01.pdb
 114 110 0 0 0
SMALL
GASTEIGER

@<TRIPOS>ATOM
      1  N          8.5410    5.9080  113.4150 N.3   131  GLY131     -0.1225
      2  CA         7.5340    5.3190  114.2840 C.3   131  GLY131      0.1811
      3  C          8.1090    4.2970  115.2470 C.2   131  GLY131      0.2280
      4  O          7.6540    4.1820  116.3880 O.2   131  GLY131     -0.2866
      5  N         10.1800    6.6080  117.9080 N.3   134  VAL134     -0.1231
      6  CA         9.3380    7.3880  118.8140 C.3   134  VAL134      0.1692
      7  C          8.5610    6.4750  119.7570 C.2   134  VAL134      0.2592
      8  O          8.4180    6.7720  120.9500 O.2   134  VAL134     -0.2718
      9  CB         8.3960    8.3110  118.0190 C.3   134  VAL134      0.0266
     10  CG1        7.4770    9.0700  118.9630 C.3   134  VAL134      0.0020
     11  CG2        9.1900    9.2830  117.1740 C.3   134  VAL134      0.0020
     12  N          8.0480    5.3530  119.2460 N.am  135  SER135     -0.1952
     13  CA         7.2810    4.4450  120.0970 C.3   135  SER135      0.1924
     14  C          8.1790    3.7250  121.0960 C.2   135  SER135      0.2314
     15  O          7.7810    3.5040  122.2460 O.2   135  SER135     -0.2863
     16  CB         6.5130    3.4370  119.2440 C.3   135  SER135      0.2116
     17  OG         7.3820    2.7290  118.3820 O.3   135  SER135     -0.2180
     18  N          7.7720    5.6480  129.8140 N.3   142  PHE142     -0.1241
     19  CA         6.6810    5.2850  130.7120 C.3   142  PHE142      0.1605
     20  C          6.9980    4.0300  131.5130 C.2   142  PHE142      0.2264
     21  O          6.4660    3.8530  132.6170 O.2   142  PHE142     -0.2867
     22  CB         5.3810    5.1270  129.9250 C.3   142  PHE142      0.0534
     23  CG         4.6790    6.4360  129.6710 C.ar  142  PHE142     -0.0203
     24  CD1        3.8810    7.0030  130.6510 C.ar  142  PHE142     -0.0042
     25  CD2        4.8380    7.1100  128.4710 C.ar  142  PHE142     -0.0042
     26  CE1        3.2460    8.2100  130.4350 C.ar  142  PHE142     -0.0003
     27  CE2        4.2100    8.3200  128.2510 C.ar  142  PHE142     -0.0003
     28  CZ         3.4100    8.8700  129.2350 C.ar  142  PHE142     -0.0000
     29  N         -1.1380    2.3010  142.5970 N.3   152  TRP152     -0.1227
     30  CA        -1.9210    2.2990  141.3640 C.3   152  TRP152      0.1737
     31  C         -1.2240    3.0630  140.2470 C.2   152  TRP152      0.2595
     32  O         -1.3350    2.6830  139.0750 O.2   152  TRP152     -0.2718
     33  CB        -3.3160    2.8870  141.6190 C.3   152  TRP152      0.0564
     34  CG        -3.3280    4.3820  141.8300 C.ar  152  TRP152      0.0003
     35  CD1       -3.1910    5.0450  143.0160 C.ar  152  TRP152      0.0946
     36  CD2       -3.4930    5.3930  140.8240 C.ar  152  TRP152      0.0152
     37  NE1       -3.2560    6.4050  142.8110 N.ar  152  TRP152     -0.2442
     38  CE2       -3.4400    6.6440  141.4750 C.ar  152  TRP152      0.0810
     39  CE3       -3.6780    5.3610  139.4390 C.ar  152  TRP152      0.0012
     40  CZ2       -3.5640    7.8500  140.7860 C.ar  152  TRP152      0.0191
     41  CZ3       -3.8010    6.5600  138.7570 C.ar  152  TRP152      0.0001
     42  CH2       -3.7440    7.7870  139.4310 C.ar  152  TRP152      0.0015
     43  N         -0.5140    4.1440  140.5870 N.am  153  LEU153     -0.1980
     44  CA         0.1740    4.9320  139.5690 C.3   153  LEU153      0.1596
     45  C          1.1640    4.0790  138.7870 C.2   153  LEU153      0.2287
     46  O          1.3020    4.2330  137.5670 O.2   153  LEU153     -0.2864
     47  CB         0.8850    6.1170  140.2190 C.3   153  LEU153      0.0297
     48  CG         1.6490    7.0220  139.2550 C.3   153  LEU153      0.0022
     49  CD1        0.6860    7.7320  138.3180 C.3   153  LEU153      0.0001
     50  CD2        2.4920    8.0210  140.0240 C.3   153  LEU153      0.0001
     51  N         -0.7970    2.0650  136.1380 N.3   156  LEU156     -0.1231
     52  CA        -1.3050    2.9630  135.1070 C.3   156  LEU156      0.1693
     53  C         -0.2060    3.3120  134.1070 C.2   156  LEU156      0.2591
     54  O         -0.3930    3.1880  132.8920 O.2   156  LEU156     -0.2718
     55  CB        -1.8840    4.2200  135.7630 C.3   156  LEU156      0.0284
     56  CG        -2.6250    5.2860  134.9500 C.3   156  LEU156      0.0019
     57  CD1       -1.7030    6.4330  134.5740 C.3   156  LEU156      0.0001
     58  CD2       -3.2700    4.6810  133.7100 C.3   156  LEU156      0.0001
     59  N          0.9570    3.7350  134.6060 N.am  157  LEU157     -0.1980
     60  CA         2.0770    4.0330  133.7200 C.3   157  LEU157      0.1596
     61  C          2.5470    2.7820  132.9870 C.2   157  LEU157      0.2287
     62  O          2.8910    2.8400  131.7990 O.2   157  LEU157     -0.2864
     63  CB         3.2180    4.6570  134.5230 C.3   157  LEU157      0.0297
     64  CG         2.8880    5.9930  135.1790 C.3   157  LEU157      0.0022
     65  CD1        3.9830    6.4270  136.1300 C.3   157  LEU157      0.0001
     66  CD2        2.6480    7.0560  134.1190 C.3   157  LEU157      0.0001
     67  N          0.3470    2.2780  130.0120 N.3   160  VAL160     -0.1245
     68  CA         0.7030    3.2370  128.9670 C.3   160  VAL160      0.1561
     69  C          1.9550    2.7780  128.2300 C.2   160  VAL160      0.2260
     70  O          2.0580    2.9080  127.0030 O.2   160  VAL160     -0.2867
     71  CB         0.8830    4.6470  129.5630 C.3   160  VAL160      0.0252
     72  CG1        1.3000    5.6380  128.4810 C.3   160  VAL160      0.0019
     73  CG2       -0.3980    5.1060  130.2420 C.3   160  VAL160      0.0019
     74  N          1.0910    0.2010  125.6740 N.3   163  ILE163     -0.1231
     75  CA         0.4880    0.7750  124.4740 C.3   163  ILE163      0.1692
     76  C          1.5700    1.2310  123.5060 C.2   163  ILE163      0.2592
     77  O          1.5280    0.9210  122.3090 O.2   163  ILE163     -0.2718
     78  CB        -0.4570    1.9320  124.8430 C.3   163  ILE163      0.0266
     79  CG1       -1.5640    1.4380  125.7710 C.3   163  ILE163      0.0019
     80  CG2       -1.0550    2.5570  123.5900 C.3   163  ILE163      0.0020
     81  CD1       -2.5010    2.5220  126.2170 C.3   163  ILE163      0.0001
     82  N          2.5490    1.9870  124.0090 N.am  164  TYR164     -0.1976
     83  CA         3.7090    2.3400  123.1970 C.3   164  TYR164      0.1639
     84  C          4.3770    1.0930  122.6320 C.2   164  TYR164      0.2290
     85  O          4.6800    1.0240  121.4340 O.2   164  TYR164     -0.2864
     86  CB         4.7060    3.1450  124.0290 C.3   164  TYR164      0.0560
     87  CG         4.5180    4.6430  123.9800 C.ar  164  TYR164     -0.0198
     88  CD1        4.8360    5.3680  122.8370 C.ar  164  TYR164     -0.0009
     89  CD2        4.0500    5.3400  125.0860 C.ar  164  TYR164     -0.0009
     90  CE1        4.6780    6.7440  122.7940 C.ar  164  TYR164      0.0417
     91  CE2        3.8880    6.7140  125.0510 C.ar  164  TYR164      0.0417
     92  CZ         4.2040    7.4080  123.9030 C.ar  164  TYR164      0.1957
     93  OH         4.0450    8.7710  123.8600 O.3   164  TYR164     -0.2866
     94  N          2.5390   -0.5580  119.5050 N.3   167  TYR167     -0.1241
     95  CA         2.8200    0.0990  118.2310 C.3   167  TYR167      0.1605
     96  C          4.2280   -0.2190  117.7420 C.2   167  TYR167      0.2264
     97  O          4.4490   -0.4110  116.5410 O.2   167  TYR167     -0.2867
     98  CB         2.6320    1.6100  118.3630 C.3   167  TYR167      0.0534
     99  CG         1.1870    2.0390  118.3720 C.ar  167  TYR167     -0.0201
    100  CD1        0.5070    2.2440  119.5660 C.ar  167  TYR167     -0.0009
    101  CD2        0.4980    2.2390  117.1840 C.ar  167  TYR167     -0.0009
    102  CE1       -0.8200    2.6380  119.5750 C.ar  167  TYR167      0.0417
    103  CE2       -0.8280    2.6310  117.1810 C.ar  167  TYR167      0.0417
    104  CZ        -1.4830    2.8280  118.3770 C.ar  167  TYR167      0.1957
    105  OH        -2.8020    3.2160  118.3690 O.3   167  TYR167     -0.2866
    106  N          5.0810   -2.1700  114.3150 N.3   171  GLN171     -0.1245
    107  CA         5.9550   -1.6580  113.2640 C.3   171  GLN171      0.1566
    108  C          7.1750   -2.5540  113.0680 C.2   171  GLN171      0.2260
    109  O          7.6300   -2.7570  111.9350 O.2   171  GLN171     -0.2867
    110  CB         6.3830   -0.2300  113.5970 C.3   171  GLN171      0.0367
    111  CG         5.2390    0.7650  113.7270 C.3   171  GLN171      0.0905
    112  CD         4.8020    1.3390  112.3940 C.2   171  GLN171      0.2608
    113  OE1        3.8050    0.9050  111.8130 O.2   171  GLN171     -0.2717
    114  NE2        5.5430    2.3300  111.9050 N.am  171  GLN171     -0.0878
@<TRIPOS>BOND
     1   113   112    2
     2   114   112   am
     3   109   108    2
     4   112   111    1
     5   108   107    1
     6   107   110    1
     7   107   106    1
     8     1     2    1
     9   110   111    1
    10     2     3    1
    11     3     4    2
    12    97    96    2
    13    11     9    1
    14   103   101   ar
    15   103   104   ar
    16   101    99   ar
    17    96    95    1
    18     5     6    1
    19     9     6    1
    20     9    10    1
    21    95    98    1
    22    95    94    1
    23    98    99    1
    24   105   104    1
    25    99   100   ar
    26   104   102   ar
    27    17    16    1
    28     6     7    1
    29    16    13    1
    30    12     7   am
    31    12    13    1
    32   100   102   ar
    33     7     8    2
    34    13    14    1
    35    14    15    2
    36    85    84    2
    37    77    76    2
    38    84    83    1
    39    90    88   ar
    40    90    92   ar
    41    88    87   ar
    42    83    82    1
    43    83    86    1
    44    76    82   am
    45    76    75    1
    46    80    78    1
    47    93    92    1
    48    92    91   ar
    49    87    86    1
    50    87    89   ar
    51    75    78    1
    52    75    74    1
    53    78    79    1
    54    91    89   ar
    55    79    81    1
    56    70    69    2
    57    69    68    1
    58    27    25   ar
    59    27    28   ar
    60    25    23   ar
    61    72    71    1
    62    68    71    1
    63    68    67    1
    64    28    26   ar
    65    71    73    1
    66    23    22    1
    67    23    24   ar
    68    18    19    1
    69    22    19    1
    70    26    24   ar
    71    19    20    1
    72    20    21    2
    73    62    61    2
    74    54    53    2
    75    61    60    1
    76    58    56    1
    77    60    63    1
    78    60    59    1
    79    53    59   am
    80    53    52    1
    81    66    64    1
    82    63    64    1
    83    57    56    1
    84    56    55    1
    85    52    55    1
    86    52    51    1
    87    64    65    1
    88    46    45    2
    89    49    48    1
    90    41    42   ar
    91    41    39   ar
    92    45    44    1
    93    32    31    2
    94    48    50    1
    95    48    47    1
    96    42    40   ar
    97    39    36   ar
    98    44    47    1
    99    44    43    1
   100    31    43   am
   101    31    30    1
   102    40    38   ar
   103    36    38   ar
   104    36    34   ar
   105    30    33    1
   106    30    29    1
   107    38    37   ar
   108    33    34    1
   109    34    35   ar
   110    37    35   ar
