@<TRIPOS>MOLECULE
tmp/5zihB02.pdb
 91 88 0 0 0
SMALL
GASTEIGER

@<TRIPOS>ATOM
      1  N         -6.1710   18.1650  114.4900 N.3    61  PHE61      -0.1227
      2  CA        -5.8270   16.7470  114.4400 C.3    61  PHE61       0.1736
      3  C         -6.2690   16.2060  113.0880 C.2    61  PHE61       0.2596
      4  O         -7.4420   15.8770  112.8830 O.2    61  PHE61      -0.2718
      5  CB        -6.4640   15.9860  115.5970 C.3    61  PHE61       0.0547
      6  CG        -5.6990   16.0970  116.8920 C.ar   61  PHE61      -0.0202
      7  CD1       -5.8020   17.2310  117.6810 C.ar   61  PHE61      -0.0042
      8  CD2       -4.8820   15.0630  117.3210 C.ar   61  PHE61      -0.0042
      9  CE1       -5.1020   17.3320  118.8720 C.ar   61  PHE61      -0.0003
     10  CE2       -4.1840   15.1580  118.5100 C.ar   61  PHE61      -0.0003
     11  CZ        -4.2920   16.2920  119.2870 C.ar   61  PHE61      -0.0000
     12  N         -5.3290   16.1630  112.1530 N.am   62  SER62      -0.1952
     13  CA        -5.5290   15.4950  110.8830 C.3    62  SER62       0.1924
     14  C         -4.5580   14.3240  110.8140 C.2    62  SER62       0.2314
     15  O         -3.9270   13.9870  111.8210 O.2    62  SER62      -0.2863
     16  CB        -5.3120   16.4600  109.7160 C.3    62  SER62       0.2116
     17  OG        -5.4580   17.8140  110.1310 O.3    62  SER62      -0.2180
     18  N          0.4590    9.2860  112.3190 N.3    63  ALA63      -0.1231
     19  CA         1.2300    8.9810  111.1170 C.3    63  ALA63       0.1694
     20  C          0.6980    9.7660  109.9280 C.2    63  ALA63       0.2592
     21  O          0.5360    9.2290  108.8280 O.2    63  ALA63      -0.2718
     22  CB         1.1990    7.4930  110.8270 C.3    63  ALA63       0.0304
     23  N          0.4250   11.0420  110.1750 N.am   64  THR64      -0.1953
     24  CA        -0.0940   11.9790  109.1930 C.3    64  THR64       0.1897
     25  C          0.9430   13.0570  108.9110 C.2    64  THR64       0.2313
     26  O          1.9420   13.1970  109.6210 O.2    64  THR64      -0.2863
     27  CB        -1.3920   12.6200  109.6920 C.3    64  THR64       0.1794
     28  OG1       -1.9070   13.5010  108.6870 O.3    64  THR64      -0.2208
     29  CG2       -1.1280   13.4070  110.9760 C.3    64  THR64       0.0378
     30  N          2.6210   15.2810  111.9620 N.3    67  TRP67      -0.1241
     31  CA         2.4710   14.6030  113.2450 C.3    67  TRP67       0.1605
     32  C          3.4430   15.1440  114.2890 C.2    67  TRP67       0.2264
     33  O          3.1430   15.1080  115.4890 O.2    67  TRP67      -0.2867
     34  CB         2.6510   13.0910  113.0710 C.3    67  TRP67       0.0550
     35  CG         4.0300   12.6760  112.6570 C.ar   67  TRP67       0.0003
     36  CD1        4.5000   12.5570  111.3840 C.ar   67  TRP67       0.0946
     37  CD2        5.1170   12.3290  113.5210 C.ar   67  TRP67       0.0152
     38  NE1        5.8150   12.1640  111.4000 N.ar   67  TRP67      -0.2442
     39  CE2        6.2200   12.0170  112.7000 C.ar   67  TRP67       0.0810
     40  CE3        5.2680   12.2560  114.9090 C.ar   67  TRP67       0.0012
     41  CZ2        7.4580   11.6350  113.2200 C.ar   67  TRP67       0.0191
     42  CZ3        6.4980   11.8760  115.4240 C.ar   67  TRP67       0.0001
     43  CH2        7.5770   11.5700  114.5810 C.ar   67  TRP67       0.0015
     44  N          2.1070   18.0950  116.4870 N.3    70  VAL70      -0.1231
     45  CA         1.0730   17.6330  117.4080 C.3    70  VAL70       0.1692
     46  C          1.6990   16.8750  118.5710 C.2    70  VAL70       0.2592
     47  O          1.3890   17.1310  119.7410 O.2    70  VAL70      -0.2718
     48  CB         0.0380   16.7700  116.6650 C.3    70  VAL70       0.0266
     49  CG1       -0.9590   16.1820  117.6480 C.3    70  VAL70       0.0020
     50  CG2       -0.6670   17.5950  115.6010 C.3    70  VAL70       0.0020
     51  N          2.6000   15.9390  118.2660 N.am   71  TYR71      -0.1976
     52  CA         3.2400   15.1560  119.3180 C.3    71  TYR71       0.1639
     53  C          3.9930   16.0560  120.2930 C.2    71  TYR71       0.2290
     54  O          3.8450   15.9270  121.5140 O.2    71  TYR71      -0.2864
     55  CB         4.1740   14.1190  118.6950 C.3    71  TYR71       0.0560
     56  CG         4.5770   13.0050  119.6330 C.ar   71  TYR71      -0.0198
     57  CD1        3.6870   11.9890  119.9590 C.ar   71  TYR71      -0.0009
     58  CD2        5.8530   12.9570  120.1770 C.ar   71  TYR71      -0.0009
     59  CE1        4.0550   10.9650  120.8110 C.ar   71  TYR71       0.0417
     60  CE2        6.2310   11.9340  121.0280 C.ar   71  TYR71       0.0417
     61  CZ         5.3300   10.9440  121.3410 C.ar   71  TYR71       0.1957
     62  OH         5.7060    9.9310  122.1880 O.3    71  TYR71      -0.2866
     63  N          1.5640   17.9850  122.2750 N.3    74  CYS74      -0.1221
     64  CA         0.8960   17.0550  123.1850 C.3    74  CYS74       0.1808
     65  C          1.7720   16.7510  124.3930 C.2    74  CYS74       0.2601
     66  O          1.2870   16.7270  125.5300 O.2    74  CYS74      -0.2717
     67  CB         0.5220   15.7620  122.4580 C.3    74  CYS74       0.0970
     68  SG        -0.9730   15.8510  121.4260 S.3    74  CYS74      -0.0800
     69  N          3.0670   16.5170  124.1660 N.am   75  VAL75      -0.1979
     70  CA         3.9950   16.3270  125.2790 C.3    75  VAL75       0.1595
     71  C          4.0050   17.5600  126.1730 C.2    75  VAL75       0.2287
     72  O          4.0800   17.4540  127.4040 O.2    75  VAL75      -0.2864
     73  CB         5.4050   15.9930  124.7550 C.3    75  VAL75       0.0276
     74  CG1        6.4090   15.9560  125.9010 C.3    75  VAL75       0.0022
     75  CG2        5.3920   14.6660  124.0220 C.3    75  VAL75       0.0022
     76  N          0.8030   17.5720  128.3000 N.3    78  LEU78      -0.1245
     77  CA         0.8900   16.5840  129.3720 C.3    78  LEU78       0.1561
     78  C          1.8980   17.0020  130.4340 C.2    78  LEU78       0.2260
     79  O          1.6410   16.8440  131.6340 O.2    78  LEU78      -0.2867
     80  CB         1.2520   15.2090  128.8110 C.3    78  LEU78       0.0270
     81  CG         1.4140   14.1180  129.8750 C.3    78  LEU78       0.0019
     82  CD1        0.1390   13.9730  130.6990 C.3    78  LEU78       0.0001
     83  CD2        1.8030   12.7860  129.2580 C.3    78  LEU78       0.0001
     84  N         10.5910   12.5300  125.1970 N.3   112  LEU112     -0.1245
     85  CA         9.4490   12.3900  124.3000 C.3   112  LEU112      0.1561
     86  C          9.4580   13.4440  123.1960 C.2   112  LEU112      0.2260
     87  O          9.0650   13.1580  122.0600 O.2   112  LEU112     -0.2867
     88  CB         8.1430   12.4660  125.0940 C.3   112  LEU112      0.0270
     89  CG         7.9480   11.4610  126.2280 C.3   112  LEU112      0.0019
     90  CD1        6.7450   11.8370  127.0640 C.3   112  LEU112      0.0001
     91  CD2        7.7930   10.0610  125.6700 C.3   112  LEU112      0.0001
@<TRIPOS>BOND
     1    28    27    1
     2    21    20    2
     3    25    24    1
     4    25    26    2
     5    24    27    1
     6    24    23    1
     7    27    29    1
     8    16    17    1
     9    16    13    1
    10    20    23   am
    11    20    19    1
    12    14    13    1
    13    14    15    2
    14    22    19    1
    15    13    12    1
    16    19    18    1
    17    36    38   ar
    18    36    35   ar
    19    38    39   ar
    20    30    31    1
    21    12     3   am
    22    35    34    1
    23    35    37   ar
    24    39    41   ar
    25    39    37   ar
    26     4     3    2
    27    34    31    1
    28     3     2    1
    29    41    43   ar
    30    31    32    1
    31    37    40   ar
    32    32    33    2
    33     2     1    1
    34     2     5    1
    35    43    42   ar
    36    40    42   ar
    37     5     6    1
    38    50    48    1
    39    44    45    1
    40    48    45    1
    41    48    49    1
    42     6     8   ar
    43     6     7   ar
    44     8    10   ar
    45    45    46    1
    46     7     9   ar
    47    51    46   am
    48    51    52    1
    49    10    11   ar
    50    46    47    2
    51    55    52    1
    52    55    56    1
    53     9    11   ar
    54    52    53    1
    55    56    57   ar
    56    56    58   ar
    57    57    59   ar
    58    58    60   ar
    59    53    54    2
    60    59    61   ar
    61    60    61   ar
    62    61    62    1
    63    68    67    1
    64    87    86    2
    65    63    64    1
    66    67    64    1
    67    64    65    1
    68    86    85    1
    69    75    73    1
    70    69    65   am
    71    69    70    1
    72    85    88    1
    73    85    84    1
    74    65    66    2
    75    73    70    1
    76    73    74    1
    77    88    89    1
    78    70    71    1
    79    91    89    1
    80    71    72    2
    81    89    90    1
    82    76    77    1
    83    80    77    1
    84    80    81    1
    85    83    81    1
    86    77    78    1
    87    81    82    1
    88    78    79    2
