@<TRIPOS>MOLECULE
tmp/5zihB06.pdb
 88 85 0 0 0
SMALL
GASTEIGER

@<TRIPOS>ATOM
      1  N         27.9280   14.8740  133.6540 N.3   164  TYR164     -0.1227
      2  CA        27.5730   16.1200  132.9830 C.3   164  TYR164      0.1736
      3  C         28.4210   16.3340  131.7360 C.2   164  TYR164      0.2595
      4  O         27.8950   16.6430  130.6600 O.2   164  TYR164     -0.2718
      5  CB        27.7340   17.2900  133.9520 C.3   164  TYR164      0.0548
      6  CG        27.3880   18.6350  133.3520 C.ar  164  TYR164     -0.0200
      7  CD1       26.0900   19.1090  133.3860 C.ar  164  TYR164     -0.0009
      8  CD2       28.3590   19.4280  132.7490 C.ar  164  TYR164     -0.0009
      9  CE1       25.7620   20.3280  132.8490 C.ar  164  TYR164      0.0417
     10  CE2       28.0370   20.6530  132.2000 C.ar  164  TYR164      0.0417
     11  CZ        26.7320   21.0980  132.2510 C.ar  164  TYR164      0.1957
     12  OH        26.3790   22.3180  131.7140 O.3   164  TYR164     -0.2866
     13  N         29.7420   16.1780  131.8690 N.am  165  ILE165     -0.1980
     14  CA        30.6440   16.3890  130.7390 C.3   165  ILE165      0.1595
     15  C         30.3240   15.4240  129.6030 C.2   165  ILE165      0.2287
     16  O         30.2620   15.8210  128.4330 O.2   165  ILE165     -0.2864
     17  CB        32.1080   16.2600  131.1990 C.3   165  ILE165      0.0276
     18  CG1       32.4850   17.4320  132.1100 C.3   165  ILE165      0.0022
     19  CG2       33.0530   16.1780  130.0010 C.3   165  ILE165      0.0022
     20  CD1       33.8190   17.2640  132.7960 C.3   165  ILE165      0.0001
     21  N         27.6550   16.6760  127.6620 N.3   168  CYS168     -0.1221
     22  CA        28.0280   17.7930  126.7990 C.3   168  CYS168      0.1808
     23  C         28.7070   17.3090  125.5250 C.2   168  CYS168      0.2601
     24  O         28.5310   17.9080  124.4580 O.2   168  CYS168     -0.2717
     25  CB        28.9360   18.7700  127.5480 C.3   168  CYS168      0.0970
     26  SG        28.1480   19.6680  128.8990 S.3   168  CYS168     -0.0800
     27  N         29.4940   16.2340  125.6140 N.am  169  ILE169     -0.1979
     28  CA        30.1120   15.6650  124.4180 C.3   169  ILE169      0.1595
     29  C         29.0370   15.1580  123.4640 C.2   169  ILE169      0.2287
     30  O         29.0960   15.3880  122.2500 O.2   169  ILE169     -0.2864
     31  CB        31.1000   14.5480  124.8010 C.3   169  ILE169      0.0276
     32  CG1       32.1020   15.0540  125.8380 C.3   169  ILE169      0.0022
     33  CG2       31.8350   14.0380  123.5680 C.3   169  ILE169      0.0022
     34  CD1       33.0930   14.0110  126.2840 C.3   169  ILE169      0.0001
     35  N         27.3060   18.3350  122.0210 N.3   172  GLY172     -0.1210
     36  CA        28.0790   19.0680  121.0310 C.3   172  GLY172      0.1956
     37  C         28.0040   18.4440  119.6520 C.2   172  GLY172      0.2611
     38  O         27.8950   19.1510  118.6460 O.2   172  GLY172     -0.2717
     39  N         28.0670   17.1120  119.5880 N.am  173  TYR173     -0.1976
     40  CA        27.8650   16.4100  118.3240 C.3   173  TYR173      0.1639
     41  C         26.4580   16.6500  117.7880 C.2   173  TYR173      0.2290
     42  O         26.2650   16.8260  116.5790 O.2   173  TYR173     -0.2864
     43  CB        28.1390   14.9180  118.5300 C.3   173  TYR173      0.0560
     44  CG        27.9430   14.0290  117.3220 C.ar  173  TYR173     -0.0198
     45  CD1       26.7220   13.4060  117.0830 C.ar  173  TYR173     -0.0009
     46  CD2       28.9880   13.7760  116.4430 C.ar  173  TYR173     -0.0009
     47  CE1       26.5400   12.5740  115.9890 C.ar  173  TYR173      0.0417
     48  CE2       28.8170   12.9450  115.3430 C.ar  173  TYR173      0.0417
     49  CZ        27.5900   12.3460  115.1230 C.ar  173  TYR173      0.1957
     50  OH        27.4080   11.5210  114.0350 O.3   173  TYR173     -0.2866
     51  N         26.2100   20.2400  116.5610 N.3   176  PHE176     -0.1227
     52  CA        26.9280   20.3270  115.2940 C.3   176  PHE176      0.1736
     53  C         26.0800   19.8010  114.1420 C.2   176  PHE176      0.2595
     54  O         25.9450   20.4600  113.1030 O.2   176  PHE176     -0.2718
     55  CB        28.2510   19.5620  115.3910 C.3   176  PHE176      0.0547
     56  CG        28.9540   19.3910  114.0730 C.ar  176  PHE176     -0.0202
     57  CD1       29.6710   20.4360  113.5120 C.ar  176  PHE176     -0.0042
     58  CD2       28.9080   18.1790  113.3990 C.ar  176  PHE176     -0.0042
     59  CE1       30.3200   20.2800  112.3000 C.ar  176  PHE176     -0.0003
     60  CE2       29.5540   18.0150  112.1870 C.ar  176  PHE176     -0.0003
     61  CZ        30.2630   19.0660  111.6370 C.ar  176  PHE176     -0.0000
     62  N         25.5060   18.6050  114.3070 N.am  177  GLN177     -0.1979
     63  CA        24.6120   18.0600  113.2890 C.3   177  GLN177      0.1601
     64  C         23.4340   18.9910  113.0310 C.2   177  GLN177      0.2287
     65  O         23.0250   19.1870  111.8790 O.2   177  GLN177     -0.2864
     66  CB        24.1040   16.6830  113.7150 C.3   177  GLN177      0.0394
     67  CG        25.1780   15.6200  113.8390 C.3   177  GLN177      0.0908
     68  CD        25.5180   14.9850  112.5110 C.2   177  GLN177      0.2608
     69  OE1       26.0340   15.6430  111.6060 O.2   177  GLN177     -0.2717
     70  NE2       25.2210   13.6970  112.3810 N.am  177  GLN177     -0.0878
     71  N         24.2440   22.0830  110.7840 N.3   180  LYS180     -0.1245
     72  CA        24.3750   21.7640  109.3670 C.3   180  LYS180      0.1561
     73  C         23.0170   21.5490  108.7110 C.2   180  LYS180      0.2260
     74  O         22.8770   21.7650  107.5020 O.2   180  LYS180     -0.2867
     75  CB        25.2550   20.5290  109.1870 C.3   180  LYS180      0.0271
     76  CG        26.6090   20.6420  109.8610 C.3   180  LYS180      0.0035
     77  CD        27.4630   19.4090  109.6230 C.3   180  LYS180      0.0206
     78  CE        27.8450   19.2770  108.1620 C.3   180  LYS180      0.1093
     79  NZ        28.8220   18.1740  107.9430 N.3   180  LYS180     -0.1314
     80  N         32.6880   19.0050  103.4820 N.3   277  GLU277     -0.1245
     81  CA        32.3580   17.7330  102.8500 C.3   277  GLU277      0.1567
     82  C         31.4440   18.0080  101.6670 C.2   277  GLU277      0.2260
     83  O         30.8490   19.0820  101.5600 O.2   277  GLU277     -0.2867
     84  CB        31.6790   16.7700  103.8280 C.3   277  GLU277      0.0388
     85  CG        30.3240   17.2510  104.2980 C.3   277  GLU277      0.1160
     86  CD        29.6170   16.2490  105.1830 C.2   277  GLU277      0.3649
     87  OE1       28.4700   16.5250  105.5930 O.co2 277  GLU277     -0.2457
     88  OE2       30.2060   15.1850  105.4690 O.co2 277  GLU277     -0.2457
@<TRIPOS>BOND
     1    83    82    2
     2    82    81    1
     3    81    80    1
     4    81    84    1
     5    84    85    1
     6    85    86    1
     7    86    88   ar
     8    86    87   ar
     9    74    73    2
    10    79    78    1
    11    78    77    1
    12    73    72    1
    13    75    72    1
    14    75    76    1
    15    72    71    1
    16    77    76    1
    17    69    68    2
    18    61    60   ar
    19    61    59   ar
    20    65    64    2
    21    60    58   ar
    22    59    57   ar
    23    70    68   am
    24    68    67    1
    25    64    63    1
    26    54    53    2
    27    63    66    1
    28    63    62    1
    29    58    56   ar
    30    57    56   ar
    31    66    67    1
    32    50    49    1
    33    56    55    1
    34    53    62   am
    35    53    52    1
    36    49    48   ar
    37    49    47   ar
    38    52    55    1
    39    52    51    1
    40    48    46   ar
    41    47    45   ar
    42    46    44   ar
    43    42    41    2
    44    45    44   ar
    45    44    43    1
    46    41    40    1
    47    40    43    1
    48    40    39    1
    49    38    37    2
    50    39    37   am
    51    37    36    1
    52    36    35    1
    53    30    29    2
    54    29    28    1
    55    33    31    1
    56    28    31    1
    57    28    27    1
    58    24    23    2
    59    31    32    1
    60    23    27   am
    61    23    22    1
    62    32    34    1
    63    22    25    1
    64    22    21    1
    65    25    26    1
    66    16    15    2
    67    15    14    1
    68    19    17    1
    69     4     3    2
    70    14    17    1
    71    14    13    1
    72    17    18    1
    73    12    11    1
    74     3    13   am
    75     3     2    1
    76    18    20    1
    77    10    11   ar
    78    10     8   ar
    79    11     9   ar
    80     8     6   ar
    81     9     7   ar
    82     2     1    1
    83     2     5    1
    84     6     7   ar
    85     6     5    1
