@<TRIPOS>MOLECULE
tmp/5zihB08.pdb
 105 102 0 0 0
SMALL
GASTEIGER

@<TRIPOS>ATOM
      1  N         22.0370   10.2990  113.4000 N.3   137  GLY137     -0.1225
      2  CA        23.0360   10.9600  114.2260 C.3   137  GLY137      0.1811
      3  C         22.4280   11.9870  115.1650 C.2   137  GLY137      0.2280
      4  O         22.8790   12.1490  116.3010 O.2   137  GLY137     -0.2866
      5  N         20.3500    9.7310  117.9720 N.3   140  VAL140     -0.1231
      6  CA        21.2180    8.9820  118.8800 C.3   140  VAL140      0.1692
      7  C         21.9740    9.9310  119.8060 C.2   140  VAL140      0.2592
      8  O         22.0560    9.7080  121.0210 O.2   140  VAL140     -0.2718
      9  CB        22.1840    8.0860  118.0830 C.3   140  VAL140      0.0266
     10  CG1       23.1640    7.3930  119.0160 C.3   140  VAL140      0.0020
     11  CG2       21.4080    7.0660  117.2720 C.3   140  VAL140      0.0020
     12  N         22.5350   11.0050  119.2440 N.am  141  SER141     -0.1952
     13  CA        23.2890   11.9580  120.0560 C.3   141  SER141      0.1924
     14  C         22.3880   12.6880  121.0430 C.2   141  SER141      0.2314
     15  O         22.7710   12.8960  122.2000 O.2   141  SER141     -0.2863
     16  CB        24.0120   12.9570  119.1580 C.3   141  SER141      0.2116
     17  OG        23.0960   13.5990  118.2920 O.3   141  SER141     -0.2180
     18  N         22.7120   10.8000  129.7920 N.3   148  PHE148     -0.1241
     19  CA        23.7970   11.1620  130.6990 C.3   148  PHE148      0.1605
     20  C         23.4720   12.4150  131.5020 C.2   148  PHE148      0.2264
     21  O         24.0080   12.6030  132.6010 O.2   148  PHE148     -0.2867
     22  CB        25.1010   11.3290  129.9220 C.3   148  PHE148      0.0534
     23  CG        25.8160   10.0280  129.6690 C.ar  148  PHE148     -0.0203
     24  CD1       26.6240    9.4680  130.6500 C.ar  148  PHE148     -0.0042
     25  CD2       25.6700    9.3580  128.4640 C.ar  148  PHE148     -0.0042
     26  CE1       27.2770    8.2680  130.4320 C.ar  148  PHE148     -0.0003
     27  CE2       26.3200    8.1590  128.2400 C.ar  148  PHE148     -0.0003
     28  CZ        27.1250    7.6110  129.2260 C.ar  148  PHE148     -0.0000
     29  N         31.6270   14.1100  142.4560 N.3   158  TRP158     -0.1227
     30  CA        32.3960   14.1990  141.2180 C.3   158  TRP158      0.1737
     31  C         31.7440   13.4120  140.0930 C.2   158  TRP158      0.2595
     32  O         31.8610   13.7920  138.9220 O.2   158  TRP158     -0.2718
     33  CB        33.8260   13.6970  141.4530 C.3   158  TRP158      0.0564
     34  CG        33.8670   12.2660  141.8860 C.ar  158  TRP158      0.0003
     35  CD1       33.8290   11.8050  143.1680 C.ar  158  TRP158      0.0946
     36  CD2       33.9560   11.1040  141.0450 C.ar  158  TRP158      0.0152
     37  NE1       33.8900   10.4330  143.1830 N.ar  158  TRP158     -0.2442
     38  CE2       33.9690    9.9770  141.8930 C.ar  158  TRP158      0.0810
     39  CE3       34.0260   10.9060  139.6620 C.ar  158  TRP158      0.0012
     40  CZ2       34.0490    8.6730  141.4050 C.ar  158  TRP158      0.0191
     41  CZ3       34.1070    9.6090  139.1810 C.ar  158  TRP158      0.0001
     42  CH2       34.1170    8.5100  140.0500 C.ar  158  TRP158      0.0015
     43  N         31.0590   12.3160  140.4270 N.am  159  LEU159     -0.1980
     44  CA        30.3700   11.5330  139.4060 C.3   159  LEU159      0.1596
     45  C         29.3560   12.3820  138.6540 C.2   159  LEU159      0.2287
     46  O         29.2570   12.2960  137.4250 O.2   159  LEU159     -0.2864
     47  CB        29.6790   10.3280  140.0410 C.3   159  LEU159      0.0297
     48  CG        28.9060    9.4370  139.0730 C.3   159  LEU159      0.0022
     49  CD1       29.8690    8.7740  138.1070 C.3   159  LEU159      0.0001
     50  CD2       28.0930    8.4000  139.8300 C.3   159  LEU159      0.0001
     51  N         31.2450   14.3930  136.1370 N.3   162  LEU162     -0.1231
     52  CA        31.7130   13.4900  135.0890 C.3   162  LEU162      0.1693
     53  C         30.5830   13.1710  134.1160 C.2   162  LEU162      0.2591
     54  O         30.7400   13.2920  132.8960 O.2   162  LEU162     -0.2718
     55  CB        32.2580   12.2070  135.7200 C.3   162  LEU162      0.0284
     56  CG        33.2740   11.2960  135.0140 C.3   162  LEU162      0.0019
     57  CD1       33.3630    9.9670  135.7470 C.3   162  LEU162      0.0001
     58  CD2       32.9820   11.0700  133.5350 C.3   162  LEU162      0.0001
     59  N         29.4310   12.7600  134.6460 N.am  163  LEU163     -0.1980
     60  CA        28.2860   12.4660  133.7910 C.3   163  LEU163      0.1596
     61  C         27.8490   13.7020  133.0190 C.2   163  LEU163      0.2287
     62  O         27.4520   13.6050  131.8510 O.2   163  LEU163     -0.2864
     63  CB        27.1390   11.9160  134.6360 C.3   163  LEU163      0.0297
     64  CG        27.4630   10.5850  135.3100 C.3   163  LEU163      0.0022
     65  CD1       26.3900   10.2020  136.3080 C.3   163  LEU163      0.0001
     66  CD2       27.6400    9.5110  134.2560 C.3   163  LEU163      0.0001
     67  N         30.1170   14.1440  129.9280 N.3   166  VAL166     -0.1245
     68  CA        29.7630   13.1600  128.9060 C.3   166  VAL166      0.1561
     69  C         28.5040   13.5900  128.1630 C.2   166  VAL166      0.2260
     70  O         28.4000   13.4290  126.9400 O.2   166  VAL166     -0.2867
     71  CB        29.6010   11.7650  129.5400 C.3   166  VAL166      0.0252
     72  CG1       29.1090   10.7570  128.5050 C.3   166  VAL166      0.0019
     73  CG2       30.9140   11.3090  130.1600 C.3   166  VAL166      0.0019
     74  N         29.4940   16.2340  125.6140 N.3   169  ILE169     -0.1231
     75  CA        30.1120   15.6650  124.4180 C.3   169  ILE169      0.1692
     76  C         29.0370   15.1580  123.4640 C.2   169  ILE169      0.2592
     77  O         29.0960   15.3880  122.2500 O.2   169  ILE169     -0.2718
     78  CB        31.1000   14.5480  124.8010 C.3   169  ILE169      0.0266
     79  CG1       32.1020   15.0540  125.8380 C.3   169  ILE169      0.0019
     80  CG2       31.8350   14.0380  123.5680 C.3   169  ILE169      0.0020
     81  CD1       33.0930   14.0110  126.2840 C.3   169  ILE169      0.0001
     82  N         28.0390   14.4560  124.0050 N.am  170  TYR170     -0.1976
     83  CA        26.8880   14.0530  123.2040 C.3   170  TYR170      0.1639
     84  C         26.1710   15.2660  122.6240 C.2   170  TYR170      0.2290
     85  O         25.7980   15.2780  121.4450 O.2   170  TYR170     -0.2864
     86  CB        25.9220   13.2320  124.0560 C.3   170  TYR170      0.0560
     87  CG        26.0990   11.7380  123.9730 C.ar  170  TYR170     -0.0198
     88  CD1       25.7620   11.0440  122.8180 C.ar  170  TYR170     -0.0009
     89  CD2       26.5640   11.0150  125.0610 C.ar  170  TYR170     -0.0009
     90  CE1       25.9010    9.6740  122.7430 C.ar  170  TYR170      0.0417
     91  CE2       26.7060    9.6490  124.9980 C.ar  170  TYR170      0.0417
     92  CZ        26.3730    8.9800  123.8370 C.ar  170  TYR170      0.1957
     93  OH        26.5140    7.6140  123.7690 O.3   170  TYR170     -0.2866
     94  N         28.0670   17.1120  119.5880 N.3   173  TYR173     -0.1241
     95  CA        27.8650   16.4100  118.3240 C.3   173  TYR173      0.1605
     96  C         26.4580   16.6500  117.7880 C.2   173  TYR173      0.2264
     97  O         26.2650   16.8260  116.5790 O.2   173  TYR173     -0.2867
     98  CB        28.1390   14.9180  118.5300 C.3   173  TYR173      0.0534
     99  CG        27.9430   14.0290  117.3220 C.ar  173  TYR173     -0.0201
    100  CD1       26.7220   13.4060  117.0830 C.ar  173  TYR173     -0.0009
    101  CD2       28.9880   13.7760  116.4430 C.ar  173  TYR173     -0.0009
    102  CE1       26.5400   12.5740  115.9890 C.ar  173  TYR173      0.0417
    103  CE2       28.8170   12.9450  115.3430 C.ar  173  TYR173      0.0417
    104  CZ        27.5900   12.3460  115.1230 C.ar  173  TYR173      0.1957
    105  OH        27.4080   11.5210  114.0350 O.3   173  TYR173     -0.2866
@<TRIPOS>BOND
     1     1     2    1
     2   105   104    1
     3     2     3    1
     4   104   103   ar
     5   104   102   ar
     6     3     4    2
     7   103   101   ar
     8   102   100   ar
     9   101    99   ar
    10    97    96    2
    11   100    99   ar
    12    11     9    1
    13    99    98    1
    14    96    95    1
    15     5     6    1
    16     9     6    1
    17     9    10    1
    18    17    16    1
    19    95    98    1
    20    95    94    1
    21     6     7    1
    22    16    13    1
    23    12     7   am
    24    12    13    1
    25     7     8    2
    26    13    14    1
    27    14    15    2
    28    85    84    2
    29    77    76    2
    30    84    83    1
    31    90    88   ar
    32    90    92   ar
    33    88    87   ar
    34    83    82    1
    35    83    86    1
    36    76    82   am
    37    76    75    1
    38    80    78    1
    39    93    92    1
    40    92    91   ar
    41    87    86    1
    42    87    89   ar
    43    75    78    1
    44    75    74    1
    45    78    79    1
    46    91    89   ar
    47    79    81    1
    48    70    69    2
    49    69    68    1
    50    27    25   ar
    51    27    28   ar
    52    25    23   ar
    53    72    71    1
    54    68    71    1
    55    68    67    1
    56    28    26   ar
    57    71    73    1
    58    23    22    1
    59    23    24   ar
    60    18    19    1
    61    22    19    1
    62    26    24   ar
    63    19    20    1
    64    20    21    2
    65    62    61    2
    66    54    53    2
    67    61    60    1
    68    58    56    1
    69    60    63    1
    70    60    59    1
    71    53    59   am
    72    53    52    1
    73    66    64    1
    74    63    64    1
    75    56    55    1
    76    56    57    1
    77    52    55    1
    78    52    51    1
    79    64    65    1
    80    46    45    2
    81    49    48    1
    82    45    44    1
    83    32    31    2
    84    48    50    1
    85    48    47    1
    86    41    39   ar
    87    41    42   ar
    88    44    47    1
    89    44    43    1
    90    39    36   ar
    91    42    40   ar
    92    31    43   am
    93    31    30    1
    94    36    34   ar
    95    36    38   ar
    96    30    33    1
    97    30    29    1
    98    40    38   ar
    99    33    34    1
   100    34    35   ar
   101    38    37   ar
   102    35    37   ar
