@<TRIPOS>MOLECULE
tmp/5zihB09.pdb
 81 78 0 0 0
SMALL
GASTEIGER

@<TRIPOS>ATOM
      1  N         23.2280   22.2730  113.3650 N.3   179  ALA179     -0.1245
      2  CA        23.5980   23.4990  112.6660 C.3   179  ALA179      0.1562
      3  C         23.7500   23.2620  111.1700 C.2   179  ALA179      0.2260
      4  O         23.4160   24.1330  110.3580 O.2   179  ALA179     -0.2867
      5  CB        24.8850   24.0660  113.2580 C.3   179  ALA179      0.0290
      6  N         20.3010   23.3790  109.4360 N.3   182  TYR182     -0.1227
      7  CA        19.8270   24.7230  109.1260 C.3   182  TYR182      0.1736
      8  C         20.5810   25.3180  107.9450 C.2   182  TYR182      0.2595
      9  O         19.9930   26.0290  107.1200 O.2   182  TYR182     -0.2718
     10  CB        19.9560   25.6230  110.3520 C.3   182  TYR182      0.0548
     11  CG        18.9600   25.2990  111.4360 C.ar  182  TYR182     -0.0200
     12  CD1       17.6160   25.6070  111.2800 C.ar  182  TYR182     -0.0009
     13  CD2       19.3590   24.6870  112.6170 C.ar  182  TYR182     -0.0009
     14  CE1       16.6990   25.3190  112.2640 C.ar  182  TYR182      0.0417
     15  CE2       18.4440   24.3940  113.6100 C.ar  182  TYR182      0.0417
     16  CZ        17.1160   24.7120  113.4260 C.ar  182  TYR182      0.1957
     17  OH        16.1980   24.4210  114.4060 O.3   182  TYR182     -0.2866
     18  N         21.8840   25.0440  107.8480 N.am  183  VAL183     -0.1980
     19  CA        22.6570   25.5150  106.7030 C.3   183  VAL183      0.1595
     20  C         22.1140   24.9110  105.4150 C.2   183  VAL183      0.2287
     21  O         21.9570   25.6040  104.4020 O.2   183  VAL183     -0.2864
     22  CB        24.1510   25.1940  106.8990 C.3   183  VAL183      0.0276
     23  CG1       24.9320   25.4910  105.6310 C.3   183  VAL183      0.0022
     24  CG2       24.7120   25.9890  108.0700 C.3   183  VAL183      0.0022
     25  N         18.6040   26.3260  104.5140 N.3   186  ASN186     -0.1240
     26  CA        18.6510   27.6430  103.8890 C.3   186  ASN186      0.1653
     27  C         18.7410   27.5290  102.3720 C.2   186  ASN186      0.2266
     28  O         18.0330   28.2350  101.6450 O.2   186  ASN186     -0.2867
     29  CB        19.8370   28.4330  104.4470 C.3   186  ASN186      0.1155
     30  CG        19.7380   29.9200  104.1620 C.2   186  ASN186      0.2627
     31  OD1       19.4280   30.3340  103.0460 O.2   186  ASN186     -0.2716
     32  ND2       20.0020   30.7330  105.1790 N.am  186  ASN186     -0.0877
     33  N         13.4730   30.1000  108.2110 N.3   198  VAL198     -0.1231
     34  CA        14.4680   29.0990  108.5900 C.3   198  VAL198      0.1692
     35  C         15.5260   29.7130  109.4980 C.2   198  VAL198      0.2591
     36  O         15.9210   29.1150  110.5070 O.2   198  VAL198     -0.2718
     37  CB        15.0970   28.4640  107.3360 C.3   198  VAL198      0.0266
     38  CG1       16.2970   27.6100  107.7150 C.3   198  VAL198      0.0020
     39  CG2       14.0660   27.6290  106.5930 C.3   198  VAL198      0.0020
     40  N         15.9980   30.9170  109.1620 N.am  199  LYS199     -0.1980
     41  CA        16.9880   31.5800  110.0070 C.3   199  LYS199      0.1596
     42  C         16.4160   31.9010  111.3810 C.2   199  LYS199      0.2287
     43  O         17.1240   31.8210  112.3920 O.2   199  LYS199     -0.2864
     44  CB        17.4990   32.8520  109.3310 C.3   199  LYS199      0.0298
     45  CG        18.9420   32.7570  108.8650 C.3   199  LYS199      0.0038
     46  CD        19.6740   34.0720  109.0680 C.3   199  LYS199      0.0206
     47  CE        21.1400   33.9510  108.6870 C.3   199  LYS199      0.1093
     48  NZ        21.8930   35.2070  108.9620 N.3   199  LYS199     -0.1314
     49  N         16.3720   28.7960  113.3330 N.3   202  ALA202     -0.1231
     50  CA        17.7230   28.4640  113.7700 C.3   202  ALA202      0.1694
     51  C         18.1090   29.2540  115.0110 C.2   202  ALA202      0.2592
     52  O         18.7060   28.7020  115.9440 O.2   202  ALA202     -0.2718
     53  CB        18.7190   28.7120  112.6380 C.3   202  ALA202      0.0304
     54  N         17.7700   30.5440  115.0450 N.am  203  TYR203     -0.1976
     55  CA        18.0580   31.3570  116.2220 C.3   203  TYR203      0.1639
     56  C         17.2740   30.8670  117.4320 C.2   203  TYR203      0.2290
     57  O         17.8290   30.7170  118.5270 O.2   203  TYR203     -0.2864
     58  CB        17.7510   32.8290  115.9320 C.3   203  TYR203      0.0560
     59  CG        18.9280   33.5730  115.3480 C.ar  203  TYR203     -0.0198
     60  CD1       19.9090   34.1100  116.1730 C.ar  203  TYR203     -0.0009
     61  CD2       19.0670   33.7300  113.9760 C.ar  203  TYR203     -0.0009
     62  CE1       20.9940   34.7830  115.6480 C.ar  203  TYR203      0.0417
     63  CE2       20.1480   34.4050  113.4410 C.ar  203  TYR203      0.0417
     64  CZ        21.1080   34.9290  114.2830 C.ar  203  TYR203      0.1957
     65  OH        22.1870   35.6020  113.7580 O.3   203  TYR203     -0.2866
     66  N         18.7820   27.3480  118.8050 N.3   206  PHE206     -0.1227
     67  CA        20.0340   27.3760  119.5570 C.3   206  PHE206      0.1736
     68  C         19.9000   28.1900  120.8370 C.2   206  PHE206      0.2595
     69  O         20.4450   27.8110  121.8820 O.2   206  PHE206     -0.2718
     70  CB        21.1630   27.9210  118.6830 C.3   206  PHE206      0.0547
     71  CG        21.6260   26.9570  117.6360 C.ar  206  PHE206     -0.0202
     72  CD1       22.1730   25.7370  118.0040 C.ar  206  PHE206     -0.0042
     73  CD2       21.5140   27.2610  116.2920 C.ar  206  PHE206     -0.0042
     74  CE1       22.6000   24.8360  117.0520 C.ar  206  PHE206     -0.0003
     75  CE2       21.9410   26.3660  115.3310 C.ar  206  PHE206     -0.0003
     76  CZ        22.4860   25.1500  115.7120 C.ar  206  PHE206     -0.0000
     77  N         19.1750   29.3070  120.7780 N.am  207  ALA207     -0.1980
     78  CA        19.0120   30.1310  121.9680 C.3   207  ALA207      0.1597
     79  C         18.2250   29.3950  123.0450 C.2   207  ALA207      0.2287
     80  O         18.5030   29.5470  124.2390 O.2   207  ALA207     -0.2864
     81  CB        18.3340   31.4470  121.5980 C.3   207  ALA207      0.0319
@<TRIPOS>BOND
     1    28    27    2
     2    27    26    1
     3    31    30    2
     4    26    29    1
     5    26    25    1
     6    30    29    1
     7    30    32   am
     8    21    20    2
     9    20    19    1
    10    23    22    1
    11    39    37    1
    12    19    22    1
    13    19    18    1
    14    22    24    1
    15     9     8    2
    16    37    38    1
    17    37    34    1
    18    18     8   am
    19     8     7    1
    20    33    34    1
    21    34    35    1
    22    47    48    1
    23    47    46    1
    24    45    46    1
    25    45    44    1
    26     7     6    1
    27     7    10    1
    28    40    35   am
    29    40    41    1
    30    44    41    1
    31    35    36    2
    32    41    42    1
    33    10    11    1
    34     4     3    2
    35     3     2    1
    36    12    11   ar
    37    12    14   ar
    38    42    43    2
    39    11    13   ar
    40    14    16   ar
    41    13    15   ar
    42    53    50    1
    43     2     5    1
    44     2     1    1
    45    49    50    1
    46    16    15   ar
    47    16    17    1
    48    63    61   ar
    49    63    64   ar
    50    65    64    1
    51    50    51    1
    52    61    59   ar
    53    64    62   ar
    54    51    54   am
    55    51    52    2
    56    54    55    1
    57    75    76   ar
    58    75    73   ar
    59    59    58    1
    60    59    60   ar
    61    62    60   ar
    62    76    74   ar
    63    58    55    1
    64    55    56    1
    65    73    71   ar
    66    74    72   ar
    67    56    57    2
    68    71    72   ar
    69    71    70    1
    70    70    67    1
    71    66    67    1
    72    67    68    1
    73    77    68   am
    74    77    78    1
    75    68    69    2
    76    81    78    1
    77    78    79    1
    78    79    80    2
