@<TRIPOS>MOLECULE
tmp/5zihB10.pdb
 103 98 0 0 0
SMALL
GASTEIGER

@<TRIPOS>ATOM
      1  N          3.0670   16.5170  124.1660 N.3    75  VAL75      -0.1245
      2  CA         3.9950   16.3270  125.2790 C.3    75  VAL75       0.1561
      3  C          4.0050   17.5600  126.1730 C.2    75  VAL75       0.2260
      4  O          4.0800   17.4540  127.4040 O.2    75  VAL75      -0.2867
      5  CB         5.4050   15.9930  124.7550 C.3    75  VAL75       0.0252
      6  CG1        6.4090   15.9560  125.9010 C.3    75  VAL75       0.0019
      7  CG2        5.3920   14.6660  124.0220 C.3    75  VAL75       0.0019
      8  N          0.8030   17.5720  128.3000 N.3    78  LEU78      -0.1231
      9  CA         0.8900   16.5840  129.3720 C.3    78  LEU78       0.1693
     10  C          1.8980   17.0020  130.4340 C.2    78  LEU78       0.2592
     11  O          1.6410   16.8440  131.6340 O.2    78  LEU78      -0.2718
     12  CB         1.2520   15.2090  128.8110 C.3    78  LEU78       0.0284
     13  CG         1.4140   14.1180  129.8750 C.3    78  LEU78       0.0019
     14  CD1        0.1390   13.9730  130.6990 C.3    78  LEU78       0.0001
     15  CD2        1.8030   12.7860  129.2580 C.3    78  LEU78       0.0001
     16  N          3.0490   17.5360  130.0200 N.am   79  PHE79      -0.1976
     17  CA         4.0730   17.8970  130.9970 C.3    79  PHE79       0.1639
     18  C          3.6120   19.0480  131.8820 C.2    79  PHE79       0.2290
     19  O          3.7280   18.9830  133.1120 O.2    79  PHE79      -0.2864
     20  CB         5.3810   18.2660  130.3020 C.3    79  PHE79       0.0560
     21  CG         6.3530   18.9740  131.2040 C.ar   79  PHE79      -0.0200
     22  CD1        7.0630   18.2680  132.1650 C.ar   79  PHE79      -0.0042
     23  CD2        6.5360   20.3470  131.1100 C.ar   79  PHE79      -0.0042
     24  CE1        7.9470   18.9150  133.0050 C.ar   79  PHE79      -0.0003
     25  CE2        7.4180   21.0010  131.9480 C.ar   79  PHE79      -0.0003
     26  CZ         8.1270   20.2830  132.8970 C.ar   79  PHE79      -0.0000
     27  N          0.9200   18.0480  134.4390 N.3    82  LEU82      -0.1245
     28  CA         1.4990   17.2900  135.5420 C.3    82  LEU82       0.1561
     29  C          2.3930   18.1610  136.4150 C.2    82  LEU82       0.2260
     30  O          2.4640   17.9550  137.6320 O.2    82  LEU82      -0.2867
     31  CB         2.2800   16.0900  135.0030 C.3    82  LEU82       0.0270
     32  CG         1.4370   14.9500  134.4290 C.3    82  LEU82       0.0019
     33  CD1        2.3150   13.8370  133.8770 C.3    82  LEU82       0.0001
     34  CD2        0.4830   14.4060  135.4850 C.3    82  LEU82       0.0001
     35  N          1.3660   18.3320  140.1430 N.3    86  LYS86      -0.1245
     36  CA         2.1120   17.3140  140.8830 C.3    86  LYS86       0.1561
     37  C          3.6130   17.4410  140.6550 C.2    86  LYS86       0.2260
     38  O          4.3260   16.4370  140.5720 O.2    86  LYS86      -0.2867
     39  CB         1.6400   15.9070  140.5080 C.3    86  LYS86       0.0271
     40  CG         0.1730   15.6290  140.7980 C.3    86  LYS86       0.0035
     41  CD        -0.0930   15.5240  142.2920 C.3    86  LYS86       0.0206
     42  CE        -1.5430   15.1440  142.5620 C.3    86  LYS86       0.1093
     43  NZ        -1.7550   14.6690  143.9550 N.3    86  LYS86      -0.1314
     44  N          5.6690   15.9570  143.7560 N.3    89  SER89      -0.1202
     45  CA         5.3650   14.6050  144.1980 C.3    89  SER89       0.2020
     46  C          6.2090   13.5970  143.4250 C.2    89  SER89       0.2619
     47  O          6.5950   13.8280  142.2760 O.2    89  SER89      -0.2717
     48  CB         3.8780   14.2950  144.0120 C.3    89  SER89       0.2103
     49  OG         3.0710   15.2810  144.6330 O.3    89  SER89      -0.2182
     50  N          6.5050   12.4830  144.0740 N.am   90  SER90      -0.1938
     51  CA         7.2090   11.4080  143.3920 C.3    90  SER90       0.2040
     52  C          6.2290   10.6280  142.5150 C.2    90  SER90       0.2485
     53  O          5.0710   10.4420  142.8970 O.2    90  SER90      -0.2729
     54  CB         7.8670   10.4760  144.4080 C.3    90  SER90       0.2129
     55  OG         8.8230    9.6370  143.7880 O.3    90  SER90      -0.2179
     56  N          6.6610   10.1480  141.3380 N.am   91  PRO91      -0.2715
     57  CA         8.0160   10.2310  140.7790 C.3    91  PRO91       0.1536
     58  C          8.2910   11.4320  139.8670 C.2    91  PRO91       0.2598
     59  O          9.3350   11.4300  139.2130 O.2    91  PRO91      -0.2715
     60  CB         8.1190    8.9360  139.9770 C.3    91  PRO91       0.0310
     61  CG         6.7270    8.7220  139.4740 C.3    91  PRO91       0.0237
     62  CD         5.8010    9.2480  140.5480 C.3    91  PRO91       0.0939
     63  N          7.3870   12.4150  139.8070 N.am   92  ALA92      -0.1978
     64  CA         7.6730   13.6290  139.0450 C.3    92  ALA92       0.1597
     65  C          8.9450   14.2930  139.5510 C.2    92  ALA92       0.2287
     66  O          9.8330   14.6470  138.7670 O.2    92  ALA92      -0.2864
     67  CB         6.4950   14.6000  139.1220 C.3    92  ALA92       0.0319
     68  N         10.3660   14.2600  135.9220 N.3   105  LEU105     -0.1245
     69  CA         9.2950   14.6030  134.9930 C.3   105  LEU105      0.1561
     70  C          9.8150   15.4220  133.8180 C.2   105  LEU105      0.2260
     71  O          9.2660   15.3450  132.7120 O.2   105  LEU105     -0.2867
     72  CB         8.1910   15.3620  135.7320 C.3   105  LEU105      0.0270
     73  CG         6.9910   15.8730  134.9300 C.3   105  LEU105      0.0019
     74  CD1        6.0960   14.7260  134.4830 C.3   105  LEU105      0.0001
     75  CD2        6.2100   16.8810  135.7440 C.3   105  LEU105      0.0001
     76  N         11.7650   13.0210  131.3140 N.3   108  PHE108     -0.1227
     77  CA        10.7370   12.3420  130.5350 C.3   108  PHE108      0.1736
     78  C         10.1900   13.2560  129.4450 C.2   108  PHE108      0.2595
     79  O         10.0270   12.8320  128.2940 O.2   108  PHE108     -0.2718
     80  CB         9.6110   11.8660  131.4520 C.3   108  PHE108      0.0547
     81  CG        10.0690   10.9710  132.5680 C.ar  108  PHE108     -0.0202
     82  CD1       11.1340   10.1070  132.3930 C.ar  108  PHE108     -0.0042
     83  CD2        9.4250   10.9900  133.7950 C.ar  108  PHE108     -0.0042
     84  CE1       11.5490    9.2820  133.4220 C.ar  108  PHE108     -0.0003
     85  CE2        9.8390   10.1730  134.8270 C.ar  108  PHE108     -0.0003
     86  CZ        10.9010    9.3160  134.6400 C.ar  108  PHE108     -0.0000
     87  N          9.9090   14.5180  129.7890 N.am  109  GLU109     -0.1979
     88  CA         9.4390   15.4790  128.7940 C.3   109  GLU109      0.1602
     89  C         10.4270   15.6000  127.6390 C.2   109  GLU109      0.2287
     90  O         10.0350   15.5900  126.4660 O.2   109  GLU109     -0.2864
     91  CB         9.2030   16.8440  129.4510 C.3   109  GLU109      0.0415
     92  CG         8.9630   17.9870  128.4620 C.3   109  GLU109      0.1163
     93  CD         9.2910   19.3660  129.0390 C.2   109  GLU109      0.3649
     94  OE1        9.6180   19.4680  130.2440 O.co2 109  GLU109     -0.2457
     95  OE2        9.2250   20.3560  128.2780 O.co2 109  GLU109     -0.2457
     96  N         10.5910   12.5300  125.1970 N.3   112  LEU112     -0.1245
     97  CA         9.4490   12.3900  124.3000 C.3   112  LEU112      0.1561
     98  C          9.4580   13.4440  123.1960 C.2   112  LEU112      0.2260
     99  O          9.0650   13.1580  122.0600 O.2   112  LEU112     -0.2867
    100  CB         8.1430   12.4660  125.0940 C.3   112  LEU112      0.0270
    101  CG         7.9480   11.4610  126.2280 C.3   112  LEU112      0.0019
    102  CD1        6.7450   11.8370  127.0640 C.3   112  LEU112      0.0001
    103  CD2        7.7930   10.0610  125.6700 C.3   112  LEU112      0.0001
@<TRIPOS>BOND
     1    99    98    2
     2    98    97    1
     3     7     5    1
     4     1     2    1
     5    97   100    1
     6    97    96    1
     7     5     2    1
     8     5     6    1
     9   100   101    1
    10     2     3    1
    11   103   101    1
    12     3     4    2
    13   101   102    1
    14    90    89    2
    15    89    88    1
    16    95    93   ar
    17    79    78    2
    18     8     9    1
    19    92    93    1
    20    92    91    1
    21    88    91    1
    22    88    87    1
    23    12     9    1
    24    12    13    1
    25    93    94   ar
    26    15    13    1
    27     9    10    1
    28    78    87   am
    29    78    77    1
    30    13    14    1
    31    16    10   am
    32    16    17    1
    33    20    17    1
    34    20    21    1
    35    10    11    2
    36    77    76    1
    37    77    80    1
    38    17    18    1
    39    23    21   ar
    40    23    25   ar
    41    21    22   ar
    42    80    81    1
    43    18    19    2
    44    25    26   ar
    45    22    24   ar
    46    82    81   ar
    47    82    84   ar
    48    81    83   ar
    49    71    70    2
    50    26    24   ar
    51    84    86   ar
    52    83    85   ar
    53    70    69    1
    54    33    32    1
    55    32    31    1
    56    32    34    1
    57    27    28    1
    58    74    73    1
    59    86    85   ar
    60    73    72    1
    61    73    75    1
    62    69    72    1
    63    69    68    1
    64    31    28    1
    65    28    29    1
    66    29    30    2
    67    66    65    2
    68    64    67    1
    69    64    65    1
    70    64    63    1
    71    59    58    2
    72    61    60    1
    73    61    62    1
    74    63    58   am
    75    58    57    1
    76    60    57    1
    77    35    36    1
    78    39    40    1
    79    39    36    1
    80    62    56    1
    81    38    37    2
    82    37    36    1
    83    57    56    1
    84    40    41    1
    85    56    52   am
    86    47    46    2
    87    41    42    1
    88    52    53    2
    89    52    51    1
    90    42    43    1
    91    51    50    1
    92    51    54    1
    93    46    50   am
    94    46    45    1
    95    44    45    1
    96    55    54    1
    97    48    45    1
    98    48    49    1
