@<TRIPOS>MOLECULE
tmp/5zihB00.pdb
 81 72 0 0 0
SMALL
GASTEIGER

@<TRIPOS>ATOM
      1  N          8.9840   33.8920  143.4490 N.3    37  GLU37      -0.1245
      2  CA         9.3490   32.9130  142.4300 C.3    37  GLU37       0.1567
      3  C          8.2230   31.9150  142.1980 C.2    37  GLU37       0.2260
      4  O          7.9820   31.4880  141.0610 O.2    37  GLU37      -0.2867
      5  CB        10.6340   32.1940  142.8360 C.3    37  GLU37       0.0388
      6  CG        11.8620   33.0820  142.8040 C.3    37  GLU37       0.1160
      7  CD        13.0820   32.4290  143.4200 C.2    37  GLU37       0.3649
      8  OE1       12.9330   31.6870  144.4150 O.co2  37  GLU37      -0.2457
      9  OE2       14.1940   32.6620  142.9040 O.co2  37  GLU37      -0.2457
     10  N         19.1750   29.3070  120.7780 N.3   207  ALA207     -0.1231
     11  CA        19.0120   30.1310  121.9680 C.3   207  ALA207      0.1694
     12  C         18.2250   29.3950  123.0450 C.2   207  ALA207      0.2592
     13  O         18.5030   29.5470  124.2390 O.2   207  ALA207     -0.2718
     14  CB        18.3340   31.4470  121.5980 C.3   207  ALA207      0.0304
     15  N         17.2450   28.5850  122.6440 N.am  208  SER208     -0.1952
     16  CA        16.4780   27.8180  123.6190 C.3   208  SER208      0.1924
     17  C         17.2130   26.5470  124.0380 C.2   208  SER208      0.2314
     18  O         17.3180   26.2440  125.2330 O.2   208  SER208     -0.2863
     19  CB        15.1010   27.4770  123.0500 C.3   208  SER208      0.2116
     20  OG        14.3310   26.7650  123.9980 O.3   208  SER208     -0.2180
     21  N         20.2740   26.9650  126.3560 N.3   211  SER211     -0.1217
     22  CA        20.0260   27.4670  127.7010 C.3   211  SER211      0.1889
     23  C         19.7750   26.3670  128.7230 C.2   211  SER211      0.2288
     24  O         19.8570   26.6340  129.9270 O.2   211  SER211     -0.2866
     25  CB        18.8270   28.4240  127.6910 C.3   211  SER211      0.2089
     26  OG        18.9610   29.4040  126.6760 O.3   211  SER211     -0.2183
     27  N         21.0290   26.4470  132.6200 N.3   215  LEU215     -0.1245
     28  CA        20.0830   26.3250  133.7250 C.3   215  LEU215      0.1561
     29  C         20.3940   25.1100  134.5910 C.2   215  LEU215      0.2260
     30  O         20.2780   25.1670  135.8200 O.2   215  LEU215     -0.2867
     31  CB        18.6580   26.2450  133.1810 C.3   215  LEU215      0.0270
     32  CG        18.1130   27.5080  132.5150 C.3   215  LEU215      0.0019
     33  CD1       16.9130   27.1770  131.6470 C.3   215  LEU215      0.0001
     34  CD2       17.7340   28.5400  133.5660 C.3   215  LEU215      0.0001
     35  N         19.8450   28.6410  141.5560 N.3   226  LEU226     -0.1245
     36  CA        18.4250   28.8120  141.2880 C.3   226  LEU226      0.1561
     37  C         17.6090   27.7740  142.0470 C.2   226  LEU226      0.2260
     38  O         17.9450   26.5850  142.0610 O.2   226  LEU226     -0.2867
     39  CB        18.1300   28.7070  139.7910 C.3   226  LEU226      0.0270
     40  CG        18.8470   29.6970  138.8720 C.3   226  LEU226      0.0019
     41  CD1       18.2070   29.7010  137.4920 C.3   226  LEU226      0.0001
     42  CD2       18.8750   31.0940  139.4640 C.3   226  LEU226      0.0001
     43  N         12.4350   29.1730  140.6670 N.3   230  ALA230     -0.1245
     44  CA        13.2150   29.9940  139.7470 C.3   230  ALA230      0.1562
     45  C         13.6270   29.1990  138.5140 C.2   230  ALA230      0.2260
     46  O         13.4620   29.6610  137.3780 O.2   230  ALA230     -0.2867
     47  CB        14.4450   30.5500  140.4630 C.3   230  ALA230      0.0290
     48  N         10.8170   28.8130  136.0640 N.3   233  ILE233     -0.1231
     49  CA        10.5750   29.9840  135.2230 C.3   233  ILE233      0.1692
     50  C         11.4190   29.9110  133.9580 C.2   233  ILE233      0.2592
     51  O         10.9180   30.0900  132.8400 O.2   233  ILE233     -0.2718
     52  CB        10.8610   31.2800  136.0070 C.3   233  ILE233      0.0266
     53  CG1        9.8000   31.5170  137.0850 C.3   233  ILE233      0.0019
     54  CG2       10.9480   32.4660  135.0590 C.3   233  ILE233      0.0020
     55  CD1       10.1800   32.5940  138.0670 C.3   233  ILE233      0.0001
     56  N         12.7160   29.6390  134.1150 N.am  234  GLY234     -0.1957
     57  CA        13.5950   29.6070  132.9590 C.3   234  GLY234      0.1869
     58  C         13.2450   28.4990  131.9830 C.2   234  GLY234      0.2309
     59  O         13.3110   28.6880  130.7640 O.2   234  GLY234     -0.2863
     60  N         10.1190   29.3230  129.8550 N.3   237  ILE237     -0.1231
     61  CA        10.4360   30.2650  128.7850 C.3   237  ILE237      0.1692
     62  C         11.1640   29.5580  127.6490 C.2   237  ILE237      0.2592
     63  O         10.8900   29.8070  126.4680 O.2   237  ILE237     -0.2718
     64  CB        11.2520   31.4490  129.3360 C.3   237  ILE237      0.0266
     65  CG1       10.5040   32.1110  130.4940 C.3   237  ILE237      0.0019
     66  CG2       11.5240   32.4660  128.2380 C.3   237  ILE237      0.0020
     67  CD1       11.3220   33.1240  131.2550 C.3   237  ILE237      0.0001
     68  N         12.0970   28.6600  127.9820 N.am  238  CYS238     -0.1970
     69  CA        12.7650   27.8790  126.9450 C.3   238  CYS238      0.1712
     70  C         11.7820   26.9700  126.2170 C.2   238  CYS238      0.2296
     71  O         11.8560   26.8180  124.9910 O.2   238  CYS238     -0.2864
     72  CB        13.9050   27.0600  127.5500 C.3   238  CYS238      0.0983
     73  SG        15.2970   28.0380  128.1270 S.3   238  CYS238     -0.0798
     74  N          9.7460   28.6780  123.6330 N.3   241  ILE241     -0.1245
     75  CA        10.5290   28.9540  122.4350 C.3   241  ILE241      0.1561
     76  C         10.8360   27.6670  121.6780 C.2   241  ILE241      0.2260
     77  O         10.6640   27.5930  120.4560 O.2   241  ILE241     -0.2867
     78  CB        11.8120   29.7130  122.8180 C.3   241  ILE241      0.0252
     79  CG1       11.4370   31.0830  123.3880 C.3   241  ILE241      0.0019
     80  CG2       12.7440   29.8430  121.6180 C.3   241  ILE241      0.0019
     81  CD1       12.5450   31.7750  124.1090 C.3   241  ILE241      0.0001
@<TRIPOS>BOND
     1    77    76    2
     2    10    11    1
     3    14    11    1
     4    80    78    1
     5    76    75    1
     6    11    12    1
     7    75    78    1
     8    75    74    1
     9    15    12   am
    10    15    16    1
    11    78    79    1
    12    12    13    2
    13    19    16    1
    14    19    20    1
    15    79    81    1
    16    16    17    1
    17    17    18    2
    18    71    70    2
    19    70    69    1
    20    21    22    1
    21    63    62    2
    22    26    25    1
    23    69    72    1
    24    69    68    1
    25    72    73    1
    26    62    68   am
    27    62    61    1
    28    25    22    1
    29    22    23    1
    30    66    64    1
    31    23    24    2
    32    61    64    1
    33    61    60    1
    34    64    65    1
    35    65    67    1
    36    59    58    2
    37    33    32    1
    38    58    57    1
    39    32    31    1
    40    32    34    1
    41    27    28    1
    42    51    50    2
    43    57    56    1
    44    31    28    1
    45    28    29    1
    46    50    56   am
    47    50    49    1
    48    29    30    2
    49    54    52    1
    50    49    52    1
    51    49    48    1
    52    52    53    1
    53    53    55    1
    54    46    45    2
    55    41    40    1
    56    45    44    1
    57    40    42    1
    58    40    39    1
    59    44    47    1
    60    44    43    1
    61    39    36    1
    62     4     3    2
    63    36    35    1
    64    36    37    1
    65    37    38    2
    66     3     2    1
    67     2     5    1
    68     2     1    1
    69     6     5    1
    70     6     7    1
    71     9     7   ar
    72     7     8   ar
