@<TRIPOS>MOLECULE
tmp/5zimA03.pdb
 126 120 0 0 0
SMALL
GASTEIGER

@<TRIPOS>ATOM
      1  N         79.4650   -1.4130  -17.4830 N.3   134  TRP134     -0.1241
      2  CA        78.2360   -1.6010  -18.2450 C.3   134  TRP134      0.1605
      3  C         78.1430   -0.6090  -19.4080 C.2   134  TRP134      0.2264
      4  O         77.7080   -0.9710  -20.5120 O.2   134  TRP134     -0.2867
      5  CB        77.0230   -1.4420  -17.2810 C.3   134  TRP134      0.0550
      6  CG        75.7020   -1.5080  -17.9660 C.ar  134  TRP134      0.0003
      7  CD1       74.9370   -2.6530  -18.1540 C.ar  134  TRP134      0.0946
      8  CD2       74.9640   -0.4500  -18.5560 C.ar  134  TRP134      0.0152
      9  NE1       73.7420   -2.3700  -18.8230 N.ar  134  TRP134     -0.2442
     10  CE2       73.7690   -1.0040  -19.0720 C.ar  134  TRP134      0.0810
     11  CE3       75.1590    0.9080  -18.6960 C.ar  134  TRP134      0.0012
     12  CZ2       72.7950   -0.2610  -19.7180 C.ar  134  TRP134      0.0191
     13  CZ3       74.1950    1.6760  -19.3530 C.ar  134  TRP134      0.0001
     14  CH2       73.0310    1.0750  -19.8590 C.ar  134  TRP134      0.0015
     15  N         78.0340   -1.4850  -23.3370 N.3   138  THR138     -0.1218
     16  CA        76.8820   -1.0220  -24.1380 C.3   138  THR138      0.1862
     17  C         77.3790   -0.2310  -25.3310 C.2   138  THR138      0.2287
     18  O         76.8200   -0.3850  -26.4430 O.2   138  THR138     -0.2866
     19  CB        75.9430   -0.1930  -23.2170 C.3   138  THR138      0.1770
     20  OG1       75.4320   -1.0930  -22.2250 O.3   138  THR138     -0.2211
     21  CG2       74.7740    0.3860  -23.9970 C.3   138  THR138      0.0375
     22  N         78.2810   -2.7180  -27.8590 N.3   141  MET141     -0.1230
     23  CA        77.1010   -3.3230  -28.4510 C.3   141  MET141      0.1702
     24  C         76.5020   -2.3910  -29.4900 C.2   141  MET141      0.2592
     25  O         76.1000   -2.8140  -30.5830 O.2   141  MET141     -0.2718
     26  CB        76.0640   -3.6310  -27.3700 C.3   141  MET141      0.0401
     27  CG        74.8510   -4.3900  -27.9820 C.3   141  MET141      0.0596
     28  SD        73.4300   -4.4980  -26.8860 S.3   141  MET141     -0.1393
     29  CE        72.8730   -2.7690  -27.0710 C.3   141  MET141      0.0692
     30  N         76.4400   -1.1020  -29.1120 N.am  142  LEU142     -0.1980
     31  CA        75.8770   -0.1480  -30.0840 C.3   142  LEU142      0.1596
     32  C         76.7350   -0.1090  -31.3440 C.2   142  LEU142      0.2287
     33  O         76.2100    0.0610  -32.4690 O.2   142  LEU142     -0.2864
     34  CB        75.7490    1.2330  -29.4400 C.3   142  LEU142      0.0297
     35  CG        74.6900    1.2880  -28.3150 C.3   142  LEU142      0.0022
     36  CD1       74.7460    2.6380  -27.6010 C.3   142  LEU142      0.0001
     37  CD2       73.3180    0.9960  -28.9080 C.3   142  LEU142      0.0001
     38  N         75.7380   -3.1070  -33.4030 N.3   145  LEU145     -0.1245
     39  CA        74.4620   -2.8710  -34.0900 C.3   145  LEU145      0.1561
     40  C         74.6040   -1.8630  -35.2090 C.2   145  LEU145      0.2260
     41  O         74.0050   -2.0360  -36.2820 O.2   145  LEU145     -0.2867
     42  CB        73.4450   -2.3280  -33.0690 C.3   145  LEU145      0.0270
     43  CG        73.1570   -3.3100  -31.9210 C.3   145  LEU145      0.0019
     44  CD1       72.1340   -2.6860  -30.9770 C.3   145  LEU145      0.0001
     45  CD2       72.7280   -4.6610  -32.4460 C.3   145  LEU145      0.0001
     46  N         73.7980   -2.5880  -39.3680 N.3   149  PHE149     -0.1241
     47  CA        72.8240   -1.8740  -40.2150 C.3   149  PHE149      0.1605
     48  C         73.4300   -0.9700  -41.2620 C.2   149  PHE149      0.2264
     49  O         72.7510   -0.5790  -42.2030 O.2   149  PHE149     -0.2867
     50  CB        71.9520   -0.9610  -39.3280 C.3   149  PHE149      0.0534
     51  CG        70.8290   -1.6720  -38.6350 C.ar  149  PHE149     -0.0203
     52  CD1       69.7700   -2.1470  -39.4060 C.ar  149  PHE149     -0.0042
     53  CD2       70.8340   -1.8810  -37.2760 C.ar  149  PHE149     -0.0042
     54  CE1       68.6990   -2.8240  -38.8300 C.ar  149  PHE149     -0.0003
     55  CE2       69.7430   -2.5350  -36.7050 C.ar  149  PHE149     -0.0003
     56  CZ        68.7130   -3.0350  -37.4750 C.ar  149  PHE149     -0.0000
     57  N         68.0940   -9.7580  -43.3490 N.3   168  LYS168     -0.1245
     58  CA        67.2370   -8.7330  -42.7320 C.3   168  LYS168      0.1561
     59  C         66.4710   -9.3000  -41.5490 C.2   168  LYS168      0.2260
     60  O         66.4010   -8.6380  -40.4930 O.2   168  LYS168     -0.2867
     61  CB        66.2680   -8.1480  -43.7740 C.3   168  LYS168      0.0271
     62  CG        65.0270   -7.4350  -43.2770 C.3   168  LYS168      0.0035
     63  CD        64.0240   -7.1170  -44.3640 C.3   168  LYS168      0.0206
     64  CE        62.5880   -7.3480  -43.9130 C.3   168  LYS168      0.1093
     65  NZ        62.4580   -8.2190  -42.6940 N.3   168  LYS168     -0.1314
     66  N         68.9320  -10.1070  -38.7210 N.3   171  ARG171     -0.1231
     67  CA        69.5090   -8.8980  -38.1230 C.3   171  ARG171      0.1694
     68  C         68.4880   -8.2190  -37.2420 C.2   171  ARG171      0.2592
     69  O         68.8190   -7.6880  -36.1880 O.2   171  ARG171     -0.2718
     70  CB        69.9970   -7.9280  -39.2030 C.3   171  ARG171      0.0321
     71  CG        70.2370   -6.5330  -38.5840 C.3   171  ARG171      0.0489
     72  CD        70.8140   -5.6220  -39.6610 C.3   171  ARG171      0.2205
     73  NE        69.7630   -5.3610  -40.6660 N.pl3 171  ARG171     -0.0865
     74  CZ        69.9990   -4.7470  -41.8150 C.cat 171  ARG171      0.5346
     75  NH1       71.2470   -4.3500  -42.0700 N.pl3 171  ARG171      0.1354
     76  NH2       69.0510   -4.5130  -42.7270 N.pl3 171  ARG171      0.1354
     77  N         67.2090   -8.1910  -37.6210 N.am  172  ASN172     -0.1974
     78  CA        66.2000   -7.6230  -36.7310 C.3   172  ASN172      0.1688
     79  C         66.0130   -8.4410  -35.4430 C.2   172  ASN172      0.2292
     80  O         65.8630   -7.8680  -34.3630 O.2   172  ASN172     -0.2864
     81  CB        64.8760   -7.4790  -37.5130 C.3   172  ASN172      0.1181
     82  CG        65.0050   -6.3490  -38.5410 C.2   172  ASN172      0.2629
     83  OD1       65.7730   -5.4170  -38.3330 O.2   172  ASN172     -0.2716
     84  ND2       64.2120   -6.4620  -39.6130 N.am  172  ASN172     -0.0877
     85  N         69.0730   -7.4710  -33.2510 N.3   175  VAL175     -0.1231
     86  CA        69.0460   -6.1350  -32.6250 C.3   175  VAL175      0.1692
     87  C         68.0540   -6.1050  -31.4980 C.2   175  VAL175      0.2592
     88  O         68.3180   -5.5640  -30.4070 O.2   175  VAL175     -0.2718
     89  CB        68.7340   -5.0680  -33.6960 C.3   175  VAL175      0.0266
     90  CG1       68.6990   -3.7160  -33.0100 C.3   175  VAL175      0.0020
     91  CG2       69.7810   -5.1850  -34.7940 C.3   175  VAL175      0.0020
     92  N         66.8920   -6.7170  -31.6770 N.am  176  VAL176     -0.1966
     93  CA        65.8510   -6.6240  -30.6500 C.3   176  VAL176      0.1727
     94  C         66.2650   -7.4470  -29.4490 C.2   176  VAL176      0.2616
     95  O         66.1990   -6.9700  -28.3120 O.2   176  VAL176     -0.2715
     96  CB        64.4930   -7.1200  -31.2060 C.3   176  VAL176      0.0290
     97  CG1       63.5120   -7.2090  -30.0600 C.3   176  VAL176      0.0023
     98  CG2       63.9490   -6.1820  -32.2860 C.3   176  VAL176      0.0023
     99  N         66.6730   -8.7110  -29.6600 N.am  177  LEU177     -0.1977
    100  CA        67.0040   -9.5430  -28.5020 C.3   177  LEU177      0.1596
    101  C         68.2840   -9.0720  -27.8390 C.2   177  LEU177      0.2287
    102  O         68.3510   -9.0290  -26.6160 O.2   177  LEU177     -0.2864
    103  CB        67.1490  -11.0070  -28.9070 C.3   177  LEU177      0.0297
    104  CG        65.8470  -11.5930  -29.4460 C.3   177  LEU177      0.0022
    105  CD1       66.2360  -13.0020  -29.9250 C.3   177  LEU177      0.0001
    106  CD2       64.7730  -11.6210  -28.3910 C.3   177  LEU177      0.0001
    107  N         69.5720   -6.1800  -27.6620 N.3   179  SER179     -0.1217
    108  CA        69.4640   -4.9060  -26.9200 C.3   179  SER179      0.1889
    109  C         68.8420   -5.1120  -25.5510 C.2   179  SER179      0.2288
    110  O         69.0060   -4.2890  -24.6670 O.2   179  SER179     -0.2866
    111  CB        68.6170   -3.9360  -27.7460 C.3   179  SER179      0.2089
    112  OG        69.3590   -3.5460  -28.8780 O.3   179  SER179     -0.2183
    113  N         71.5740   -5.6850  -21.9920 N.3   182  PRO182     -0.2102
    114  CA        72.0600   -4.6950  -21.0360 C.3   182  PRO182      0.1504
    115  C         70.9630   -4.2180  -20.1240 C.2   182  PRO182      0.2575
    116  O         71.2710   -3.8560  -18.9760 O.2   182  PRO182     -0.2718
    117  CB        72.5460   -3.5640  -21.9590 C.3   182  PRO182      0.0282
    118  CG        71.9910   -3.8250  -23.3110 C.3   182  PRO182      0.0208
    119  CD        71.9080   -5.3370  -23.3910 C.3   182  PRO182      0.0893
    120  N         69.7310   -4.1560  -20.6500 N.am  183  VAL183     -0.1980
    121  CA        68.6640   -3.7110  -19.7500 C.3   183  VAL183      0.1595
    122  C         68.4780   -4.7030  -18.5980 C.2   183  VAL183      0.2287
    123  O         68.3300   -4.3130  -17.4270 O.2   183  VAL183     -0.2864
    124  CB        67.3430   -3.5260  -20.5260 C.3   183  VAL183      0.0276
    125  CG1       66.2510   -3.0550  -19.5890 C.3   183  VAL183      0.0022
    126  CG2       67.6300   -2.5210  -21.6450 C.3   183  VAL183      0.0022
@<TRIPOS>BOND
     1    63    64    1
     2    63    62    1
     3    64    65    1
     4    61    62    1
     5    61    58    1
     6    57    58    1
     7    58    59    1
     8    76    74    1
     9    49    48    2
    10    75    74    1
    11    74    73    2
    12    59    60    2
    13    48    47    1
    14    73    72    1
    15    47    46    1
    16    47    50    1
    17    72    71    1
    18    84    82   am
    19    52    54   ar
    20    52    51   ar
    21    50    51    1
    22    70    71    1
    23    70    67    1
    24    54    56   ar
    25    66    67    1
    26    51    53   ar
    27    82    83    2
    28    82    81    1
    29    67    68    1
    30    77    68   am
    31    77    78    1
    32    81    78    1
    33    56    55   ar
    34    53    55   ar
    35    68    69    2
    36    78    79    1
    37    41    40    2
    38    79    80    2
    39    40    39    1
    40    91    89    1
    41    39    38    1
    42    39    42    1
    43    89    90    1
    44    89    86    1
    45    85    86    1
    46    42    43    1
    47    86    87    1
    48    33    32    2
    49    45    43    1
    50    98    96    1
    51    43    44    1
    52    92    87   am
    53    92    93    1
    54    87    88    2
    55    32    31    1
    56    96    93    1
    57    96    97    1
    58    93    94    1
    59    25    24    2
    60    31    34    1
    61    31    30    1
    62   105   104    1
    63    99    94   am
    64    99   100    1
    65    24    30   am
    66    24    23    1
    67    94    95    2
    68   104   103    1
    69   104   106    1
    70    34    35    1
    71    37    35    1
    72   103   100    1
    73   112   111    1
    74   100   101    1
    75    23    22    1
    76    23    26    1
    77    35    36    1
    78    27    26    1
    79    27    28    1
    80   101   102    2
    81   111   108    1
    82   107   108    1
    83    29    28    1
    84   108   109    1
    85    18    17    2
    86   109   110    2
    87    17    16    1
    88    16    15    1
    89    16    19    1
    90    21    19    1
    91   119   118    1
    92   119   113    1
    93   118   117    1
    94    19    20    1
    95   113   114    1
    96   117   114    1
    97   126   124    1
    98   114   115    1
    99   120   115   am
   100   120   121    1
   101   124   121    1
   102   124   125    1
   103     4     3    2
   104   115   116    2
   105    14    12   ar
   106    14    13   ar
   107   121   122    1
   108    12    10   ar
   109     3     2    1
   110    13    11   ar
   111    10     9   ar
   112    10     8   ar
   113     9     7   ar
   114    11     8   ar
   115   122   123    2
   116     8     6   ar
   117     2     1    1
   118     2     5    1
   119     7     6   ar
   120     6     5    1
