@<TRIPOS>MOLECULE
tmp/5zimA02.pdb
 82 76 0 0 0
SMALL
GASTEIGER

@<TRIPOS>ATOM
      1  N         87.7450   -7.2870  -42.9510 N.3   102  GLY102     -0.1210
      2  CA        87.8800   -6.2170  -41.9680 C.3   102  GLY102      0.1956
      3  C         86.6140   -6.0170  -41.1650 C.2   102  GLY102      0.2612
      4  O         86.6680   -5.7590  -39.9510 O.2   102  GLY102     -0.2717
      5  N         85.4520   -6.1310  -41.8080 N.am  103  THR103     -0.1952
      6  CA        84.2060   -5.9630  -41.0750 C.3   103  THR103      0.1897
      7  C         83.9700   -7.0850  -40.0860 C.2   103  THR103      0.2313
      8  O         83.4610   -6.9070  -38.9780 O.2   103  THR103     -0.2863
      9  CB        83.0300   -5.9320  -42.1100 C.3   103  THR103      0.1794
     10  OG1       83.2580   -5.0390  -43.1610 O.3   103  THR103     -0.2208
     11  CG2       81.8210   -5.4520  -41.3080 C.3   103  THR103      0.0378
     12  N         86.2180   -6.3300  -37.1410 N.3   106  ALA106     -0.1245
     13  CA        85.5880   -5.3280  -36.2850 C.3   106  ALA106      0.1562
     14  C         84.4570   -5.8610  -35.4370 C.2   106  ALA106      0.2260
     15  O         84.3300   -5.5070  -34.2540 O.2   106  ALA106     -0.2867
     16  CB        85.0210   -4.1850  -37.1660 C.3   106  ALA106      0.0290
     17  N         85.8750   -8.4260  -32.7850 N.3   109  GLY109     -0.1210
     18  CA        86.5980   -7.7080  -31.7370 C.3   109  GLY109      0.1956
     19  C         85.7370   -6.8110  -30.8720 C.2   109  GLY109      0.2611
     20  O         85.9630   -6.8090  -29.6530 O.2   109  GLY109     -0.2717
     21  N         84.8170   -6.0900  -31.4870 N.am  110  ALA110     -0.1979
     22  CA        83.8840   -5.3110  -30.6340 C.3   110  ALA110      0.1597
     23  C         83.0920   -6.1980  -29.6920 C.2   110  ALA110      0.2287
     24  O         82.8030   -5.8660  -28.5580 O.2   110  ALA110     -0.2864
     25  CB        82.9170   -4.5230  -31.5210 C.3   110  ALA110      0.0319
     26  N         85.1260   -7.1820  -26.8030 N.3   113  ILE113     -0.1245
     27  CA        85.1930   -6.0890  -25.8170 C.3   113  ILE113      0.1561
     28  C         83.8870   -6.0270  -25.0430 C.2   113  ILE113      0.2260
     29  O         83.8990   -5.8770  -23.8290 O.2   113  ILE113     -0.2867
     30  CB        85.4950   -4.7600  -26.5330 C.3   113  ILE113      0.0252
     31  CG1       86.9640   -4.7150  -27.0270 C.3   113  ILE113      0.0019
     32  CG2       85.2280   -3.5890  -25.6350 C.3   113  ILE113      0.0019
     33  CD1       87.1780   -3.6200  -28.0670 C.3   113  ILE113      0.0001
     34  N         80.5830    0.9660  -21.0380 N.3   136  ILE136     -0.1245
     35  CA        81.5790    0.6800  -22.0660 C.3   136  ILE136      0.1561
     36  C         81.1120   -0.4990  -22.9040 C.2   136  ILE136      0.2260
     37  O         81.1600   -0.4930  -24.1180 O.2   136  ILE136     -0.2867
     38  CB        82.9680    0.4270  -21.4360 C.3   136  ILE136      0.0252
     39  CG1       83.5510    1.7070  -20.8050 C.3   136  ILE136      0.0019
     40  CG2       83.9450   -0.0900  -22.4890 C.3   136  ILE136      0.0019
     41  CD1       84.6440    1.4270  -19.7890 C.3   136  ILE136      0.0001
     42  N         78.4040    0.5830  -25.1800 N.3   139  ALA139     -0.1231
     43  CA        78.9630    1.2990  -26.3330 C.3   139  ALA139      0.1694
     44  C         79.4620    0.3170  -27.3870 C.2   139  ALA139      0.2591
     45  O         79.2520    0.5040  -28.5720 O.2   139  ALA139     -0.2718
     46  CB        80.0940    2.2260  -25.8750 C.3   139  ALA139      0.0304
     47  N         80.1350   -0.7500  -26.9580 N.am  140  ALA140     -0.1980
     48  CA        80.5460   -1.7730  -27.9210 C.3   140  ALA140      0.1597
     49  C         79.3730   -2.4480  -28.5930 C.2   140  ALA140      0.2287
     50  O         79.4460   -2.7280  -29.7920 O.2   140  ALA140     -0.2864
     51  CB        81.4100   -2.8010  -27.1340 C.3   140  ALA140      0.0319
     52  N         78.0620   -0.1940  -31.1900 N.3   143  TYR143     -0.1241
     53  CA        78.9260   -0.2370  -32.3780 C.3   143  TYR143      0.1605
     54  C         78.5680   -1.4300  -33.2240 C.2   143  TYR143      0.2264
     55  O         78.4420   -1.3610  -34.4290 O.2   143  TYR143     -0.2867
     56  CB        80.4280   -0.2620  -31.9020 C.3   143  TYR143      0.0534
     57  CG        81.2990   -0.3880  -33.1470 C.ar  143  TYR143     -0.0201
     58  CD1       81.5410    0.7090  -33.9450 C.ar  143  TYR143     -0.0009
     59  CD2       81.8360   -1.6240  -33.4810 C.ar  143  TYR143     -0.0009
     60  CE1       82.3380    0.5320  -35.0960 C.ar  143  TYR143      0.0417
     61  CE2       82.6080   -1.7850  -34.6260 C.ar  143  TYR143      0.0417
     62  CZ        82.8790   -0.6860  -35.4400 C.ar  143  TYR143      0.1957
     63  OH        83.6330   -0.9820  -36.5200 O.3   143  TYR143     -0.2866
     64  N         75.3800   -0.8050  -35.0190 N.3   146  TYR146     -0.1227
     65  CA        75.6690    0.1300  -36.1100 C.3   146  TYR146      0.1736
     66  C         76.2380   -0.5720  -37.3280 C.2   146  TYR146      0.2595
     67  O         75.8240   -0.3660  -38.4780 O.2   146  TYR146     -0.2718
     68  CB        76.6610    1.1870  -35.5670 C.3   146  TYR146      0.0548
     69  CG        77.1020    2.1520  -36.6430 C.ar  146  TYR146     -0.0200
     70  CD1       76.2990    3.2590  -36.9620 C.ar  146  TYR146     -0.0009
     71  CD2       78.2850    2.0150  -37.3370 C.ar  146  TYR146     -0.0009
     72  CE1       76.6640    4.1560  -37.9340 C.ar  146  TYR146      0.0417
     73  CE2       78.6520    2.9230  -38.3220 C.ar  146  TYR146      0.0417
     74  CZ        77.8520    4.0030  -38.6180 C.ar  146  TYR146      0.1957
     75  OH        78.1760    4.9320  -39.5870 O.3   146  TYR146     -0.2866
     76  N         77.2680   -1.3970  -37.1570 N.am  147  VAL147     -0.1980
     77  CA        77.8660   -2.1000  -38.2580 C.3   147  VAL147      0.1595
     78  C         76.8360   -2.9930  -38.9500 C.2   147  VAL147      0.2287
     79  O         76.7700   -3.0610  -40.1770 O.2   147  VAL147     -0.2864
     80  CB        79.0880   -2.9190  -37.8050 C.3   147  VAL147      0.0276
     81  CG1       79.6340   -3.7460  -38.9730 C.3   147  VAL147      0.0022
     82  CG2       80.1670   -2.0120  -37.2470 C.3   147  VAL147      0.0022
@<TRIPOS>BOND
     1    10     9    1
     2     1     2    1
     3     9    11    1
     4     9     6    1
     5     2     3    1
     6     5     3   am
     7     5     6    1
     8     3     4    2
     9     6     7    1
    10    79    78    2
    11     7     8    2
    12    75    74    1
    13    81    80    1
    14    78    77    1
    15    74    73   ar
    16    74    72   ar
    17    67    66    2
    18    73    71   ar
    19    77    80    1
    20    77    76    1
    21    72    70   ar
    22    80    82    1
    23    71    69   ar
    24    66    76   am
    25    66    65    1
    26    16    13    1
    27    12    13    1
    28    70    69   ar
    29    69    68    1
    30    63    62    1
    31    13    14    1
    32    65    68    1
    33    65    64    1
    34    62    60   ar
    35    62    61   ar
    36    14    15    2
    37    60    58   ar
    38    61    59   ar
    39    55    54    2
    40    58    57   ar
    41    59    57   ar
    42    54    53    1
    43    57    56    1
    44    17    18    1
    45    53    56    1
    46    53    52    1
    47    18    19    1
    48    25    22    1
    49    21    19   am
    50    21    22    1
    51    19    20    2
    52    22    23    1
    53    50    49    2
    54    23    24    2
    55    49    48    1
    56    45    44    2
    57    33    31    1
    58    48    51    1
    59    48    47    1
    60    44    47   am
    61    44    43    1
    62    31    30    1
    63    26    27    1
    64    30    27    1
    65    30    32    1
    66    43    46    1
    67    43    42    1
    68    27    28    1
    69    28    29    2
    70    37    36    2
    71    36    35    1
    72    40    38    1
    73    35    38    1
    74    35    34    1
    75    38    39    1
    76    39    41    1
