@<TRIPOS>MOLECULE
tmp/5ziqC00.pdb
 201 196 0 0 0
SMALL
GASTEIGER

@<TRIPOS>ATOM
      1  N        -11.3000   12.3990   -0.0830 N.3    37  LEU37      -0.1245
      2  CA       -12.2690   13.4490   -0.4040 C.3    37  LEU37       0.1561
      3  C        -13.6860   13.0330   -0.0400 C.2    37  LEU37       0.2260
      4  O        -14.4150   13.8030    0.5800 O.2    37  LEU37      -0.2867
      5  CB       -12.2150   13.8310   -1.8820 C.3    37  LEU37       0.0270
      6  CG       -13.1720   14.9430   -2.3270 C.3    37  LEU37       0.0019
      7  CD1      -12.8260   16.2900   -1.6830 C.3    37  LEU37       0.0001
      8  CD2      -13.1770   15.0200   -3.8460 C.3    37  LEU37       0.0001
      9  N        -19.3960   15.1960   -2.0860 N.3    44  MET44      -0.1245
     10  CA       -18.5370   15.2440   -3.2670 C.3    44  MET44       0.1570
     11  C        -18.6500   13.9810   -4.1020 C.2    44  MET44       0.2261
     12  O        -18.5410   14.0290   -5.3280 O.2    44  MET44      -0.2867
     13  CB       -17.0750   15.5150   -2.8940 C.3    44  MET44       0.0387
     14  CG       -16.8250   16.8590   -2.2210 C.3    44  MET44       0.0595
     15  SD       -17.1840   18.3540   -3.1650 S.3    44  MET44      -0.1393
     16  CE       -18.9470   18.5760   -2.9090 C.3    44  MET44       0.0692
     17  N        -21.2570   14.0020   -6.9220 N.3    47  LEU47      -0.1231
     18  CA       -21.0010   14.7210   -8.1730 C.3    47  LEU47       0.1693
     19  C        -20.5580   13.8010   -9.3050 C.2    47  LEU47       0.2592
     20  O        -20.5380   14.1960  -10.4630 O.2    47  LEU47      -0.2718
     21  CB       -19.9950   15.8570   -7.9500 C.3    47  LEU47       0.0284
     22  CG       -20.4250   16.9610   -6.9770 C.3    47  LEU47       0.0019
     23  CD1      -19.3750   18.0510   -6.8470 C.3    47  LEU47       0.0001
     24  CD2      -21.7710   17.5560   -7.3770 C.3    47  LEU47       0.0001
     25  N        -20.2050   12.5740   -8.9430 N.am   48  PHE48      -0.1963
     26  CA       -19.9220   11.5230   -9.8880 C.3    48  PHE48       0.1756
     27  C        -21.1030   10.5280   -9.8290 C.2    48  PHE48       0.2461
     28  O        -21.0910    9.6060   -9.0020 O.2    48  PHE48      -0.2730
     29  CB       -18.6450   10.7700   -9.5000 C.3    48  PHE48       0.0574
     30  CG       -17.3760   11.5990   -9.4490 C.ar   48  PHE48      -0.0200
     31  CD1      -17.0020   12.2890   -8.2830 C.ar   48  PHE48      -0.0042
     32  CD2      -16.4940   11.5820  -10.5240 C.ar   48  PHE48      -0.0042
     33  CE1      -15.7920   12.9890   -8.2150 C.ar   48  PHE48      -0.0003
     34  CE2      -15.2900   12.2870  -10.4680 C.ar   48  PHE48      -0.0003
     35  CZ       -14.9420   12.9880   -9.3160 C.ar   48  PHE48      -0.0000
     36  N        -22.1260   10.7020  -10.6960 N.am   49  PRO49      -0.2716
     37  CA       -23.2880    9.7820  -10.6670 C.3    49  PRO49       0.1536
     38  C        -22.9460    8.2770  -10.7400 C.2    49  PRO49       0.2598
     39  O        -23.6380    7.4600  -10.1250 O.2    49  PRO49      -0.2715
     40  CB       -24.0950   10.2060  -11.8910 C.3    49  PRO49       0.0310
     41  CG       -23.7690   11.6490  -12.0640 C.3    49  PRO49       0.0237
     42  CD       -22.3150   11.7730  -11.7000 C.3    49  PRO49       0.0939
     43  N        -21.8610    7.9300  -11.4380 N.am   50  LYS50      -0.1978
     44  CA       -21.4210    6.5410  -11.5650 C.3    50  LYS50       0.1596
     45  C        -21.0450    5.8920  -10.2190 C.2    50  LYS50       0.2287
     46  O        -20.9830    4.6630  -10.1170 O.2    50  LYS50      -0.2864
     47  CB       -20.2470    6.4340  -12.5390 C.3    50  LYS50       0.0298
     48  CG       -20.5960    6.7220  -13.9900 C.3    50  LYS50       0.0038
     49  CD       -19.3670    6.6020  -14.8800 C.3    50  LYS50       0.0206
     50  CE       -19.7570    6.7010  -16.3470 C.3    50  LYS50       0.1093
     51  NZ       -18.5830    6.6260  -17.2640 N.3    50  LYS50      -0.1314
     52  N        -10.5000    5.4410  -13.5390 N.3    67  GLU67      -0.1231
     53  CA       -10.4160    6.5100  -14.5370 C.3    67  GLU67       0.1699
     54  C        -10.4520    7.8750  -13.8550 C.2    67  GLU67       0.2592
     55  O         -9.6280    8.7400  -14.1790 O.2    67  GLU67      -0.2718
     56  CB       -11.5440    6.4180  -15.5670 C.3    67  GLU67       0.0402
     57  CG       -11.4870    5.1720  -16.4480 C.3    67  GLU67       0.1161
     58  CD       -12.6740    5.0770  -17.3940 C.2    67  GLU67       0.3649
     59  OE1      -12.9060    3.9990  -17.9430 O.co2  67  GLU67      -0.2457
     60  OE2      -13.3980    6.0570  -17.5940 O.co2  67  GLU67      -0.2457
     61  N        -11.3900    8.0540  -12.9140 N.am   68  ALA68      -0.1980
     62  CA       -11.5390    9.3420  -12.2280 C.3    68  ALA68       0.1597
     63  C        -10.3100    9.6360  -11.3600 C.2    68  ALA68       0.2287
     64  O         -9.8940   10.7910  -11.2470 O.2    68  ALA68      -0.2864
     65  CB       -12.8170    9.3850  -11.3950 C.3    68  ALA68       0.0319
     66  N         -7.6250   10.7950  -13.6300 N.3    71  ALA71      -0.1231
     67  CA        -7.9400   12.1420  -14.1320 C.3    71  ALA71       0.1694
     68  C         -7.6070   13.2110  -13.1010 C.2    71  ALA71       0.2592
     69  O         -7.2140   14.3210  -13.4490 O.2    71  ALA71      -0.2718
     70  CB        -9.4150   12.2480  -14.5050 C.3    71  ALA71       0.0304
     71  N         -7.7890   12.8560  -11.8300 N.am   72  HIS72      -0.1976
     72  CA        -7.6360   13.8220  -10.7430 C.3    72  HIS72       0.1656
     73  C         -6.2170   14.0260  -10.2670 C.2    72  HIS72       0.2291
     74  O         -5.8660   15.1450   -9.8910 O.2    72  HIS72      -0.2864
     75  CB        -8.6340   13.5040   -9.6260 C.3    72  HIS72       0.0771
     76  CG        -9.9780   14.0280   -9.9780 C.ar   72  HIS72       0.0820
     77  ND1      -10.7990   13.4120  -10.9010 N.ar   72  HIS72      -0.2267
     78  CD2      -10.5410   15.2200   -9.7080 C.ar   72  HIS72       0.1154
     79  CE1      -11.8420   14.1870  -11.1460 C.ar   72  HIS72       0.1986
     80  NE2      -11.7090   15.3000  -10.4350 N.ar   72  HIS72      -0.2212
     81  N         -3.1910   16.0500  -13.3150 N.3    75  PRO75      -0.2102
     82  CA        -2.8260   17.4710  -13.4740 C.3    75  PRO75       0.1504
     83  C         -1.8110   17.9730  -12.4420 C.2    75  PRO75       0.2575
     84  O         -1.0670   18.9190  -12.7170 O.2    75  PRO75      -0.2718
     85  CB        -4.1730   18.2110  -13.3520 C.3    75  PRO75       0.0282
     86  CG        -5.1570   17.1990  -13.8190 C.3    75  PRO75       0.0208
     87  CD        -4.6600   15.9220  -13.1830 C.3    75  PRO75       0.0893
     88  N         -1.7450   17.3290  -11.2780 N.am   76  TYR76      -0.1977
     89  CA        -0.7100   17.7010  -10.3230 C.3    76  TYR76       0.1639
     90  C          0.6470   17.2350  -10.8220 C.2    76  TYR76       0.2290
     91  O          1.6480   17.9510  -10.6810 O.2    76  TYR76      -0.2864
     92  CB        -1.0370   17.1420   -8.9350 C.3    76  TYR76       0.0560
     93  CG        -2.1760   17.8500   -8.2340 C.ar   76  TYR76      -0.0198
     94  CD1       -2.0390   19.1790   -7.7700 C.ar   76  TYR76      -0.0009
     95  CD2       -3.4060   17.1930   -8.0130 C.ar   76  TYR76      -0.0009
     96  CE1       -3.0820   19.8350   -7.1110 C.ar   76  TYR76       0.0417
     97  CE2       -4.4430   17.8270   -7.3390 C.ar   76  TYR76       0.0417
     98  CZ        -4.2820   19.1540   -6.8980 C.ar   76  TYR76       0.1957
     99  OH        -5.2980   19.8010   -6.2440 O.3    76  TYR76      -0.2866
    100  N         -3.3470   24.4970  -15.5870 N.3    93  LEU93      -0.1245
    101  CA        -4.1640   24.4890  -14.3670 C.3    93  LEU93       0.1561
    102  C         -5.5020   25.2030  -14.5540 C.2    93  LEU93       0.2260
    103  O         -6.5400   24.7200  -14.0800 O.2    93  LEU93      -0.2867
    104  CB        -3.4110   25.1030  -13.1860 C.3    93  LEU93       0.0270
    105  CG        -2.2420   24.2740  -12.6220 C.3    93  LEU93       0.0019
    106  CD1       -1.4310   25.1860  -11.7060 C.3    93  LEU93       0.0001
    107  CD2       -2.7010   23.0120  -11.9060 C.3    93  LEU93       0.0001
    108  N         -7.9870   22.9440  -16.2470 N.3    96  VAL96      -0.1245
    109  CA        -8.6030   22.0190  -15.2730 C.3    96  VAL96       0.1561
    110  C         -9.8210   22.6690  -14.6090 C.2    96  VAL96       0.2260
    111  O        -10.9150   22.0860  -14.5930 O.2    96  VAL96      -0.2867
    112  CB        -7.5740   21.5470  -14.2180 C.3    96  VAL96       0.0252
    113  CG1       -8.2490   20.7210  -13.1310 C.3    96  VAL96       0.0019
    114  CG2       -6.4570   20.7460  -14.8860 C.3    96  VAL96       0.0019
    115  N        -12.7880   23.0850  -16.9520 N.3    99  GLN99      -0.1231
    116  CA       -13.4300   21.8100  -17.2830 C.3    99  GLN99       0.1698
    117  C        -14.5000   21.4000  -16.2650 C.2    99  GLN99       0.2592
    118  O        -15.3120   20.5180  -16.5430 O.2    99  GLN99      -0.2718
    119  CB       -12.3890   20.7170  -17.4970 C.3    99  GLN99       0.0381
    120  CG       -11.6930   20.8480  -18.8530 C.3    99  GLN99       0.0905
    121  CD       -10.4660   19.9790  -19.0230 C.2    99  GLN99       0.2608
    122  OE1       -9.9190   19.4500  -18.0500 O.2    99  GLN99      -0.2717
    123  NE2      -10.0030   19.8480  -20.2700 N.am   99  GLN99      -0.0878
    124  N        -14.5340   22.0690  -15.1160 N.am  100  HIS100     -0.1976
    125  CA       -15.5770   21.7990  -14.1170 C.3   100  HIS100      0.1656
    126  C        -16.8330   22.6510  -14.2790 C.2   100  HIS100      0.2291
    127  O        -17.8090   22.4260  -13.5720 O.2   100  HIS100     -0.2864
    128  CB       -15.0230   21.8990  -12.6970 C.3   100  HIS100      0.0771
    129  CG       -14.0100   20.8450  -12.3980 C.ar  100  HIS100      0.0820
    130  ND1      -12.7140   20.9130  -12.8680 N.ar  100  HIS100     -0.2267
    131  CD2      -14.1020   19.6890  -11.6970 C.ar  100  HIS100      0.1154
    132  CE1      -12.0570   19.8400  -12.4790 C.ar  100  HIS100      0.1986
    133  NE2      -12.8670   19.0940  -11.7460 N.ar  100  HIS100     -0.2212
    134  N        -19.9610   20.6740  -14.8420 N.3   103  VAL103     -0.1245
    135  CA       -20.3030   19.6650  -13.8380 C.3   103  VAL103      0.1561
    136  C        -21.4980   20.1280  -12.9970 C.2   103  VAL103      0.2260
    137  O        -21.3970   21.1130  -12.2700 O.2   103  VAL103     -0.2867
    138  CB       -19.1190   19.3100  -12.9200 C.3   103  VAL103      0.0252
    139  CG1      -19.5560   18.3160  -11.8550 C.3   103  VAL103      0.0019
    140  CG2      -17.9730   18.7330  -13.7350 C.3   103  VAL103      0.0019
    141  N        -21.4560   21.8600   -9.2310 N.3   106  PHE106     -0.1241
    142  CA       -20.1080   22.2580   -8.8460 C.3   106  PHE106      0.1605
    143  C        -20.0680   23.6880   -8.3260 C.2   106  PHE106      0.2264
    144  O        -20.7670   24.5630   -8.8380 O.2   106  PHE106     -0.2867
    145  CB       -19.1100   22.0860   -9.9980 C.3   106  PHE106      0.0534
    146  CG       -17.7390   21.7400   -9.5160 C.ar  106  PHE106     -0.0203
    147  CD1      -17.4250   20.4060   -9.2620 C.ar  106  PHE106     -0.0042
    148  CD2      -16.8040   22.7380   -9.2200 C.ar  106  PHE106     -0.0042
    149  CE1      -16.1850   20.0580   -8.7700 C.ar  106  PHE106     -0.0003
    150  CE2      -15.5480   22.3900   -8.7050 C.ar  106  PHE106     -0.0003
    151  CZ       -15.2490   21.0520   -8.4770 C.ar  106  PHE106     -0.0000
    152  N        -15.2140   24.1410   -3.9330 N.3   110  TYR110     -0.1227
    153  CA       -14.8960   22.7100   -3.8280 C.3   110  TYR110      0.1736
    154  C        -13.4380   22.3580   -4.1420 C.2   110  TYR110      0.2595
    155  O        -12.9240   21.3970   -3.5900 O.2   110  TYR110     -0.2718
    156  CB       -15.8340   21.8440   -4.6840 C.3   110  TYR110      0.0548
    157  CG       -17.3030   21.9180   -4.3200 C.ar  110  TYR110     -0.0200
    158  CD1      -17.7330   22.4260   -3.0770 C.ar  110  TYR110     -0.0009
    159  CD2      -18.2690   21.4510   -5.2150 C.ar  110  TYR110     -0.0009
    160  CE1      -19.0820   22.4830   -2.7540 C.ar  110  TYR110      0.0417
    161  CE2      -19.6220   21.4990   -4.9040 C.ar  110  TYR110      0.0417
    162  CZ       -20.0240   22.0020   -3.6760 C.ar  110  TYR110      0.1957
    163  OH       -21.3730   22.0420   -3.3800 O.3   110  TYR110     -0.2866
    164  N        -12.7790   23.1060   -5.0270 N.am  111  PHE111     -0.1976
    165  CA       -11.4070   22.7320   -5.3900 C.3   111  PHE111      0.1639
    166  C        -10.4670   22.6400   -4.1830 C.2   111  PHE111      0.2290
    167  O         -9.6480   21.7140   -4.0960 O.2   111  PHE111     -0.2864
    168  CB       -10.8180   23.7030   -6.4010 C.3   111  PHE111      0.0560
    169  CG       -11.5110   23.6880   -7.7250 C.ar  111  PHE111     -0.0200
    170  CD1      -11.4170   22.5790   -8.5620 C.ar  111  PHE111     -0.0042
    171  CD2      -12.2310   24.8040   -8.1480 C.ar  111  PHE111     -0.0042
    172  CE1      -12.0570   22.5660   -9.8010 C.ar  111  PHE111     -0.0003
    173  CE2      -12.8550   24.8190   -9.3980 C.ar  111  PHE111     -0.0003
    174  CZ       -12.7690   23.6910  -10.2270 C.ar  111  PHE111     -0.0000
    175  N        -10.9810   21.7030   -1.2750 N.3   113  ARG113     -0.1231
    176  CA       -11.1770   20.4360   -0.5490 C.3   113  ARG113      0.1694
    177  C        -10.1960   19.3410   -0.9780 C.2   113  ARG113      0.2591
    178  O         -9.8610   18.4630   -0.1950 O.2   113  ARG113     -0.2718
    179  CB       -12.6290   19.9340   -0.6900 C.3   113  ARG113      0.0321
    180  CG       -13.6450   20.8390   -0.0080 C.3   113  ARG113      0.0489
    181  CD       -15.0670   20.4610   -0.3830 C.3   113  ARG113      0.2205
    182  NE       -16.0100   21.1990    0.4510 N.pl3 113  ARG113     -0.0865
    183  CZ       -17.3220   20.9600    0.5060 C.cat 113  ARG113      0.5346
    184  NH1      -17.8710   19.9970   -0.2190 N.pl3 113  ARG113      0.1354
    185  NH2      -18.0860   21.6870    1.3050 N.pl3 113  ARG113      0.1354
    186  N         -9.7270   19.3960   -2.2240 N.am  114  MET114     -0.1979
    187  CA        -8.7520   18.4240   -2.7030 C.3   114  MET114      0.1605
    188  C         -7.3930   18.5440   -2.0300 C.2   114  MET114      0.2287
    189  O         -6.6720   17.5510   -1.9590 O.2   114  MET114     -0.2864
    190  CB        -8.5370   18.5540   -4.2140 C.3   114  MET114      0.0413
    191  CG        -7.9600   17.2870   -4.8520 C.3   114  MET114      0.0598
    192  SD        -9.0520   15.8300   -4.7660 S.3   114  MET114     -0.1393
    193  CE       -10.2050   16.1620   -6.1010 C.3   114  MET114      0.0692
    194  N         -6.3100   26.7410  -10.4450 N.3   149  ILE149     -0.1245
    195  CA        -7.4540   25.9360  -10.8750 C.3   149  ILE149      0.1561
    196  C         -8.7570   26.7050  -10.6400 C.2   149  ILE149      0.2260
    197  O         -9.5970   26.8340  -11.5500 O.2   149  ILE149     -0.2867
    198  CB        -7.4720   24.5600  -10.1650 C.3   149  ILE149      0.0252
    199  CG1       -6.2320   23.7630  -10.5790 C.3   149  ILE149      0.0019
    200  CG2       -8.7520   23.7930  -10.4980 C.3   149  ILE149      0.0019
    201  CD1       -6.0160   22.5120   -9.7470 C.3   149  ILE149      0.0001
@<TRIPOS>BOND
     1   123   121   am
     2   121   120    1
     3   121   122    2
     4   120   119    1
     5    59    58   ar
     6    60    58   ar
     7   119   116    1
     8    58    57    1
     9   116   115    1
    10   116   117    1
    11    51    50    1
    12   118   117    2
    13    57    56    1
    14    50    49    1
    15   117   124   am
    16   108   109    1
    17   100   101    1
    18    56    53    1
    19   109   110    1
    20   109   112    1
    21   124   125    1
    22   114   112    1
    23    49    48    1
    24   134   135    1
    25   110   111    2
    26   102   101    1
    27   102   103    2
    28    53    54    1
    29    53    52    1
    30    70    67    1
    31   101   104    1
    32   126   125    1
    33   126   127    2
    34   112   113    1
    35    55    54    2
    36    67    66    1
    37    67    68    1
    38   125   128    1
    39    48    47    1
    40    54    61   am
    41   135   136    1
    42   135   138    1
    43    86    85    1
    44    86    87    1
    45   140   138    1
    46    82    85    1
    47    82    81    1
    48    82    83    1
    49    69    68    2
    50    81    87    1
    51   104   105    1
    52    68    71   am
    53   136   137    2
    54   138   139    1
    55    61    62    1
    56   130   132   ar
    57   130   129   ar
    58    84    83    2
    59   128   129    1
    60   105   107    1
    61   105   106    1
    62    47    44    1
    63   132   133   ar
    64    83    88   am
    65   129   131   ar
    66    62    65    1
    67    62    63    1
    68    41    40    1
    69    41    42    1
    70    40    37    1
    71    71    72    1
    72   133   131   ar
    73    42    36    1
    74    44    43    1
    75    44    45    1
    76   197   196    2
    77    43    38   am
    78    63    64    2
    79    88    89    1
    80    79    77   ar
    81    79    80   ar
    82    77    76   ar
    83   195   196    1
    84   195   194    1
    85   195   198    1
    86    90    91    2
    87    90    89    1
    88    72    73    1
    89    72    75    1
    90    38    37    1
    91    38    39    2
    92    36    37    1
    93    36    27   am
    94   199   198    1
    95   199   201    1
    96    32    34   ar
    97    32    30   ar
    98   200   198    1
    99    34    35   ar
   100    20    19    2
   101    80    78   ar
   102    89    92    1
   103    73    74    2
   104   174   172   ar
   105   174   173   ar
   106    45    46    2
   107   145   146    1
   108   145   142    1
   109    76    78   ar
   110    76    75    1
   111    26    27    1
   112    26    29    1
   113    26    25    1
   114    27    28    2
   115   172   170   ar
   116   146   147   ar
   117   146   148   ar
   118    29    30    1
   119    30    31   ar
   120   173   171   ar
   121    35    33   ar
   122    19    25   am
   123    19    18    1
   124   147   149   ar
   125   141   142    1
   126   148   150   ar
   127    92    93    1
   128   142   143    1
   129   144   143    2
   130   149   151   ar
   131   150   151   ar
   132   170   169   ar
   133    31    33   ar
   134    93    95   ar
   135    93    94   ar
   136    18    21    1
   137    18    17    1
   138   171   169   ar
   139    95    97   ar
   140    21    22    1
   141    94    96   ar
   142   169   168    1
   143    24    22    1
   144    97    98   ar
   145    96    98   ar
   146    22    23    1
   147    98    99    1
   148   168   165    1
   149   193   192    1
   150   165   164    1
   151   165   166    1
   152    12    11    2
   153   159   161   ar
   154   159   157   ar
   155   164   154   am
   156   161   162   ar
   157   191   192    1
   158   191   190    1
   159   156   157    1
   160   156   153    1
   161   157   158   ar
   162   190   187    1
   163   166   167    2
   164   154   153    1
   165   154   155    2
   166    11    10    1
   167   152   153    1
   168     8     6    1
   169   162   163    1
   170   162   160   ar
   171    10    13    1
   172    10     9    1
   173    15    16    1
   174    15    14    1
   175   158   160   ar
   176    13    14    1
   177   187   186    1
   178   187   188    1
   179     6     5    1
   180     6     7    1
   181   186   177   am
   182   188   189    2
   183     5     2    1
   184   175   176    1
   185   177   176    1
   186   177   178    2
   187   179   176    1
   188   179   180    1
   189     2     1    1
   190     2     3    1
   191   181   180    1
   192   181   182    1
   193   184   183    1
   194     3     4    2
   195   182   183    2
   196   183   185    1
