@<TRIPOS>MOLECULE
tmp/5zj4A00.pdb
 94 90 0 0 0
SMALL
GASTEIGER

@<TRIPOS>ATOM
      1  N         53.5850   -5.6100  101.6680 N.3    36  TYR36      -0.1227
      2  CA        53.2180   -4.1960  101.6730 C.3    36  TYR36       0.1736
      3  C         53.0750   -3.6760  100.2690 C.2    36  TYR36       0.2595
      4  O         53.7880   -4.0840   99.3580 O.2    36  TYR36      -0.2718
      5  CB        54.3000   -3.3850  102.4520 C.3    36  TYR36       0.0548
      6  CG        54.5710   -3.9830  103.8010 C.ar   36  TYR36      -0.0200
      7  CD1       55.5170   -5.0200  103.9750 C.ar   36  TYR36      -0.0009
      8  CD2       53.7730   -3.6140  104.9050 C.ar   36  TYR36      -0.0009
      9  CE1       55.7030   -5.6290  105.2070 C.ar   36  TYR36       0.0417
     10  CE2       53.9900   -4.2130  106.1360 C.ar   36  TYR36       0.0417
     11  CZ        54.9300   -5.2050  106.2660 C.ar   36  TYR36       0.1957
     12  OH        55.1050   -5.8290  107.4660 O.3    36  TYR36      -0.2866
     13  N         52.1480   -2.7490  100.1100 N.am   37  ARG37      -0.1966
     14  CA        51.9720   -2.0980   98.8210 C.3    37  ARG37       0.1729
     15  C         51.6810   -0.6240   99.0470 C.2    37  ARG37       0.2616
     16  O         50.7380   -0.2830   99.7810 O.2    37  ARG37      -0.2715
     17  CB        50.7970   -2.7540   98.0520 C.3    37  ARG37       0.0348
     18  CG        50.4550   -1.9330   96.8190 C.3    37  ARG37       0.0492
     19  CD        49.4980   -2.7050   95.8490 C.3    37  ARG37       0.2205
     20  NE        49.1300   -1.7550   94.7830 N.pl3  37  ARG37      -0.0865
     21  CZ        49.9040   -1.4030   93.7700 C.cat  37  ARG37       0.5346
     22  NH1       51.0380   -2.0760   93.5100 N.pl3  37  ARG37       0.1354
     23  NH2       49.5110   -0.4220   92.9410 N.pl3  37  ARG37       0.1354
     24  N         52.4520    0.2510   98.3850 N.am   38  SER38      -0.1950
     25  CA        52.1610    1.6840   98.3400 C.3    38  SER38       0.1924
     26  C         51.1860    1.9400   97.2140 C.2    38  SER38       0.2314
     27  O         51.3570    1.4110   96.1100 O.2    38  SER38      -0.2863
     28  CB        53.4280    2.5060   98.0590 C.3    38  SER38       0.2116
     29  OG        54.2470    2.5100   99.2500 O.3    38  SER38      -0.2180
     30  N         52.0110   -5.3460   92.1590 N.3    77  SER77      -0.1202
     31  CA        53.2250   -5.4690   92.9620 C.3    77  SER77       0.2020
     32  C         53.0060   -5.2200   94.4650 C.2    77  SER77       0.2619
     33  O         52.2060   -4.3570   94.8740 O.2    77  SER77      -0.2717
     34  CB        54.2740   -4.4800   92.4620 C.3    77  SER77       0.2103
     35  OG        53.7270   -3.2210   92.5210 O.3    77  SER77      -0.2182
     36  N         53.7270   -6.0120   95.2620 N.am   78  THR78      -0.1938
     37  CA        53.8700   -5.7880   96.7040 C.3    78  THR78       0.2028
     38  C         55.3320   -6.0270   97.0310 C.2    78  THR78       0.2642
     39  O         56.1300   -6.4230   96.1580 O.2    78  THR78      -0.2714
     40  CB        53.0600   -6.8210   97.5190 C.3    78  THR78       0.1808
     41  OG1       53.5780   -8.1310   97.2560 O.3    78  THR78      -0.2208
     42  CG2       51.5690   -6.7700   97.1150 C.3    78  THR78       0.0379
     43  N         55.7110   -5.7540   98.2890 N.am   79  SER79      -0.1949
     44  CA        57.0860   -5.9640   98.7360 C.3    79  SER79       0.1924
     45  C         57.1030   -6.6990  100.0680 C.2    79  SER79       0.2314
     46  O         56.2370   -6.4820  100.9290 O.2    79  SER79      -0.2863
     47  CB        57.7640   -4.6110   98.8760 C.3    79  SER79       0.2116
     48  OG        59.0960   -4.7220   99.3810 O.3    79  SER79      -0.2180
     49  N         59.3870    0.0480  102.3960 N.3    84  LEU84      -0.1245
     50  CA        59.5180    0.5290  101.0080 C.3    84  LEU84       0.1561
     51  C         58.6890    1.7920  100.7940 C.2    84  LEU84       0.2260
     52  O         59.0280    2.6040   99.9110 O.2    84  LEU84      -0.2867
     53  CB        59.1400   -0.6090  100.0450 C.3    84  LEU84       0.0270
     54  CG        59.3710   -0.2690   98.5870 C.3    84  LEU84       0.0019
     55  CD1       60.7730    0.0790   98.2810 C.3    84  LEU84       0.0001
     56  CD2       58.9180   -1.4630   97.7100 C.3    84  LEU84       0.0001
     57  N         58.7900    5.3210   98.1460 N.3    88  TRP88      -0.1241
     58  CA        57.5950    5.7450   97.4160 C.3    88  TRP88       0.1605
     59  C         56.7190    6.6490   98.2650 C.2    88  TRP88       0.2264
     60  O         55.5100    6.5010   98.3560 O.2    88  TRP88      -0.2867
     61  CB        56.8630    4.5230   96.8890 C.3    88  TRP88       0.0550
     62  CG        57.7890    3.7580   95.9820 C.ar   88  TRP88       0.0003
     63  CD1       58.4900    2.6250   96.3200 C.ar   88  TRP88       0.0946
     64  CD2       58.1500    4.0660   94.6400 C.ar   88  TRP88       0.0152
     65  NE1       59.2550    2.2170   95.2610 N.ar   88  TRP88      -0.2442
     66  CE2       59.0590    3.0660   94.2090 C.ar   88  TRP88       0.0810
     67  CE3       57.7920    5.0870   93.7430 C.ar   88  TRP88       0.0012
     68  CZ2       59.6260    3.0640   92.9300 C.ar   88  TRP88       0.0191
     69  CZ3       58.3210    5.0550   92.4480 C.ar   88  TRP88       0.0001
     70  CH2       59.2420    4.0540   92.0630 C.ar   88  TRP88       0.0015
     71  N         53.2070    8.3810   97.3990 N.3    91  SER91      -0.1217
     72  CA        51.9830    7.5750   97.3860 C.3    91  SER91       0.1889
     73  C         51.4630    7.5710   98.8280 C.2    91  SER91       0.2288
     74  O         52.1610    7.1830   99.7850 O.2    91  SER91      -0.2866
     75  CB        52.2900    6.1570   96.9130 C.3    91  SER91       0.2089
     76  OG        52.9530    6.2050   95.6540 O.3    91  SER91      -0.2183
     77  N         63.8640   -3.7900   95.9090 N.3   118  GLN118     -0.1245
     78  CA        62.4880   -3.6620   96.3620 C.3   118  GLN118      0.1566
     79  C         61.8490   -4.9680   96.7480 C.2   118  GLN118      0.2260
     80  O         60.6660   -4.9350   97.1370 O.2   118  GLN118     -0.2867
     81  CB        61.6760   -2.9780   95.3040 C.3   118  GLN118      0.0367
     82  CG        62.3380   -1.5980   95.1030 C.3   118  GLN118      0.0905
     83  CD        61.3990   -0.5870   94.5410 C.2   118  GLN118      0.2608
     84  OE1       61.6800    0.5810   94.6450 O.2   118  GLN118     -0.2717
     85  NE2       60.3680   -1.0330   93.8240 N.am  118  GLN118     -0.0878
     86  N         60.3070   -7.6750   95.5990 N.3   120  GLU120     -0.1245
     87  CA        58.8910   -7.6460   95.2140 C.3   120  GLU120      0.1567
     88  C         58.2850   -9.0360   95.1660 C.2   120  GLU120      0.2260
     89  O         58.9370  -10.0200   94.8050 O.2   120  GLU120     -0.2867
     90  CB        58.7470   -6.9860   93.8560 C.3   120  GLU120      0.0388
     91  CG        59.1250   -5.5480   93.9540 C.3   120  GLU120      0.1160
     92  CD        58.8270   -4.7980   92.6660 C.2   120  GLU120      0.3649
     93  OE1       58.1680   -5.3660   91.7210 O.co2 120  GLU120     -0.2457
     94  OE2       59.2770   -3.6290   92.6100 O.co2 120  GLU120     -0.2457
@<TRIPOS>BOND
     1    93    92   ar
     2    70    69   ar
     3    70    68   ar
     4    30    31    1
     5    69    67   ar
     6    34    35    1
     7    34    31    1
     8    94    92   ar
     9    92    91    1
    10    68    66   ar
    11    23    21    1
    12    31    32    1
    13    22    21    1
    14    67    64   ar
    15    21    20    2
    16    85    83   am
    17    90    91    1
    18    90    87    1
    19    66    64   ar
    20    66    65   ar
    21    32    33    2
    22    32    36   am
    23    83    84    2
    24    83    82    1
    25    64    62   ar
    26    20    19    1
    27    89    88    2
    28    82    81    1
    29    88    87    1
    30    87    86    1
    31    65    63   ar
    32    36    37    1
    33    81    78    1
    34    76    75    1
    35    19    18    1
    36    77    78    1
    37    62    63   ar
    38    62    61    1
    39    27    26    2
    40    39    38    2
    41    78    79    1
    42    37    38    1
    43    37    40    1
    44    79    80    2
    45    18    17    1
    46    61    58    1
    47    75    72    1
    48    38    43   am
    49    42    40    1
    50    26    25    1
    51    41    40    1
    52    72    71    1
    53    72    73    1
    54    58    57    1
    55    58    59    1
    56    56    54    1
    57    17    14    1
    58    28    25    1
    59    28    29    1
    60    59    60    2
    61    55    54    1
    62    43    44    1
    63    25    24    1
    64    24    15   am
    65    54    53    1
    66    44    47    1
    67    44    45    1
    68    14    15    1
    69    14    13    1
    70    73    74    2
    71    47    48    1
    72    15    16    2
    73     4     3    2
    74    52    51    2
    75    53    50    1
    76    45    46    2
    77    13     3   am
    78     3     2    1
    79    51    50    1
    80    50    49    1
    81     1     2    1
    82     2     5    1
    83     5     6    1
    84     6     7   ar
    85     6     8   ar
    86     7     9   ar
    87     8    10   ar
    88     9    11   ar
    89    10    11   ar
    90    11    12    1
