@<TRIPOS>MOLECULE
tmp/5zj5B00.pdb
 192 188 0 0 0
SMALL
GASTEIGER

@<TRIPOS>ATOM
      1  N        -99.0520   24.2980   18.0560 N.3    36  TYR36      -0.1227
      2  CA       -98.8980   23.3660   19.1680 C.3    36  TYR36       0.1736
      3  C        -97.7090   22.4590   18.9470 C.2    36  TYR36       0.2595
      4  O        -97.4130   22.0830   17.8200 O.2    36  TYR36      -0.2718
      5  CB      -100.1900   22.5310   19.3290 C.3    36  TYR36       0.0548
      6  CG      -101.3610   23.4610   19.4250 C.ar   36  TYR36      -0.0200
      7  CD1     -102.0400   23.8670   18.2730 C.ar   36  TYR36      -0.0009
      8  CD2     -101.7870   23.9620   20.6560 C.ar   36  TYR36      -0.0009
      9  CE1     -103.0880   24.7630   18.3330 C.ar   36  TYR36       0.0417
     10  CE2     -102.8370   24.8490   20.7350 C.ar   36  TYR36       0.0417
     11  CZ      -103.4940   25.2480   19.5770 C.ar   36  TYR36       0.1957
     12  OH      -104.5390   26.1640   19.5650 O.3    36  TYR36      -0.2866
     13  N        -97.0440   22.1000   20.0350 N.am   37  ARG37      -0.1966
     14  CA       -95.9330   21.1530   19.9560 C.3    37  ARG37       0.1729
     15  C        -96.0180   20.2210   21.1530 C.2    37  ARG37       0.2617
     16  O        -95.9740   20.6830   22.3060 O.2    37  ARG37      -0.2715
     17  CB       -94.5650   21.8530   19.9320 C.3    37  ARG37       0.0348
     18  CG       -93.4230   20.8270   20.0510 C.3    37  ARG37       0.0492
     19  CD       -92.0430   21.4700   19.8080 C.3    37  ARG37       0.2205
     20  NE       -91.0420   20.4570   20.1330 N.pl3  37  ARG37      -0.0865
     21  CZ       -90.6770   19.4460   19.3850 C.cat  37  ARG37       0.5346
     22  NH1      -91.1250   19.3090   18.1230 N.pl3  37  ARG37       0.1354
     23  NH2      -89.8390   18.5640   19.9070 N.pl3  37  ARG37       0.1354
     24  N        -96.1230   18.9270   20.8640 N.am   38  SER38      -0.1936
     25  CA       -95.9580   17.9030   21.8960 C.3    38  SER38       0.2055
     26  C        -94.4920   17.6950   22.1840 C.2    38  SER38       0.2643
     27  O        -93.7110   17.4670   21.2590 O.2    38  SER38      -0.2714
     28  CB       -96.5280   16.5670   21.4130 C.3    38  SER38       0.2130
     29  OG       -97.9220   16.5810   21.4920 O.3    38  SER38      -0.2179
     30  N        -94.1170   17.7420   23.4700 N.am   39  ASP39      -0.1957
     31  CA       -92.7220   17.5320   23.8370 C.3    39  ASP39       0.1840
     32  C        -92.7090   16.8530   25.1950 C.2    39  ASP39       0.2623
     33  O        -93.5950   17.0960   26.0100 O.2    39  ASP39      -0.2715
     34  CB       -91.9900   18.8820   23.8420 C.3    39  ASP39       0.1450
     35  CG       -90.4900   18.7400   23.7270 C.2    39  ASP39       0.3671
     36  OD1      -89.8620   18.2010   24.6730 O.co2  39  ASP39      -0.2456
     37  OD2      -89.8880   19.1340   22.7200 O.co2  39  ASP39      -0.2456
     38  N        -91.7680   15.9230   25.3930 N.am   40  SER40      -0.1936
     39  CA       -91.7280   15.2240   26.6590 C.3    40  SER40       0.2055
     40  C        -91.0300   16.0380   27.7240 C.2    40  SER40       0.2642
     41  O        -91.1590   15.6980   28.9000 O.2    40  SER40      -0.2714
     42  CB       -91.0420   13.8790   26.5050 C.3    40  SER40       0.2130
     43  OG       -89.6830   14.0740   26.1820 O.3    40  SER40      -0.2179
     44  N        -90.3210   17.1000   27.3500 N.am   41  ARG41      -0.1977
     45  CA       -89.6270   17.9090   28.3410 C.3    41  ARG41       0.1597
     46  C        -90.6120   18.8370   29.0200 C.2    41  ARG41       0.2287
     47  O        -91.5440   19.3680   28.3960 O.2    41  ARG41      -0.2864
     48  CB       -88.4720   18.6980   27.7220 C.3    41  ARG41       0.0334
     49  CG       -87.4330   17.8430   27.0240 C.3    41  ARG41       0.0492
     50  CD       -86.4980   18.6740   26.1920 C.3    41  ARG41       0.2205
     51  NE       -87.1580   19.1370   24.9640 N.pl3  41  ARG41      -0.0865
     52  CZ       -86.6230   20.0010   24.1190 C.cat  41  ARG41       0.5346
     53  NH1      -85.4040   20.4580   24.3320 N.pl3  41  ARG41       0.1354
     54  NH2      -87.2920   20.3680   23.0400 N.pl3  41  ARG41       0.1354
     55  N        -85.3280   27.3750   28.0320 N.3    49  GLU49      -0.1245
     56  CA       -84.4640   27.1850   26.8710 C.3    49  GLU49       0.1567
     57  C        -85.1370   27.5040   25.5360 C.2    49  GLU49       0.2260
     58  O        -84.4110   27.8000   24.5730 O.2    49  GLU49      -0.2867
     59  CB       -83.9410   25.7390   26.7900 C.3    49  GLU49       0.0388
     60  CG       -83.3250   25.2610   28.0840 C.3    49  GLU49       0.1160
     61  CD       -82.7920   23.8340   28.0330 C.2    49  GLU49       0.3649
     62  OE1      -83.0810   23.1010   27.0500 O.co2  49  GLU49      -0.2457
     63  OE2      -82.0980   23.4510   29.0160 O.co2  49  GLU49      -0.2457
     64  N        -84.9000   24.3840   20.7700 N.3    52  HIS52      -0.1226
     65  CA       -83.7620   24.4520   19.8530 C.3    52  HIS52       0.1752
     66  C        -83.8330   23.2920   18.8820 C.2    52  HIS52       0.2596
     67  O        -84.3170   22.2060   19.2150 O.2    52  HIS52      -0.2718
     68  CB       -82.4530   24.4080   20.6480 C.3    52  HIS52       0.0759
     69  CG       -82.1930   25.6640   21.4160 C.ar   52  HIS52       0.0818
     70  ND1      -81.2710   26.6040   21.0070 N.ar   52  HIS52      -0.2268
     71  CD2      -82.7780   26.1670   22.5380 C.ar   52  HIS52       0.1154
     72  CE1      -81.2580   27.6090   21.8680 C.ar   52  HIS52       0.1986
     73  NE2      -82.1570   27.3680   22.8100 N.ar   52  HIS52      -0.2212
     74  N        -83.3130   23.5090   17.6780 N.am   53  ALA53      -0.1966
     75  CA       -83.2720   22.4160   16.7300 C.3    53  ALA53       0.1728
     76  C        -82.0680   21.5270   16.9940 C.2    53  ALA53       0.2616
     77  O        -81.0150   21.9880   17.4590 O.2    53  ALA53      -0.2715
     78  CB       -83.2230   22.9450   15.3020 C.3    53  ALA53       0.0334
     79  N        -82.2000   20.2510   16.6080 N.am   54  LYS54      -0.1977
     80  CA       -81.1690   19.2690   16.9540 C.3    54  LYS54       0.1596
     81  C        -79.8930   19.4500   16.1290 C.2    54  LYS54       0.2287
     82  O        -78.7890   19.2530   16.6560 O.2    54  LYS54      -0.2864
     83  CB       -81.7370   17.8540   16.8050 C.3    54  LYS54       0.0298
     84  CG       -82.6620   17.4370   17.9660 C.3    54  LYS54       0.0038
     85  CD       -83.2430   16.0140   17.8000 C.3    54  LYS54       0.0206
     86  CE       -84.0180   15.5730   19.0810 C.3    54  LYS54       0.1093
     87  NZ       -84.7810   14.2410   19.0250 N.3    54  LYS54      -0.1314
     88  N        -87.2160   14.7090    6.1520 N.3    66  TYR66      -0.1227
     89  CA       -87.3220   14.8670    7.6050 C.3    66  TYR66       0.1736
     90  C        -88.7130   14.4900    8.1160 C.2    66  TYR66       0.2595
     91  O        -88.8470   13.9270    9.2100 O.2    66  TYR66      -0.2718
     92  CB       -86.9790   16.3080    7.9650 C.3    66  TYR66       0.0548
     93  CG       -87.4770   16.7310    9.3130 C.ar   66  TYR66      -0.0200
     94  CD1      -86.8770   16.2450   10.4500 C.ar   66  TYR66      -0.0009
     95  CD2      -88.5330   17.6150    9.4380 C.ar   66  TYR66      -0.0009
     96  CE1      -87.2980   16.6210   11.6920 C.ar   66  TYR66       0.0417
     97  CE2      -88.9670   18.0020   10.6970 C.ar   66  TYR66       0.0417
     98  CZ       -88.3400   17.4790   11.8080 C.ar   66  TYR66       0.1957
     99  OH       -88.7220   17.8050   13.0910 O.3    66  TYR66      -0.2866
    100  N        -89.7600   14.8150    7.3490 N.am   67  VAL67      -0.1980
    101  CA       -91.1360   14.5110    7.7440 C.3    67  VAL67       0.1595
    102  C        -91.4290   13.0150    7.6230 C.2    67  VAL67       0.2287
    103  O        -92.1750   12.4430    8.4290 O.2    67  VAL67      -0.2864
    104  CB       -92.1050   15.3400    6.8750 C.3    67  VAL67       0.0276
    105  CG1      -93.4990   14.7610    6.9300 C.3    67  VAL67       0.0022
    106  CG2      -92.0680   16.7880    7.2820 C.3    67  VAL67       0.0022
    107  N        -88.0580   10.8210   10.8720 N.3    70  ASN70      -0.1240
    108  CA       -87.4590   11.7050   11.8620 C.3    70  ASN70       0.1653
    109  C        -85.9700   11.3980   11.9980 C.2    70  ASN70       0.2266
    110  O        -85.5540   10.2330   11.9860 O.2    70  ASN70      -0.2867
    111  CB       -88.1760   11.5630   13.2070 C.3    70  ASN70       0.1155
    112  CG       -87.8950   12.7230   14.1500 C.2    70  ASN70       0.2627
    113  OD1      -87.4660   13.7960   13.7330 O.2    70  ASN70      -0.2716
    114  ND2      -88.1360   12.5010   15.4390 N.am   70  ASN70      -0.0877
    115  N        -84.8830   21.8380   11.9530 N.3    75  TYR75      -0.1227
    116  CA       -86.2830   22.1750   12.1490 C.3    75  TYR75       0.1736
    117  C        -86.7980   21.7200   13.4980 C.2    75  TYR75       0.2595
    118  O        -86.4460   20.6390   14.0020 O.2    75  TYR75      -0.2718
    119  CB       -87.1580   21.5310   11.0850 C.3    75  TYR75       0.0548
    120  CG       -86.6850   21.7980    9.6950 C.ar   75  TYR75      -0.0200
    121  CD1      -86.7430   23.1060    9.1850 C.ar   75  TYR75      -0.0009
    122  CD2      -86.1960   20.7620    8.8910 C.ar   75  TYR75      -0.0009
    123  CE1      -86.2890   23.3850    7.9050 C.ar   75  TYR75       0.0417
    124  CE2      -85.7720   21.0230    7.5900 C.ar   75  TYR75       0.0417
    125  CZ       -85.8080   22.3390    7.1120 C.ar   75  TYR75       0.1957
    126  OH       -85.3660   22.5840    5.8350 O.3    75  TYR75      -0.2866
    127  N        -87.7310   22.5090   14.0330 N.am   76  VAL76      -0.1966
    128  CA       -88.5430   22.0870   15.1730 C.3    76  VAL76       0.1727
    129  C        -89.9680   22.0160   14.6710 C.2    76  VAL76       0.2617
    130  O        -90.5010   23.0070   14.1380 O.2    76  VAL76      -0.2715
    131  CB       -88.4500   23.0490   16.3670 C.3    76  VAL76       0.0290
    132  CG1      -89.4860   22.7000   17.4280 C.3    76  VAL76       0.0023
    133  CG2      -87.0590   23.0090   17.0250 C.3    76  VAL76       0.0023
    134  N        -90.5880   20.8590   14.8700 N.am   77  SER77      -0.1936
    135  CA       -91.9460   20.6230   14.4010 C.3    77  SER77       0.2055
    136  C        -92.9840   21.1790   15.3560 C.2    77  SER77       0.2644
    137  O        -92.8760   21.0430   16.5720 O.2    77  SER77      -0.2714
    138  CB       -92.2260   19.1450   14.1900 C.3    77  SER77       0.2130
    139  OG       -92.0260   18.4270   15.3800 O.3    77  SER77      -0.2179
    140  N        -94.0170   21.7810   14.7690 N.am   78  THR78      -0.1936
    141  CA       -95.2500   22.1780   15.4590 C.3    78  THR78       0.2028
    142  C        -96.4310   21.7990   14.5650 C.2    78  THR78       0.2642
    143  O        -96.2580   21.3910   13.4030 O.2    78  THR78      -0.2714
    144  CB       -95.3070   23.6750   15.7290 C.3    78  THR78       0.1808
    145  OG1      -95.4070   24.3840   14.4770 O.3    78  THR78      -0.2208
    146  CG2      -94.0780   24.1510   16.4910 C.3    78  THR78       0.0379
    147  N        -97.6560   21.9640   15.0990 N.am   79  SER79      -0.1949
    148  CA       -98.8380   21.6410   14.3340 C.3    79  SER79       0.1924
    149  C        -99.8830   22.7430   14.4360 C.2    79  SER79       0.2314
    150  O        -99.9990   23.4170   15.4630 O.2    79  SER79      -0.2863
    151  CB       -99.4520   20.3000   14.8290 C.3    79  SER79       0.2116
    152  OG      -100.6640   20.0270   14.1410 O.3    79  SER79      -0.2180
    153  N       -103.3220   17.3790   18.1710 N.3    84  LEU84      -0.1245
    154  CA      -102.3430   16.3970   17.6950 C.3    84  LEU84       0.1561
    155  C       -101.7090   15.6450   18.8580 C.2    84  LEU84       0.2260
    156  O       -101.3300   14.4840   18.6940 O.2    84  LEU84      -0.2867
    157  CB      -101.2790   17.0770   16.8180 C.3    84  LEU84       0.0270
    158  CG      -100.3070   16.0510   16.2170 C.3    84  LEU84       0.0019
    159  CD1     -100.9930   15.0380   15.3790 C.3    84  LEU84       0.0001
    160  CD2      -99.2200   16.7420   15.4220 C.3    84  LEU84       0.0001
    161  N        -97.7640   11.4510    6.7200 N.3   111  TRP111     -0.1241
    162  CA       -98.1330   12.1380    7.9480 C.3   111  TRP111      0.1605
    163  C        -98.8670   13.4470    7.7050 C.2   111  TRP111      0.2264
    164  O        -98.8090   14.3310    8.5580 O.2   111  TRP111     -0.2867
    165  CB       -96.8840   12.3740    8.7910 C.3   111  TRP111      0.0550
    166  CG       -96.0120   11.1530    8.9510 C.ar  111  TRP111      0.0003
    167  CD1      -94.8350   10.8890    8.2990 C.ar  111  TRP111      0.0946
    168  CD2      -96.2430   10.0430    9.8250 C.ar  111  TRP111      0.0152
    169  NE1      -94.3260    9.6790    8.7140 N.ar  111  TRP111     -0.2442
    170  CE2      -95.1710    9.1420    9.6510 C.ar  111  TRP111      0.0810
    171  CE3      -97.2520    9.7230   10.7340 C.ar  111  TRP111      0.0012
    172  CZ2      -95.0820    7.9460   10.3510 C.ar  111  TRP111      0.0191
    173  CZ3      -97.1640    8.5350   11.4250 C.ar  111  TRP111      0.0001
    174  CH2      -96.0870    7.6630   11.2350 C.ar  111  TRP111      0.0015
    175  N       -100.9540   15.5310   10.1960 N.3   114  GLN114     -0.1245
    176  CA      -100.2810   16.2400   11.2760 C.3   114  GLN114      0.1566
    177  C       -100.2560   17.7420   11.0670 C.2   114  GLN114      0.2260
    178  O        -99.8950   18.4600   12.0070 O.2   114  GLN114     -0.2867
    179  CB       -98.8530   15.7260   11.4580 C.3   114  GLN114      0.0367
    180  CG       -98.8040   14.2950   11.9630 C.3   114  GLN114      0.0905
    181  CD       -97.3930   13.7880   12.1380 C.2   114  GLN114      0.2608
    182  OE1      -96.4560   14.2310   11.4470 O.2   114  GLN114     -0.2717
    183  NE2      -97.2270   12.8360   13.0450 N.am  114  GLN114     -0.0878
    184  N        -98.4000   20.1110    9.7860 N.3   116  GLU116     -0.1245
    185  CA       -97.2300   20.5860   10.4930 C.3   116  GLU116      0.1567
    186  C        -96.7510   21.9440    9.9980 C.2   116  GLU116      0.2260
    187  O        -96.8870   22.2880    8.8070 O.2   116  GLU116     -0.2867
    188  CB       -96.1250   19.5370   10.3160 C.3   116  GLU116      0.0388
    189  CG       -94.8230   19.7530   11.0060 C.3   116  GLU116      0.1160
    190  CD       -93.8970   18.5840   10.7550 C.2   116  GLU116      0.3649
    191  OE1      -94.3450   17.5420   10.2190 O.co2 116  GLU116     -0.2457
    192  OE2      -92.7060   18.7080   11.0780 O.co2 116  GLU116     -0.2457
@<TRIPOS>BOND
     1   126   125    1
     2    88    89    1
     3   161   162    1
     4   104   105    1
     5   104   106    1
     6   104   101    1
     7   125   124   ar
     8   125   123   ar
     9   100   101    1
    10   100    90   am
    11   124   122   ar
    12    89    92    1
    13    89    90    1
    14   102   101    1
    15   102   103    2
    16   163   162    1
    17   163   164    2
    18   123   121   ar
    19   162   165    1
    20    92    93    1
    21    90    91    2
    22   167   169   ar
    23   167   166   ar
    24   169   170   ar
    25   165   166    1
    26   187   186    2
    27   122   120   ar
    28   166   168   ar
    29   121   120   ar
    30    93    95   ar
    31    93    94   ar
    32    95    97   ar
    33   170   168   ar
    34   170   172   ar
    35   120   119    1
    36   184   185    1
    37   168   171   ar
    38   186   185    1
    39   175   176    1
    40   191   190   ar
    41   188   185    1
    42   188   189    1
    43   172   174   ar
    44    94    96   ar
    45    97    98   ar
    46   171   173   ar
    47   190   189    1
    48   190   192   ar
    49   107   108    1
    50   177   176    1
    51   177   178    2
    52   119   116    1
    53   174   173   ar
    54   176   179    1
    55   182   181    2
    56   179   180    1
    57    96    98   ar
    58    98    99    1
    59   108   109    1
    60   108   111    1
    61   115   116    1
    62   180   181    1
    63   110   109    2
    64   181   183   am
    65   116   117    1
    66   111   112    1
    67   143   142    2
    68   117   118    2
    69   117   127   am
    70   113   112    2
    71   127   128    1
    72   130   129    2
    73   152   151    1
    74   112   114   am
    75   138   135    1
    76   138   139    1
    77   148   149    1
    78   148   151    1
    79   148   147    1
    80   135   134    1
    81   135   136    1
    82   149   150    2
    83   145   144    1
    84   142   147   am
    85   142   141    1
    86   129   134   am
    87   129   128    1
    88   140   136   am
    89   140   141    1
    90   128   131    1
    91    78    75    1
    92   136   137    2
    93   159   158    1
    94   160   158    1
    95   141   144    1
    96   144   146    1
    97    81    82    2
    98    81    80    1
    99   158   157    1
   100   131   133    1
   101   131   132    1
   102    79    80    1
   103    79    76   am
   104    75    76    1
   105    75    74    1
   106    83    80    1
   107    83    84    1
   108   157   154    1
   109    76    77    2
   110    74    66   am
   111   154   153    1
   112   154   155    1
   113    85    84    1
   114    85    86    1
   115     4     3    2
   116     1     2    1
   117    22    21    1
   118     7     9   ar
   119     7     6   ar
   120     9    11   ar
   121   156   155    2
   122    66    67    2
   123    66    65    1
   124     3     2    1
   125     3    13   am
   126    87    86    1
   127     2     5    1
   128     5     6    1
   129    21    23    1
   130    21    20    2
   131     6     8   ar
   132    12    11    1
   133    11    10   ar
   134    19    18    1
   135    19    20    1
   136    65    68    1
   137    65    64    1
   138    17    14    1
   139    17    18    1
   140    14    13    1
   141    14    15    1
   142    68    69    1
   143     8    10   ar
   144    24    15   am
   145    24    25    1
   146    70    69   ar
   147    70    72   ar
   148    15    16    2
   149    27    26    2
   150    28    29    1
   151    28    25    1
   152    69    71   ar
   153    72    73   ar
   154    25    26    1
   155    26    30   am
   156    71    73   ar
   157    37    35   ar
   158    54    52    1
   159    30    31    1
   160    35    34    1
   161    35    36   ar
   162    31    34    1
   163    31    32    1
   164    52    53    1
   165    52    51    2
   166    58    57    2
   167    51    50    1
   168    32    38   am
   169    32    33    2
   170    38    39    1
   171    57    56    1
   172    43    42    1
   173    50    49    1
   174    42    39    1
   175    39    40    1
   176    59    56    1
   177    59    60    1
   178    56    55    1
   179    49    48    1
   180    62    61   ar
   181    44    40   am
   182    44    45    1
   183    48    45    1
   184    40    41    2
   185    61    60    1
   186    61    63   ar
   187    45    46    1
   188    47    46    2
