@<TRIPOS>MOLECULE
tmp/5zj5A01.pdb
 116 117 0 0 0
SMALL
GASTEIGER

@<TRIPOS>ATOM
      1  N       -129.9060   33.1740   11.9540 N.3    66  TYR66      -0.1227
      2  CA      -129.2820   33.2560   13.2660 C.3    66  TYR66       0.1736
      3  C       -127.8370   33.7000   13.1640 C.2    66  TYR66       0.2595
      4  O       -127.3990   34.5870   13.9040 O.2    66  TYR66      -0.2718
      5  CB      -129.3750   31.9050   13.9690 C.3    66  TYR66       0.0548
      6  CG      -128.6110   31.8760   15.2600 C.ar   66  TYR66      -0.0200
      7  CD1     -128.9970   32.6850   16.3220 C.ar   66  TYR66      -0.0009
      8  CD2     -127.5020   31.0790   15.3860 C.ar   66  TYR66      -0.0009
      9  CE1     -128.3190   32.6920   17.4940 C.ar   66  TYR66       0.0417
     10  CE2     -126.7990   31.0780   16.5850 C.ar   66  TYR66       0.0417
     11  CZ      -127.2030   31.8870   17.6130 C.ar   66  TYR66       0.1957
     12  OH      -126.4910   31.8860   18.8120 O.3    66  TYR66      -0.2866
     13  N       -127.0780   33.0970   12.2450 N.am   67  VAL67      -0.1966
     14  CA      -125.6530   33.4140   12.1150 C.3    67  VAL67       0.1727
     15  C       -125.4590   34.8640   11.7060 C.2    67  VAL67       0.2616
     16  O       -124.5470   35.5430   12.1820 O.2    67  VAL67      -0.2715
     17  CB      -124.9980   32.4480   11.1130 C.3    67  VAL67       0.0290
     18  CG1     -123.6090   32.9540   10.6840 C.3    67  VAL67       0.0023
     19  CG2     -124.9050   31.1070   11.7860 C.3    67  VAL67       0.0023
     20  N       -126.2890   35.3580   10.8010 N.am   68  LEU68      -0.1963
     21  CA      -126.1040   36.7030   10.2930 C.3    68  LEU68       0.1728
     22  C       -126.5250   37.7520   11.3240 C.2    68  LEU68       0.2616
     23  O       -125.9500   38.8470   11.3560 O.2    68  LEU68      -0.2715
     24  CB      -126.8680   36.8540    8.9680 C.3    68  LEU68       0.0311
     25  CG      -126.0100   36.4430    7.7620 C.3    68  LEU68       0.0022
     26  CD1     -124.7880   37.3380    7.6820 C.3    68  LEU68       0.0001
     27  CD2     -125.5560   34.9800    7.7160 C.3    68  LEU68       0.0001
     28  N       -127.5000   37.4530   12.1840 N.am   69  VAL69      -0.1963
     29  CA      -127.9380   38.4100   13.2140 C.3    69  VAL69       0.1727
     30  C       -128.2140   37.6300   14.4950 C.2    69  VAL69       0.2616
     31  O       -129.2370   36.9510   14.5950 O.2    69  VAL69      -0.2715
     32  CB      -129.2050   39.1920   12.8020 C.3    69  VAL69       0.0290
     33  CG1     -129.7570   40.0490   13.9730 C.3    69  VAL69       0.0023
     34  CG2     -128.9600   40.0750   11.5460 C.3    69  VAL69       0.0023
     35  N       -127.3410   37.7600   15.4890 N.am   70  ASN70      -0.1972
     36  CA      -127.5820   37.0950   16.7600 C.3    70  ASN70       0.1688
     37  C       -128.9560   37.4890   17.2950 C.2    70  ASN70       0.2292
     38  O       -129.3190   38.6760   17.3030 O.2    70  ASN70      -0.2864
     39  CB      -126.4650   37.4760   17.7210 C.3    70  ASN70       0.1181
     40  CG      -126.5050   36.7240   19.0100 C.2    70  ASN70       0.2629
     41  OD1     -127.3040   35.8280   19.2050 O.2    70  ASN70      -0.2716
     42  ND2     -125.6130   37.0920   19.9170 N.am   70  ASN70      -0.0877
     43  N       -111.3640   37.5640   19.1250 N.3    87  THR87      -0.1203
     44  CA      -112.1280   38.5630   18.3930 C.3    87  THR87       0.1994
     45  C       -113.2160   39.2040   19.2440 C.2    87  THR87       0.2618
     46  O       -113.8940   40.1350   18.7790 O.2    87  THR87      -0.2717
     47  CB      -112.7440   37.9200   17.1190 C.3    87  THR87       0.1784
     48  OG1     -113.7020   36.9210   17.5070 O.3    87  THR87      -0.2211
     49  CG2     -111.6330   37.2580   16.2740 C.3    87  THR87       0.0376
     50  N       -113.4010   38.7370   20.4770 N.am   88  TRP88      -0.1961
     51  CA      -114.3120   39.3560   21.4350 C.3    88  TRP88       0.1771
     52  C       -113.6200   40.5160   22.1410 C.2    88  TRP88       0.2620
     53  O       -112.4290   40.4440   22.4630 O.2    88  TRP88      -0.2715
     54  CB      -114.7250   38.3210   22.4920 C.3    88  TRP88       0.0590
     55  CG      -116.0130   37.5400   22.1780 C.ar   88  TRP88       0.0006
     56  CD1     -117.1810   37.5990   22.8690 C.ar   88  TRP88       0.0946
     57  CD2     -116.2080   36.5870   21.1330 C.ar   88  TRP88       0.0152
     58  NE1     -118.1200   36.7500   22.2970 N.ar   88  TRP88      -0.2442
     59  CE2     -117.5290   36.0950   21.2450 C.ar   88  TRP88       0.0810
     60  CE3     -115.3860   36.0780   20.1220 C.ar   88  TRP88       0.0012
     61  CZ2     -118.0720   35.1740   20.3160 C.ar   88  TRP88       0.0191
     62  CZ3     -115.9080   35.1620   19.2340 C.ar   88  TRP88       0.0001
     63  CH2     -117.2380   34.7180   19.3330 C.ar   88  TRP88       0.0015
     64  N       -114.3630   41.5780   22.4180 N.am   89  TYR89      -0.1960
     65  CA      -113.8320   42.5970   23.3210 C.3    89  TYR89       0.1771
     66  C       -113.7280   42.0200   24.7150 C.2    89  TYR89       0.2619
     67  O       -112.6630   42.0690   25.3470 O.2    89  TYR89      -0.2715
     68  CB      -114.7070   43.8590   23.3390 C.3    89  TYR89       0.0574
     69  CG      -114.1650   44.9510   24.2590 C.ar   89  TYR89      -0.0198
     70  CD1     -112.8520   45.3750   24.1800 C.ar   89  TYR89      -0.0009
     71  CD2     -114.9590   45.5300   25.2540 C.ar   89  TYR89      -0.0009
     72  CE1     -112.3530   46.3470   25.0530 C.ar   89  TYR89       0.0417
     73  CE2     -114.4510   46.4820   26.1080 C.ar   89  TYR89       0.0417
     74  CZ      -113.1520   46.8630   26.0150 C.ar   89  TYR89       0.1957
     75  OH      -112.6280   47.8350   26.8440 O.3    89  TYR89      -0.2866
     76  N       -114.8210   41.4490   25.2110 N.am   90  LYS90      -0.1977
     77  CA      -114.8250   40.8330   26.5570 C.3    90  LYS90       0.1596
     78  C       -115.2630   39.3720   26.4300 C.2    90  LYS90       0.2287
     79  O       -116.4390   39.0520   26.6500 O.2    90  LYS90      -0.2864
     80  CB      -115.7340   41.5930   27.4950 C.3    90  LYS90       0.0298
     81  CG      -115.2200   42.9940   27.8310 C.3    90  LYS90       0.0038
     82  CD      -116.2160   43.7310   28.7580 C.3    90  LYS90       0.0206
     83  CE      -115.6300   44.9610   29.3770 C.3    90  LYS90       0.1093
     84  NZ      -116.7000   45.6560   30.1780 N.3    90  LYS90      -0.1314
     85  N       -118.9040   36.7380    8.5730 N.3   115  TRP115     -0.1241
     86  CA      -118.6320   35.9000    9.7330 C.3   115  TRP115      0.1605
     87  C       -118.1160   34.5060    9.3650 C.2   115  TRP115      0.2264
     88  O       -117.9490   33.6940   10.2730 O.2   115  TRP115     -0.2867
     89  CB      -119.8560   35.6700   10.6450 C.3   115  TRP115      0.0550
     90  CG      -120.7850   36.8140   10.8840 C.ar  115  TRP115      0.0003
     91  CD1     -122.1050   36.9110   10.5130 C.ar  115  TRP115      0.0946
     92  CD2     -120.4760   38.0180   11.5730 C.ar  115  TRP115      0.0152
     93  NE1     -122.6240   38.1010   10.9330 N.ar  115  TRP115     -0.2442
     94  CE2     -121.6450   38.8020   11.5900 C.ar  115  TRP115      0.0810
     95  CE3     -119.3220   38.5080   12.1810 C.ar  115  TRP115      0.0012
     96  CZ2     -121.6970   40.0580   12.1960 C.ar  115  TRP115      0.0191
     97  CZ3     -119.3710   39.7630   12.7780 C.ar  115  TRP115      0.0001
     98  CH2     -120.5500   40.5200   12.7860 C.ar  115  TRP115      0.0015
     99  N       -115.4940   32.7660   11.5000 N.3   118  GLN118     -0.1245
    100  CA      -115.7810   32.1550   12.7860 C.3   118  GLN118      0.1566
    101  C       -115.7480   30.6370   12.7390 C.2   118  GLN118      0.2260
    102  O       -115.8160   30.0060   13.8040 O.2   118  GLN118     -0.2867
    103  CB      -117.1480   32.6160   13.2750 C.3   118  GLN118      0.0367
    104  CG      -117.1950   34.1370   13.5390 C.3   118  GLN118      0.0905
    105  CD      -118.5250   34.5700   14.1260 C.2   118  GLN118      0.2608
    106  OE1     -119.5710   34.1050   13.6990 O.2   118  GLN118     -0.2717
    107  NE2     -118.4910   35.4510   15.1230 N.am  118  GLN118     -0.0878
    108  N       -117.8620   28.1760   12.4480 N.3   120  GLU120     -0.1245
    109  CA      -118.7800   27.8980   13.5330 C.3   120  GLU120      0.1567
    110  C       -119.3880   26.5020   13.4220 C.2   120  GLU120      0.2260
    111  O       -119.6700   25.9980   12.3190 O.2   120  GLU120     -0.2867
    112  CB      -119.8840   28.9600   13.5000 C.3   120  GLU120      0.0388
    113  CG      -120.8980   28.8020   14.6020 C.3   120  GLU120      0.1160
    114  CD      -121.9150   29.9490   14.6170 C.2   120  GLU120      0.3649
    115  OE1     -121.7350   31.0250   13.9480 O.co2 120  GLU120     -0.2457
    116  OE2     -122.9720   29.7930   15.2490 O.co2 120  GLU120     -0.2457
@<TRIPOS>BOND
     1    26    25    1
     2    27    25    1
     3    25    24    1
     4    85    86    1
     5    24    21    1
     6    87    86    1
     7    87    88    2
     8    86    89    1
     9    21    20    1
    10    21    22    1
    11    91    90   ar
    12    91    93   ar
    13    89    90    1
    14    18    17    1
    15    20    15   am
    16    90    92   ar
    17    93    94   ar
    18    17    19    1
    19    17    14    1
    20    22    23    2
    21    22    28   am
    22    99   100    1
    23    34    32    1
    24    92    94   ar
    25    92    95   ar
    26    94    96   ar
    27    15    14    1
    28    15    16    2
    29     1     2    1
    30    14    13    1
    31    95    97   ar
    32    28    29    1
    33    96    98   ar
    34    13     3   am
    35   111   110    2
    36   108   109    1
    37   101   100    1
    38   101   102    2
    39    97    98   ar
    40   100   103    1
    41    32    29    1
    42    32    33    1
    43     3     2    1
    44     3     4    2
    45    29    30    1
    46     2     5    1
    47   103   104    1
    48   110   109    1
    49   112   109    1
    50   112   113    1
    51   104   105    1
    52   106   105    2
    53   115   114   ar
    54     5     6    1
    55   105   107   am
    56    30    31    2
    57    30    35   am
    58   113   114    1
    59   114   116   ar
    60     6     8   ar
    61     6     7   ar
    62     8    10   ar
    63    35    36    1
    64    49    47    1
    65     7     9   ar
    66    10    11   ar
    67    36    37    1
    68    36    39    1
    69    47    48    1
    70    47    44    1
    71    37    38    2
    72     9    11   ar
    73    11    12    1
    74    39    40    1
    75    44    43    1
    76    44    45    1
    77    46    45    2
    78    40    41    2
    79    40    42   am
    80    62    63   ar
    81    62    60   ar
    82    45    50   am
    83    63    61   ar
    84    60    57   ar
    85    61    59   ar
    86    50    51    1
    87    57    59   ar
    88    57    55   ar
    89    59    58   ar
    90    51    52    1
    91    51    54    1
    92    52    64   am
    93    52    53    2
    94    55    54    1
    95    55    56   ar
    96    58    56   ar
    97    64    65    1
    98    65    68    1
    99    65    66    1
   100    68    69    1
   101    70    69   ar
   102    70    72   ar
   103    69    71   ar
   104    66    76   am
   105    66    67    2
   106    72    74   ar
   107    76    77    1
   108    71    73   ar
   109    74    73   ar
   110    74    75    1
   111    78    77    1
   112    78    79    2
   113    77    80    1
   114    80    81    1
   115    81    82    1
   116    82    83    1
   117    83    84    1
