@<TRIPOS>MOLECULE
tmp/5zj6A00.pdb
 173 160 0 0 0
SMALL
GASTEIGER

@<TRIPOS>ATOM
      1  N         58.1910   47.9020   94.5800 N.3    21  LEU21      -0.1231
      2  CA        59.0540   46.8150   94.1410 C.3    21  LEU21       0.1693
      3  C         58.9040   46.5090   92.6600 C.2    21  LEU21       0.2592
      4  O         59.8120   45.9190   92.0660 O.2    21  LEU21      -0.2718
      5  CB        58.7620   45.5550   94.9590 C.3    21  LEU21       0.0284
      6  CG        58.9270   45.7310   96.4690 C.3    21  LEU21       0.0019
      7  CD1       58.6040   44.4360   97.2040 C.3    21  LEU21       0.0001
      8  CD2       60.3340   46.2160   96.7980 C.3    21  LEU21       0.0001
      9  N         57.7970   46.9010   92.0560 N.am   22  GLY22      -0.1957
     10  CA        57.5650   46.6530   90.6510 C.3    22  GLY22       0.1869
     11  C         56.0970   46.7550   90.3210 C.2    22  GLY22       0.2309
     12  O         55.2210   46.5990   91.1730 O.2    22  GLY22      -0.2863
     13  N         53.2430   45.9960   93.6380 N.3    29  VAL29      -0.1245
     14  CA        53.6950   45.4530   94.9120 C.3    29  VAL29       0.1561
     15  C         54.6350   46.4560   95.5660 C.2    29  VAL29       0.2260
     16  O         55.5230   47.0150   94.9120 O.2    29  VAL29      -0.2867
     17  CB        54.3810   44.0800   94.7570 C.3    29  VAL29       0.0252
     18  CG1       54.7570   43.5110   96.1210 C.3    29  VAL29       0.0019
     19  CG2       53.4730   43.1100   94.0170 C.3    29  VAL29       0.0019
     20  N         54.9840   43.1170  102.7510 N.3    41  ALA41      -0.1245
     21  CA        54.7480   43.4430  101.3530 C.3    41  ALA41       0.1562
     22  C         53.2640   43.7080  101.1580 C.2    41  ALA41       0.2260
     23  O         52.4190   43.0580  101.7860 O.2    41  ALA41      -0.2867
     24  CB        55.2000   42.3100  100.4240 C.3    41  ALA41       0.0290
     25  N         50.4930   44.0660   98.0150 N.3    43  LYS43      -0.1245
     26  CA        50.1100   43.9940   96.6120 C.3    43  LYS43       0.1561
     27  C         48.8250   44.7980   96.4570 C.2    43  LYS43       0.2260
     28  O         47.7780   44.4210   96.9950 O.2    43  LYS43      -0.2867
     29  CB        49.9320   42.5470   96.1530 C.3    43  LYS43       0.0271
     30  CG        49.4050   42.4170   94.7280 C.3    43  LYS43       0.0035
     31  CD        49.4340   40.9730   94.2270 C.3    43  LYS43       0.0206
     32  CE        50.8480   40.5290   93.9050 C.3    43  LYS43       0.1093
     33  NZ        50.8860   39.3300   93.0050 N.3    43  LYS43      -0.1314
     34  N         36.8950   38.3590   96.1300 N.3    55  PHE55      -0.1241
     35  CA        38.2330   38.1820   96.6780 C.3    55  PHE55       0.1605
     36  C         38.1770   37.7430   98.1350 C.2    55  PHE55       0.2264
     37  O         38.8460   36.7790   98.5260 O.2    55  PHE55      -0.2867
     38  CB        39.0430   39.4650   96.5420 C.3    55  PHE55       0.0534
     39  CG        40.3100   39.4450   97.3310 C.ar   55  PHE55      -0.0203
     40  CD1       41.3310   38.5720   96.9950 C.ar   55  PHE55      -0.0042
     41  CD2       40.4740   40.2780   98.4210 C.ar   55  PHE55      -0.0042
     42  CE1       42.5000   38.5390   97.7240 C.ar   55  PHE55      -0.0003
     43  CE2       41.6370   40.2530   99.1490 C.ar   55  PHE55      -0.0003
     44  CZ        42.6540   39.3840   98.8040 C.ar   55  PHE55      -0.0000
     45  N         42.4940   31.1510  101.1050 N.3    62  MET62      -0.1245
     46  CA        43.9440   31.2810  100.9720 C.3    62  MET62       0.1570
     47  C         44.6260   31.4390  102.3240 C.2    62  MET62       0.2261
     48  O         45.7020   30.8750  102.5540 O.2    62  MET62      -0.2867
     49  CB        44.2940   32.4810  100.0970 C.3    62  MET62       0.0387
     50  CG        43.7880   32.4410   98.6840 C.3    62  MET62       0.0595
     51  SD        44.0160   34.0720   97.9580 S.3    62  MET62      -0.1393
     52  CE        43.6260   33.7400   96.2430 C.3    62  MET62       0.0692
     53  N         53.9030   31.6560  100.8470 N.3    71  VAL71      -0.1245
     54  CA        53.9480   33.0080  101.3920 C.3    71  VAL71       0.1561
     55  C         52.7510   33.2260  102.3050 C.2    71  VAL71       0.2260
     56  O         51.6110   32.9050  101.9500 O.2    71  VAL71      -0.2867
     57  CB        53.9860   34.0420  100.2560 C.3    71  VAL71       0.0252
     58  CG1       54.0420   35.4540  100.8200 C.3    71  VAL71       0.0019
     59  CG2       55.1680   33.7830   99.3470 C.3    71  VAL71       0.0019
     60  N         49.7910   34.9460  103.9840 N.3    73  LEU73      -0.1245
     61  CA        48.8190   35.9980  103.7010 C.3    73  LEU73       0.1561
     62  C         48.3350   36.5680  105.0310 C.2    73  LEU73       0.2260
     63  O         47.6040   35.9000  105.7700 O.2    73  LEU73      -0.2867
     64  CB        47.6670   35.4330  102.8700 C.3    73  LEU73       0.0270
     65  CG        46.3960   36.2580  102.6850 C.3    73  LEU73       0.0019
     66  CD1       46.7100   37.5970  102.0690 C.3    73  LEU73       0.0001
     67  CD2       45.3970   35.4940  101.8300 C.3    73  LEU73       0.0001
     68  N         46.5200   43.4860   99.2800 N.3    84  ILE84      -0.1245
     69  CA        46.8390   42.1740   99.8290 C.3    84  ILE84       0.1561
     70  C         48.1530   42.3070  100.5890 C.2    84  ILE84       0.2260
     71  O         49.1770   42.6740  100.0020 O.2    84  ILE84      -0.2867
     72  CB        46.9440   41.1080   98.7240 C.3    84  ILE84       0.0252
     73  CG1       45.6770   41.0990   97.8720 C.3    84  ILE84       0.0019
     74  CG2       47.1850   39.7320   99.3220 C.3    84  ILE84       0.0019
     75  CD1       45.7720   40.2090   96.6460 C.3    84  ILE84       0.0001
     76  N         51.1190   40.6390  102.8360 N.3    86  THR86      -0.1203
     77  CA        51.8020   39.3740  103.0710 C.3    86  THR86       0.1994
     78  C         53.1420   39.6360  103.7410 C.2    86  THR86       0.2618
     79  O         53.5820   40.7800  103.8830 O.2    86  THR86      -0.2717
     80  CB        52.0440   38.6010  101.7640 C.3    86  THR86       0.1784
     81  OG1       53.0580   39.2710  101.0010 O.3    86  THR86      -0.2211
     82  CG2       50.7740   38.5060  100.9370 C.3    86  THR86       0.0376
     83  N         53.8050   38.5530  104.1310 N.am   87  GLU87      -0.1965
     84  CA        55.1790   38.6720  104.5920 C.3    87  GLU87       0.1733
     85  C         56.0700   39.1780  103.4630 C.2    87  GLU87       0.2616
     86  O         55.7830   38.9860  102.2760 O.2    87  GLU87      -0.2715
     87  CB        55.6990   37.3310  105.1070 C.3    87  GLU87       0.0429
     88  CG        55.6780   36.2270  104.0730 C.3    87  GLU87       0.1163
     89  CD        56.3460   34.9590  104.5600 C.2    87  GLU87       0.3649
     90  OE1       57.3960   35.0520  105.2300 O.co2  87  GLU87      -0.2457
     91  OE2       55.8130   33.8660  104.2850 O.co2  87  GLU87      -0.2457
     92  N         57.1620   39.8280  103.8490 N.am   88  PHE88      -0.1960
     93  CA        58.1110   40.4040  102.9080 C.3    88  PHE88       0.1771
     94  C         59.2310   39.4090  102.6330 C.2    88  PHE88       0.2619
     95  O         59.8040   38.8350  103.5670 O.2    88  PHE88      -0.2715
     96  CB        58.6830   41.7090  103.4660 C.3    88  PHE88       0.0574
     97  CG        59.7520   42.3200  102.6090 C.ar   88  PHE88      -0.0200
     98  CD1       59.4180   43.1000  101.5140 C.ar   88  PHE88      -0.0042
     99  CD2       61.0900   42.1220  102.9020 C.ar   88  PHE88      -0.0042
    100  CE1       60.3990   43.6570  100.7230 C.ar   88  PHE88      -0.0003
    101  CE2       62.0750   42.6820  102.1160 C.ar   88  PHE88      -0.0003
    102  CZ        61.7300   43.4510  101.0260 C.ar   88  PHE88      -0.0000
    103  N         59.5400   39.2100  101.3530 N.am   89  MET89      -0.1977
    104  CA        60.5530   38.2540  100.9160 C.3    89  MET89       0.1605
    105  C         61.7080   39.0380  100.2980 C.2    89  MET89       0.2287
    106  O         61.5560   39.6510   99.2360 O.2    89  MET89      -0.2864
    107  CB        59.9530   37.2490   99.9320 C.3    89  MET89       0.0413
    108  CG        58.8500   36.4030  100.5410 C.3    89  MET89       0.0598
    109  SD        59.4760   35.1530  101.6820 S.3    89  MET89      -0.1393
    110  CE        60.1400   33.9650  100.5070 C.3    89  MET89       0.0692
    111  N         63.0890   38.8170   96.5130 N.3    92  GLY92      -0.1210
    112  CA        62.1860   38.9910   95.3870 C.3    92  GLY92       0.1956
    113  C         61.7440   37.6730   94.7750 C.2    92  GLY92       0.2612
    114  O         61.6310   36.6470   95.4490 O.2    92  GLY92      -0.2717
    115  N         61.4800   37.7080   93.4710 N.am   93  SER93      -0.1952
    116  CA        61.0300   36.5150   92.7700 C.3    93  SER93       0.1924
    117  C         62.2000   35.5900   92.4630 C.2    93  SER93       0.2314
    118  O         63.3510   36.0200   92.3180 O.2    93  SER93      -0.2863
    119  CB        60.3110   36.8750   91.4690 C.3    93  SER93       0.2116
    120  OG        61.2110   37.3990   90.5050 O.3    93  SER93      -0.2180
    121  N         63.7240   36.5420   89.0580 N.3    96  ASP96      -0.1239
    122  CA        64.7180   37.6070   89.1630 C.3    96  ASP96       0.1674
    123  C         65.9790   37.1240   89.8670 C.2    96  ASP96       0.2266
    124  O         67.0960   37.4580   89.4520 O.2    96  ASP96      -0.2867
    125  CB        64.1210   38.8050   89.9000 C.3    96  ASP96       0.1410
    126  CG        63.2300   39.6450   89.0150 C.2    96  ASP96       0.3668
    127  OD1       63.2290   39.4310   87.7810 O.co2  96  ASP96      -0.2456
    128  OD2       62.5440   40.5320   89.5580 O.co2  96  ASP96      -0.2456
    129  N         58.2550   33.3120   88.2490 N.3   138  ALA138     -0.1245
    130  CA        57.8410   34.6600   88.6250 C.3   138  ALA138      0.1562
    131  C         56.9310   34.6610   89.8440 C.2   138  ALA138      0.2260
    132  O         56.8190   35.6900   90.5260 O.2   138  ALA138     -0.2867
    133  CB        57.1310   35.3370   87.4480 C.3   138  ALA138      0.0290
    134  N         58.7900   33.2380   95.4880 N.3   141  LEU141     -0.1245
    135  CA        59.5450   34.2770   96.1730 C.3   141  LEU141      0.1561
    136  C         60.6730   33.6430   96.9790 C.2   141  LEU141      0.2260
    137  O         60.5930   32.4780   97.3790 O.2   141  LEU141     -0.2867
    138  CB        58.6400   35.1030   97.0900 C.3   141  LEU141      0.0270
    139  CG        57.4700   35.8220   96.4140 C.3   141  LEU141      0.0019
    140  CD1       56.6400   36.5690   97.4510 C.3   141  LEU141      0.0001
    141  CD2       57.9610   36.7800   95.3400 C.3   141  LEU141      0.0001
    142  N         53.9140   31.9810   95.8690 N.3   151  ALA151     -0.1231
    143  CA        53.0820   33.1730   95.9180 C.3   151  ALA151      0.1694
    144  C         51.9450   33.0670   94.9080 C.2   151  ALA151      0.2592
    145  O         51.9770   32.2460   93.9860 O.2   151  ALA151     -0.2718
    146  CB        53.9070   34.4320   95.6360 C.3   151  ALA151      0.0304
    147  N         50.9380   33.9200   95.1020 N.am  152  ASP152     -0.1960
    148  CA        49.7850   34.0530   94.2070 C.3   152  ASP152      0.1840
    149  C         48.9830   32.7690   94.0690 C.2   152  ASP152      0.2622
    150  O         48.2860   32.5900   93.0640 O.2   152  ASP152     -0.2715
    151  CB        50.2010   34.5450   92.8130 C.3   152  ASP152      0.1450
    152  CG        50.3370   36.0540   92.7440 C.2   152  ASP152      0.3671
    153  OD1       50.0250   36.7190   93.7480 O.co2 152  ASP152     -0.2456
    154  OD2       50.7460   36.5780   91.6840 O.co2 152  ASP152     -0.2456
    155  N         49.0280   31.8700   95.0550 N.am  153  PHE153     -0.1974
    156  CA        48.2700   30.6290   94.9360 C.3   153  PHE153      0.1639
    157  C         46.7740   30.9290   94.8940 C.2   153  PHE153      0.2290
    158  O         46.2310   31.5730   95.7990 O.2   153  PHE153     -0.2864
    159  CB        48.6100   29.6530   96.0740 C.3   153  PHE153      0.0560
    160  CG        48.8050   30.2960   97.4320 C.ar  153  PHE153     -0.0200
    161  CD1       50.0680   30.6990   97.8500 C.ar  153  PHE153     -0.0042
    162  CD2       47.7400   30.4340   98.3120 C.ar  153  PHE153     -0.0042
    163  CE1       50.2550   31.2660   99.1070 C.ar  153  PHE153     -0.0003
    164  CE2       47.9200   30.9930   99.5650 C.ar  153  PHE153     -0.0003
    165  CZ        49.1810   31.4130   99.9620 C.ar  153  PHE153     -0.0000
    166  N         45.2500   33.0270   93.0110 N.3   155  LEU155     -0.1245
    167  CA        44.8780   34.4080   92.7260 C.3   155  LEU155      0.1561
    168  C         44.3110   34.5850   91.3220 C.2   155  LEU155      0.2260
    169  O         43.4530   35.4490   91.1120 O.2   155  LEU155     -0.2867
    170  CB        46.0790   35.3310   92.9240 C.3   155  LEU155      0.0270
    171  CG        45.7160   36.8140   92.9940 C.3   155  LEU155      0.0019
    172  CD1       44.9930   37.1070   94.3030 C.3   155  LEU155      0.0001
    173  CD2       46.9450   37.6910   92.8390 C.3   155  LEU155      0.0001
@<TRIPOS>BOND
     1   133   130    1
     2   127   126   ar
     3   129   130    1
     4   130   131    1
     5   126   128   ar
     6   126   125    1
     7   121   122    1
     8   122   123    1
     9   122   125    1
    10   124   123    2
    11   131   132    2
    12    11    10    1
    13    11    12    2
    14   120   119    1
    15    10     9    1
    16   169   168    2
    17   168   167    1
    18   119   116    1
    19   154   152   ar
    20     9     3   am
    21     4     3    2
    22   118   117    2
    23   117   116    1
    24     3     2    1
    25   167   170    1
    26   167   166    1
    27   152   151    1
    28   152   153   ar
    29   116   115    1
    30   151   148    1
    31   173   171    1
    32   170   171    1
    33   171   172    1
    34    33    32    1
    35   150   149    2
    36   115   113   am
    37    13    14    1
    38    32    31    1
    39   145   144    2
    40    19    17    1
    41   149   148    1
    42   149   155   am
    43     2     1    1
    44     2     5    1
    45   148   147    1
    46    31    30    1
    47    30    29    1
    48    17    14    1
    49    17    18    1
    50   113   112    1
    51   113   114    2
    52   157   156    1
    53   157   158    2
    54   144   147   am
    55   144   143    1
    56    14    15    1
    57    16    15    2
    58   156   155    1
    59   156   159    1
    60     5     6    1
    61   141   139    1
    62   112   111    1
    63   134   135    1
    64   146   143    1
    65   142   143    1
    66   159   160    1
    67    34    35    1
    68    29    26    1
    69   135   136    1
    70   135   138    1
    71    52    51    1
    72   139   138    1
    73   139   140    1
    74    27    26    1
    75    27    28    2
    76     6     8    1
    77     6     7    1
    78    38    35    1
    79    38    39    1
    80    26    25    1
    81    75    73    1
    82    35    36    1
    83   136   137    2
    84    40    39   ar
    85    40    42   ar
    86    39    41   ar
    87   160   161   ar
    88   160   162   ar
    89    42    44   ar
    90   161   163   ar
    91    73    72    1
    92    51    50    1
    93    36    37    2
    94   162   164   ar
    95    41    43   ar
    96    50    49    1
    97    72    74    1
    98    72    69    1
    99    44    43   ar
   100   163   165   ar
   101   106   105    2
   102    68    69    1
   103    59    57    1
   104   164   165   ar
   105    69    70    1
   106   107   108    1
   107   107   104    1
   108    71    70    2
   109    49    46    1
   110    57    58    1
   111    57    54    1
   112   105   104    1
   113    24    21    1
   114   110   109    1
   115   108   109    1
   116   100   102   ar
   117   100    98   ar
   118    53    54    1
   119   104   103    1
   120    82    80    1
   121    46    45    1
   122    46    47    1
   123    81    80    1
   124   102   101   ar
   125    22    21    1
   126    22    23    2
   127   103    94   am
   128    21    20    1
   129    54    55    1
   130    98    97   ar
   131    80    77    1
   132    67    65    1
   133    56    55    2
   134    66    65    1
   135   101    99   ar
   136    86    85    2
   137    47    48    2
   138    97    99   ar
   139    97    96    1
   140    94    93    1
   141    94    95    2
   142    65    64    1
   143    76    77    1
   144    64    61    1
   145    93    96    1
   146    93    92    1
   147    77    78    1
   148    85    92   am
   149    85    84    1
   150    61    60    1
   151    61    62    1
   152    78    79    2
   153    78    83   am
   154    88    89    1
   155    88    87    1
   156    83    84    1
   157    91    89   ar
   158    89    90   ar
   159    84    87    1
   160    62    63    2
