@<TRIPOS>MOLECULE
tmp/5zjaB01.pdb
 84 76 0 0 0
SMALL
GASTEIGER

@<TRIPOS>ATOM
      1  N        136.5400   66.0480   37.5340 N.3    49  ALA49      -0.1245
      2  CA       136.7010   64.6160   37.7600 C.3    49  ALA49       0.1562
      3  C        137.2330   64.3380   39.1600 C.2    49  ALA49       0.2260
      4  O        136.8530   63.3430   39.7890 O.2    49  ALA49      -0.2867
      5  CB       137.6280   64.0180   36.7040 C.3    49  ALA49       0.0290
      6  N        140.7010   64.2340   40.0390 N.3    51  LEU51      -0.1245
      7  CA       142.0220   63.6270   40.1010 C.3    51  LEU51       0.1561
      8  C        143.0270   64.5870   40.7260 C.2    51  LEU51       0.2260
      9  O        142.9700   65.8030   40.5240 O.2    51  LEU51      -0.2867
     10  CB       142.4850   63.2230   38.7010 C.3    51  LEU51       0.0270
     11  CG       143.8480   62.5370   38.5900 C.3    51  LEU51       0.0019
     12  CD1      143.8120   61.1790   39.2760 C.3    51  LEU51       0.0001
     13  CD2      144.2580   62.3980   37.1330 C.3    51  LEU51       0.0001
     14  N        146.4210   65.9410   40.4430 N.3    53  GLN53      -0.1245
     15  CA       147.6370   66.1620   39.6750 C.3    53  GLN53       0.1566
     16  C        147.8030   67.6530   39.4200 C.2    53  GLN53       0.2260
     17  O        146.9200   68.2850   38.8250 O.2    53  GLN53      -0.2867
     18  CB       147.5950   65.3880   38.3580 C.3    53  GLN53       0.0367
     19  CG       148.8190   65.5850   37.4840 C.3    53  GLN53       0.0905
     20  CD       148.8700   64.5990   36.3390 C.2    53  GLN53       0.2608
     21  OE1      148.6100   63.4100   36.5200 O.2    53  GLN53      -0.2717
     22  NE2      149.2010   65.0880   35.1500 N.am   53  GLN53      -0.0878
     23  N        145.8710   60.4870   30.8870 N.3   215  LEU215     -0.1245
     24  CA       145.9740   61.9050   30.5730 C.3   215  LEU215      0.1561
     25  C        146.9640   62.0910   29.4310 C.2   215  LEU215      0.2260
     26  O        148.1480   61.7630   29.5680 O.2   215  LEU215     -0.2867
     27  CB       146.4050   62.7110   31.7960 C.3   215  LEU215      0.0270
     28  CG       145.2480   63.1810   32.6800 C.3   215  LEU215      0.0019
     29  CD1      144.5610   61.9850   33.3230 C.3   215  LEU215      0.0001
     30  CD2      145.7230   64.1760   33.7280 C.3   215  LEU215      0.0001
     31  N        145.4320   70.2010   29.2630 N.3   224  TYR224     -0.1241
     32  CA       144.0480   69.7380   29.3590 C.3   224  TYR224      0.1605
     33  C        143.2250   70.1570   28.1470 C.2   224  TYR224      0.2264
     34  O        141.9900   70.1410   28.1810 O.2   224  TYR224     -0.2867
     35  CB       143.3990   70.2220   30.6580 C.3   224  TYR224      0.0534
     36  CG       144.1680   69.7900   31.8860 C.ar  224  TYR224     -0.0201
     37  CD1      144.8290   68.5690   31.9170 C.ar  224  TYR224     -0.0009
     38  CD2      144.2490   70.6040   33.0050 C.ar  224  TYR224     -0.0009
     39  CE1      145.5410   68.1650   33.0310 C.ar  224  TYR224      0.0417
     40  CE2      144.9600   70.2100   34.1250 C.ar  224  TYR224      0.0417
     41  CZ       145.6040   68.9890   34.1340 C.ar  224  TYR224      0.1957
     42  OH       146.3120   68.5960   35.2500 O.3   224  TYR224     -0.2866
     43  N        141.6310   63.0960   27.7530 N.3   228  TYR228     -0.1241
     44  CA       141.9570   62.4410   29.0110 C.3   228  TYR228      0.1605
     45  C        140.7670   61.6090   29.4680 C.2   228  TYR228      0.2264
     46  O        139.6160   61.8880   29.1240 O.2   228  TYR228     -0.2867
     47  CB       142.3870   63.4430   30.0940 C.3   228  TYR228      0.0534
     48  CG       141.3520   64.4670   30.5220 C.ar  228  TYR228     -0.0201
     49  CD1      140.3030   64.1210   31.3660 C.ar  228  TYR228     -0.0009
     50  CD2      141.4550   65.7940   30.1220 C.ar  228  TYR228     -0.0009
     51  CE1      139.3700   65.0610   31.7720 C.ar  228  TYR228      0.0417
     52  CE2      140.5300   66.7400   30.5240 C.ar  228  TYR228      0.0417
     53  CZ       139.4890   66.3690   31.3470 C.ar  228  TYR228      0.1957
     54  OH       138.5690   67.3120   31.7450 O.3   228  TYR228     -0.2866
     55  N        139.4130   59.7640   33.0620 N.3   230  ILE230     -0.1245
     56  CA       139.5730   59.6730   34.5080 C.3   230  ILE230      0.1561
     57  C        138.4290   58.8410   35.0730 C.2   230  ILE230      0.2260
     58  O        137.3340   59.3640   35.3130 O.2   230  ILE230     -0.2867
     59  CB       139.6320   61.0590   35.1620 C.3   230  ILE230      0.0252
     60  CG1      140.6320   61.9530   34.4260 C.3   230  ILE230      0.0019
     61  CG2      140.0060   60.9270   36.6270 C.3   230  ILE230      0.0019
     62  CD1      140.6070   63.3970   34.8710 C.3   230  ILE230      0.0001
     63  N        137.3030   76.8050   34.9180 N.3   283  ARG283     -0.1245
     64  CA       138.4890   76.7870   35.7580 C.3   283  ARG283      0.1563
     65  C        138.8700   78.2200   36.1190 C.2   283  ARG283      0.2260
     66  O        139.0410   79.0530   35.2140 O.2   283  ARG283     -0.2867
     67  CB       139.6440   76.0970   35.0390 C.3   283  ARG283      0.0307
     68  CG       139.3190   74.7030   34.5350 C.3   283  ARG283      0.0489
     69  CD       140.4670   74.1510   33.7110 C.3   283  ARG283      0.2205
     70  NE       140.1590   72.8450   33.1350 N.pl3 283  ARG283     -0.0865
     71  CZ       139.5480   72.6690   31.9680 C.cat 283  ARG283      0.5346
     72  NH1      139.1700   73.7180   31.2490 N.pl3 283  ARG283      0.1354
     73  NH2      139.3110   71.4440   31.5170 N.pl3 283  ARG283      0.1354
     74  N        142.8490   74.6630   37.1750 N.3   313  GLY313     -0.1225
     75  CA       142.4320   73.2830   37.0120 C.3   313  GLY313      0.1811
     76  C        143.0280   72.3460   38.0420 C.2   313  GLY313      0.2280
     77  O        143.2150   71.1570   37.7720 O.2   313  GLY313     -0.2866
     78  N        143.2160   69.6580   44.0010 N.3   317  THR317     -0.1218
     79  CA       144.5550   69.1520   44.2810 C.3   317  THR317      0.1862
     80  C        145.2350   69.9210   45.4120 C.2   317  THR317      0.2287
     81  O        145.9930   69.3320   46.1920 O.2   317  THR317     -0.2866
     82  CB       145.4080   69.2050   43.0110 C.3   317  THR317      0.1770
     83  OG1      144.8240   68.3650   42.0090 O.3   317  THR317     -0.2211
     84  CG2      146.8230   68.7290   43.2950 C.3   317  THR317      0.0375
@<TRIPOS>BOND
     1    43    44    1
     2    33    34    2
     3    33    32    1
     4    44    45    1
     5    44    47    1
     6    46    45    2
     7    31    32    1
     8    32    35    1
     9    25    26    2
    10    25    24    1
    11    47    48    1
    12    50    48   ar
    13    50    52   ar
    14    48    49   ar
    15    52    53   ar
    16    24    23    1
    17    24    27    1
    18    35    36    1
    19    72    71    1
    20    53    54    1
    21    53    51   ar
    22    49    51   ar
    23    73    71    1
    24    27    28    1
    25    36    37   ar
    26    36    38   ar
    27    37    39   ar
    28    71    70    2
    29    28    29    1
    30    28    30    1
    31    38    40   ar
    32    39    41   ar
    33    55    56    1
    34    70    69    1
    35    69    68    1
    36    40    41   ar
    37    41    42    1
    38    60    62    1
    39    60    59    1
    40    56    57    1
    41    56    59    1
    42    68    67    1
    43    63    64    1
    44    67    64    1
    45    57    58    2
    46    22    20   am
    47    59    61    1
    48    66    65    2
    49    64    65    1
    50    20    21    2
    51    20    19    1
    52     5     2    1
    53    75    74    1
    54    75    76    1
    55    13    11    1
    56    19    18    1
    57     1     2    1
    58     2     3    1
    59    77    76    2
    60    18    15    1
    61    11    10    1
    62    11    12    1
    63    10     7    1
    64    17    16    2
    65     3     4    2
    66    16    15    1
    67    15    14    1
    68     6     7    1
    69     7     8    1
    70     9     8    2
    71    83    82    1
    72    82    84    1
    73    82    79    1
    74    78    79    1
    75    79    80    1
    76    80    81    2
