@<TRIPOS>MOLECULE
tmp/5zjbA00.pdb
 127 121 0 0 0
SMALL
GASTEIGER

@<TRIPOS>ATOM
      1  N         21.0850    0.8560  -21.0950 N.3    20  SER20      -0.1217
      2  CA        20.1270    1.6240  -20.3120 C.3    20  SER20       0.1889
      3  C         19.9170    0.9020  -18.9830 C.2    20  SER20       0.2288
      4  O         19.4420   -0.2430  -18.9640 O.2    20  SER20      -0.2866
      5  CB        18.8080    1.8050  -21.0530 C.3    20  SER20       0.2089
      6  OG        17.8370    2.4040  -20.2030 O.3    20  SER20      -0.2183
      7  N         17.7870    0.9300  -16.0890 N.3    22  GLN22      -0.1245
      8  CA        16.5390    1.3920  -15.4780 C.3    22  GLN22       0.1566
      9  C         15.8370    0.1760  -14.8970 C.2    22  GLN22       0.2260
     10  O         15.0410   -0.4740  -15.5910 O.2    22  GLN22      -0.2867
     11  CB        15.6450    2.1060  -16.4870 C.3    22  GLN22       0.0367
     12  CG        16.3490    3.2830  -17.1660 C.3    22  GLN22       0.0905
     13  CD        15.4270    4.0730  -18.0890 C.2    22  GLN22       0.2608
     14  OE1       14.3190    4.4550  -17.7030 O.2    22  GLN22      -0.2717
     15  NE2       15.8790    4.3060  -19.3200 N.am   22  GLN22      -0.0878
     16  N         12.1810   10.5110  -15.9230 N.3    74  LYS74      -0.1245
     17  CA        10.8510   10.0380  -16.2850 C.3    74  LYS74       0.1561
     18  C          9.8290   10.5140  -15.2590 C.2    74  LYS74       0.2260
     19  O         10.0220   10.3330  -14.0520 O.2    74  LYS74      -0.2867
     20  CB        10.8270    8.5120  -16.3890 C.3    74  LYS74       0.0271
     21  CG        11.1330    8.0080  -17.7790 C.3    74  LYS74       0.0035
     22  CD        11.2420    6.4720  -17.8160 C.3    74  LYS74       0.0206
     23  CE        11.7160    5.9860  -19.1820 C.3    74  LYS74       0.1093
     24  NZ        11.9360    4.5010  -19.2590 N.3    74  LYS74      -0.1314
     25  N         13.3630    5.4190  -29.7260 N.3   153  THR153     -0.1218
     26  CA        12.8920    5.0760  -28.3830 C.3   153  THR153      0.1862
     27  C         11.3830    4.9170  -28.2280 C.2   153  THR153      0.2287
     28  O         10.9140    3.9870  -27.5590 O.2   153  THR153     -0.2866
     29  CB        13.3920    6.1650  -27.4220 C.3   153  THR153      0.1770
     30  OG1       14.8080    6.3160  -27.5860 O.3   153  THR153     -0.2211
     31  CG2       13.0550    5.8150  -25.9460 C.3   153  THR153      0.0375
     32  N          5.0790    3.1910  -28.5830 N.3   157  TYR157     -0.1241
     33  CA         4.7030    3.5180  -27.2110 C.3   157  TYR157      0.1605
     34  C          3.7880    4.7330  -27.1350 C.2   157  TYR157      0.2264
     35  O          3.6000    5.2880  -26.0490 O.2   157  TYR157     -0.2867
     36  CB         5.9520    3.7360  -26.3460 C.3   157  TYR157      0.0534
     37  CG         6.8270    2.5080  -26.2970 C.ar  157  TYR157     -0.0201
     38  CD1        6.4680    1.4120  -25.5260 C.ar  157  TYR157     -0.0009
     39  CD2        7.9830    2.4190  -27.0590 C.ar  157  TYR157     -0.0009
     40  CE1        7.2450    0.2780  -25.4980 C.ar  157  TYR157      0.0417
     41  CE2        8.7680    1.2950  -27.0360 C.ar  157  TYR157      0.0417
     42  CZ         8.3940    0.2230  -26.2500 C.ar  157  TYR157      0.1957
     43  OH         9.1710   -0.9130  -26.2230 O.3   157  TYR157     -0.2866
     44  N         16.6260    2.1890  -30.5390 N.3   184  GLU184     -0.1231
     45  CA        16.2260    1.9920  -29.1520 C.3   184  GLU184      0.1699
     46  C         14.7870    1.5130  -29.1080 C.2   184  GLU184      0.2593
     47  O         13.9010    2.1480  -29.6890 O.2   184  GLU184     -0.2718
     48  CB        16.3780    3.2970  -28.3540 C.3   184  GLU184      0.0402
     49  CG        16.1380    3.1340  -26.8560 C.3   184  GLU184      0.1161
     50  CD        16.7490    4.2720  -26.0510 C.2   184  GLU184      0.3649
     51  OE1       17.6350    4.9870  -26.5810 O.co2 184  GLU184     -0.2457
     52  OE2       16.3320    4.4420  -24.8870 O.co2 184  GLU184     -0.2457
     53  N         14.5590    0.3970  -28.4240 N.am  185  GLY185     -0.1942
     54  CA        13.2130   -0.1100  -28.2630 C.3   185  GLY185      0.2014
     55  C         13.0720   -1.5410  -28.7540 C.2   185  GLY185      0.2639
     56  O         12.9870   -1.7790  -29.9610 O.2   185  GLY185     -0.2714
     57  N         13.0670   -2.4970  -27.8230 N.am  186  ARG186     -0.1963
     58  CA        12.7340   -3.8970  -28.0860 C.3   186  ARG186      0.1729
     59  C         13.8280   -4.6530  -28.8290 C.2   186  ARG186      0.2616
     60  O         13.5560   -5.7080  -29.4210 O.2   186  ARG186     -0.2715
     61  CB        11.4040   -4.0070  -28.8410 C.3   186  ARG186      0.0348
     62  CG        10.2590   -3.3220  -28.1250 C.3   186  ARG186      0.0492
     63  CD         8.9260   -3.5450  -28.8130 C.3   186  ARG186      0.2205
     64  NE         8.8860   -2.9840  -30.1580 N.pl3 186  ARG186     -0.0865
     65  CZ         8.6160   -1.7120  -30.4270 C.cat 186  ARG186      0.5346
     66  NH1        8.3720   -0.8550  -29.4380 N.pl3 186  ARG186      0.1354
     67  NH2        8.5970   -1.2940  -31.6870 N.pl3 186  ARG186      0.1354
     68  N         15.0700   -4.1640  -28.8050 N.am  187  TYR187     -0.1960
     69  CA        16.2130   -4.9020  -29.3490 C.3   187  TYR187      0.1771
     70  C         16.6640   -5.8900  -28.2760 C.2   187  TYR187      0.2619
     71  O         17.6700   -5.7140  -27.5790 O.2   187  TYR187     -0.2715
     72  CB        17.3180   -3.9460  -29.8020 C.3   187  TYR187      0.0574
     73  CG        16.8750   -3.1430  -30.9930 C.ar  187  TYR187     -0.0198
     74  CD1       16.9370   -3.6840  -32.2740 C.ar  187  TYR187     -0.0009
     75  CD2       16.3450   -1.8660  -30.8410 C.ar  187  TYR187     -0.0009
     76  CE1       16.5080   -2.9790  -33.3720 C.ar  187  TYR187      0.0417
     77  CE2       15.9030   -1.1430  -31.9450 C.ar  187  TYR187      0.0417
     78  CZ        15.9960   -1.7160  -33.2140 C.ar  187  TYR187      0.1957
     79  OH        15.5710   -1.0300  -34.3250 O.3   187  TYR187     -0.2866
     80  N         15.8800   -6.9630  -28.1430 N.am  188  ASN188     -0.1972
     81  CA        15.9430   -7.8370  -26.9750 C.3   188  ASN188      0.1688
     82  C         17.0010   -8.9220  -27.0780 C.2   188  ASN188      0.2292
     83  O         17.1740   -9.6890  -26.1250 O.2   188  ASN188     -0.2864
     84  CB        14.5780   -8.4910  -26.7350 C.3   188  ASN188      0.1181
     85  CG        13.4900   -7.4840  -26.4770 C.2   188  ASN188      0.2629
     86  OD1       13.7310   -6.4260  -25.8830 O.2   188  ASN188     -0.2716
     87  ND2       12.2710   -7.8050  -26.9100 N.am  188  ASN188     -0.0877
     88  N         20.7080    1.2020  -28.1100 N.3   205  THR205     -0.1203
     89  CA        20.5160    1.2160  -26.6680 C.3   205  THR205      0.1994
     90  C         19.6160    0.0500  -26.2820 C.2   205  THR205      0.2618
     91  O         18.5350   -0.1270  -26.8640 O.2   205  THR205     -0.2717
     92  CB        19.9010    2.5320  -26.2020 C.3   205  THR205      0.1784
     93  OG1       20.8510    3.5850  -26.3990 O.3   205  THR205     -0.2211
     94  CG2       19.5370    2.4530  -24.7160 C.3   205  THR205      0.0376
     95  N         20.0730   -0.7370  -25.3080 N.am  206  VAL206     -0.1965
     96  CA        19.3700   -1.9160  -24.8050 C.3   206  VAL206      0.1727
     97  C         19.1140   -1.7350  -23.3130 C.2   206  VAL206      0.2617
     98  O         20.0430   -1.4500  -22.5450 O.2   206  VAL206     -0.2715
     99  CB        20.1840   -3.1910  -25.0660 C.3   206  VAL206      0.0290
    100  CG1       19.4790   -4.4270  -24.4740 C.3   206  VAL206      0.0023
    101  CG2       20.4070   -3.3620  -26.5640 C.3   206  VAL206      0.0023
    102  N         17.8620   -1.9370  -22.9010 N.am  207  GLY207     -0.1940
    103  CA        17.4910   -1.8280  -21.5030 C.3   207  GLY207      0.2014
    104  C         17.0370   -3.1540  -20.9240 C.2   207  GLY207      0.2640
    105  O         17.8380   -3.8580  -20.3170 O.2   207  GLY207     -0.2714
    106  N         15.7690   -3.5120  -21.1470 N.am  208  SER208     -0.1935
    107  CA        15.1630   -4.6480  -20.4460 C.3   208  SER208      0.2055
    108  C         16.0350   -5.9000  -20.5040 C.2   208  SER208      0.2642
    109  O         16.2470   -6.5740  -19.4840 O.2   208  SER208     -0.2714
    110  CB        13.7870   -4.9440  -21.0440 C.3   208  SER208      0.2130
    111  OG        12.8170   -4.0130  -20.5910 O.3   208  SER208     -0.2179
    112  N         16.5290   -6.2410  -21.6950 N.am  209  ALA209     -0.1977
    113  CA        17.2520   -7.4980  -21.8700 C.3   209  ALA209      0.1597
    114  C         18.5110   -7.5680  -21.0150 C.2   209  ALA209      0.2287
    115  O         18.9910   -8.6700  -20.7130 O.2   209  ALA209     -0.2864
    116  CB        17.5940   -7.7000  -23.3530 C.3   209  ALA209      0.0319
    117  N         16.5740   -5.3880  -16.6220 N.3   212  ARG212     -0.1245
    118  CA        15.2960   -5.6620  -15.9490 C.3   212  ARG212      0.1563
    119  C         15.2060   -7.1640  -15.6910 C.2   212  ARG212      0.2260
    120  O         14.6010   -7.8960  -16.4810 O.2   212  ARG212     -0.2867
    121  CB        14.0900   -5.1640  -16.7610 C.3   212  ARG212      0.0307
    122  CG        13.9410   -3.6200  -16.7480 C.3   212  ARG212      0.0489
    123  CD        12.6290   -3.1460  -17.3690 C.3   212  ARG212      0.2205
    124  NE        12.5280   -1.6760  -17.2970 N.pl3 212  ARG212     -0.0865
    125  CZ        12.7210   -0.8840  -18.3380 C.cat 212  ARG212      0.5346
    126  NH1       12.9810   -1.4180  -19.5330 N.pl3 212  ARG212      0.1354
    127  NH2       12.6310    0.4460  -18.1920 N.pl3 212  ARG212      0.1354
@<TRIPOS>BOND
     1    79    78    1
     2    76    78   ar
     3    76    74   ar
     4    78    77   ar
     5    74    73   ar
     6    77    75   ar
     7    67    65    1
     8    73    75   ar
     9    73    72    1
    10    44    45    1
    11    65    64    2
    12    65    66    1
    13    64    63    1
    14    56    55    2
    15    72    69    1
    16    25    26    1
    17    47    46    2
    18    60    59    2
    19    69    68    1
    20    69    70    1
    21    45    46    1
    22    45    48    1
    23    46    53   am
    24    61    62    1
    25    61    58    1
    26    59    68   am
    27    59    58    1
    28    63    62    1
    29    55    54    1
    30    55    57   am
    31    32    33    1
    32    53    54    1
    33    26    27    1
    34    26    29    1
    35    48    49    1
    36    70    80   am
    37    70    71    2
    38    27    28    2
    39    80    81    1
    40    88    89    1
    41    58    57    1
    42    30    29    1
    43    29    31    1
    44    33    34    1
    45    33    36    1
    46    34    35    2
    47    82    81    1
    48    82    83    2
    49    39    41   ar
    50    39    37   ar
    51    41    42   ar
    52    81    84    1
    53    87    85   am
    54    91    90    2
    55    49    50    1
    56    84    85    1
    57    89    90    1
    58    89    92    1
    59    51    50   ar
    60   101    99    1
    61    85    86    2
    62    93    92    1
    63    36    37    1
    64    37    38   ar
    65    90    95   am
    66    42    43    1
    67    42    40   ar
    68    92    94    1
    69    50    52   ar
    70    38    40   ar
    71    95    96    1
    72    99    96    1
    73    99   100    1
    74    96    97    1
    75   116   113    1
    76    97   102   am
    77    97    98    2
    78   102   103    1
    79   113   112    1
    80   113   114    1
    81   112   108   am
    82   103   104    1
    83   106   104   am
    84   106   107    1
    85     1     2    1
    86     5     2    1
    87     5     6    1
    88   110   111    1
    89   110   107    1
    90   114   115    2
    91   104   105    2
    92   108   107    1
    93   108   109    2
    94     2     3    1
    95   126   125    1
    96    15    13   am
    97    24    23    1
    98    23    22    1
    99     3     4    2
   100   125   127    1
   101   125   124    2
   102    13    14    2
   103    13    12    1
   104    22    21    1
   105    21    20    1
   106   123   124    1
   107   123   122    1
   108    12    11    1
   109   121   122    1
   110   121   118    1
   111   117   118    1
   112    11     8    1
   113   120   119    2
   114    20    17    1
   115    17    16    1
   116    17    18    1
   117     7     8    1
   118   118   119    1
   119    10     9    2
   120     8     9    1
   121    18    19    2
