@<TRIPOS>MOLECULE
tmp/5zjbB01.pdb
 95 88 0 0 0
SMALL
GASTEIGER

@<TRIPOS>ATOM
      1  N         24.4890  -16.4250   -9.5820 N.3    22  GLN22      -0.1245
      2  CA        25.9240  -16.5030   -9.3330 C.3    22  GLN22       0.1566
      3  C         26.5970  -15.3850  -10.1080 C.2    22  GLN22       0.2260
      4  O         27.0070  -15.5770  -11.2590 O.2    22  GLN22      -0.2867
      5  CB        26.4760  -17.8640   -9.7360 C.3    22  GLN22       0.0367
      6  CG        25.8460  -18.9980   -8.9270 C.3    22  GLN22       0.0905
      7  CD        26.4880  -20.3500   -9.1860 C.2    22  GLN22       0.2608
      8  OE1       27.7090  -20.5040   -9.0890 O.2    22  GLN22      -0.2717
      9  NE2       25.6610  -21.3480   -9.5030 N.am   22  GLN22      -0.0878
     10  N         19.0810  -21.4510   -7.7870 N.3    51  ARG51      -0.1245
     11  CA        20.3630  -22.0270   -7.3850 C.3    51  ARG51       0.1563
     12  C         21.2120  -20.9150   -6.7790 C.2    51  ARG51       0.2260
     13  O         21.3990  -19.8590   -7.4000 O.2    51  ARG51      -0.2867
     14  CB        21.1120  -22.6910   -8.5460 C.3    51  ARG51       0.0307
     15  CG        22.4760  -23.2330   -8.1240 C.3    51  ARG51       0.0489
     16  CD        23.2130  -23.9830   -9.2260 C.3    51  ARG51       0.2205
     17  NE        22.7110  -25.3440   -9.3880 N.pl3  51  ARG51      -0.0865
     18  CZ        23.4690  -26.4210   -9.5840 C.cat  51  ARG51       0.5346
     19  NH1       24.7970  -26.3360   -9.6160 N.pl3  51  ARG51       0.1354
     20  NH2       22.8870  -27.6040   -9.7160 N.pl3  51  ARG51       0.1354
     21  N         31.0380  -23.5310   -4.1480 N.3    74  LYS74      -0.1245
     22  CA        32.0440  -23.7130   -5.1980 C.3    74  LYS74       0.1561
     23  C         33.4240  -23.3970   -4.6370 C.2    74  LYS74       0.2260
     24  O         33.6500  -22.2950   -4.1250 O.2    74  LYS74      -0.2867
     25  CB        31.7540  -22.8320   -6.4150 C.3    74  LYS74       0.0271
     26  CG        30.9440  -23.5040   -7.5190 C.3    74  LYS74       0.0035
     27  CD        30.6690  -22.5520   -8.6880 C.3    74  LYS74       0.0206
     28  CE        29.7730  -23.2220   -9.7310 C.3    74  LYS74       0.1093
     29  NZ        29.1570  -22.2600  -10.7090 N.3    74  LYS74      -0.1314
     30  N         34.8930  -28.8350   -8.0550 N.3    83  ARG83      -0.1231
     31  CA        34.5870  -27.5620   -7.4130 C.3    83  ARG83       0.1694
     32  C         33.2490  -27.5310   -6.6880 C.2    83  ARG83       0.2591
     33  O         33.1220  -26.8020   -5.7010 O.2    83  ARG83      -0.2718
     34  CB        34.5710  -26.4310   -8.4460 C.3    83  ARG83       0.0321
     35  CG        35.8350  -26.2500   -9.2520 C.3    83  ARG83       0.0489
     36  CD        35.5610  -25.2780  -10.3930 C.3    83  ARG83       0.2205
     37  NE        35.3080  -23.9320   -9.8890 N.pl3  83  ARG83      -0.0865
     38  CZ        34.4990  -23.0400  -10.4580 C.cat  83  ARG83       0.5346
     39  NH1       33.8310  -23.3370  -11.5670 N.pl3  83  ARG83       0.1354
     40  NH2       34.3520  -21.8450   -9.9010 N.pl3  83  ARG83       0.1354
     41  N         32.2340  -28.2500   -7.1610 N.am   84  ILE84      -0.1980
     42  CA        30.8790  -28.0510   -6.6510 C.3    84  ILE84       0.1595
     43  C         30.6590  -28.9330   -5.4230 C.2    84  ILE84       0.2287
     44  O         30.5510  -30.1600   -5.5340 O.2    84  ILE84      -0.2864
     45  CB        29.8220  -28.2940   -7.7340 C.3    84  ILE84       0.0276
     46  CG1       30.0190  -27.2920   -8.8680 C.3    84  ILE84       0.0022
     47  CG2       28.4090  -28.0890   -7.1620 C.3    84  ILE84       0.0022
     48  CD1       29.0930  -27.5290  -10.0670 C.3    84  ILE84       0.0001
     49  N         24.7290  -30.1210  -15.6510 N.3   153  THR153     -0.1203
     50  CA        25.4950  -28.9450  -15.2480 C.3   153  THR153      0.1994
     51  C         26.9440  -28.9360  -15.7120 C.2   153  THR153      0.2617
     52  O         27.4670  -27.8770  -16.0790 O.2   153  THR153     -0.2717
     53  CB        25.4330  -28.8720  -13.7320 C.3   153  THR153      0.1784
     54  OG1       24.0560  -28.8680  -13.3450 O.3   153  THR153     -0.2211
     55  CG2       26.1620  -27.6270  -13.1860 C.3   153  THR153      0.0376
     56  N         27.6330  -30.0750  -15.6400 N.am  154  LEU154     -0.1979
     57  CA        29.0740  -30.0880  -15.8540 C.3   154  LEU154      0.1596
     58  C         29.4730  -30.5580  -17.2550 C.2   154  LEU154      0.2287
     59  O         30.6710  -30.6770  -17.5390 O.2   154  LEU154     -0.2864
     60  CB        29.7510  -30.9450  -14.7780 C.3   154  LEU154      0.0297
     61  CG        29.8040  -30.3010  -13.3880 C.3   154  LEU154      0.0022
     62  CD1       30.3880  -31.2250  -12.3420 C.3   154  LEU154      0.0001
     63  CD2       30.6240  -29.0120  -13.4960 C.3   154  LEU154      0.0001
     64  N         32.5090  -28.8790  -19.1740 N.3   157  TYR157     -0.1241
     65  CA        33.3440  -28.1710  -18.2070 C.3   157  TYR157      0.1605
     66  C         34.3650  -29.0880  -17.5480 C.2   157  TYR157      0.2264
     67  O         34.9290  -28.7340  -16.5100 O.2   157  TYR157     -0.2867
     68  CB        32.4750  -27.4930  -17.1430 C.3   157  TYR157      0.0534
     69  CG        31.5180  -26.5150  -17.7610 C.ar  157  TYR157     -0.0201
     70  CD1       31.9810  -25.3190  -18.2900 C.ar  157  TYR157     -0.0009
     71  CD2       30.1610  -26.7910  -17.8480 C.ar  157  TYR157     -0.0009
     72  CE1       31.1280  -24.4350  -18.8770 C.ar  157  TYR157      0.0417
     73  CE2       29.2860  -25.8910  -18.4310 C.ar  157  TYR157      0.0417
     74  CZ        29.7830  -24.7160  -18.9500 C.ar  157  TYR157      0.1957
     75  OH        28.9490  -23.8020  -19.5490 O.3   157  TYR157     -0.2866
     76  N         20.9650  -27.9460  -17.5430 N.3   184  GLU184     -0.1245
     77  CA        21.7520  -26.8580  -16.9580 C.3   184  GLU184      0.1567
     78  C         23.0510  -26.7030  -17.7280 C.2   184  GLU184      0.2260
     79  O         23.8190  -27.6620  -17.8530 O.2   184  GLU184     -0.2867
     80  CB        22.0310  -27.1320  -15.4760 C.3   184  GLU184      0.0388
     81  CG        22.7480  -26.0010  -14.7550 C.3   184  GLU184      0.1160
     82  CD        22.5870  -26.0770  -13.2270 C.2   184  GLU184      0.3649
     83  OE1       21.6950  -26.8110  -12.7660 O.co2 184  GLU184     -0.2457
     84  OE2       23.3420  -25.4010  -12.4820 O.co2 184  GLU184     -0.2457
     85  N         24.4980  -12.8020  -14.9000 N.3   212  ARG212     -0.1245
     86  CA        25.8650  -12.3270  -15.1450 C.3   212  ARG212      0.1563
     87  C         25.7870  -11.1560  -16.1200 C.2   212  ARG212      0.2260
     88  O         25.9420  -11.3250  -17.3320 O.2   212  ARG212     -0.2867
     89  CB        26.7750  -13.4430  -15.6600 C.3   212  ARG212      0.0307
     90  CG        27.1040  -14.4850  -14.5640 C.3   212  ARG212      0.0489
     91  CD        28.2250  -15.4280  -14.9960 C.3   212  ARG212      0.2205
     92  NE        28.5500  -16.3580  -13.9180 N.pl3 212  ARG212     -0.0865
     93  CZ        28.1470  -17.6240  -13.8920 C.cat 212  ARG212      0.5346
     94  NH1       27.4280  -18.1130  -14.8980 N.pl3 212  ARG212      0.1354
     95  NH2       28.4740  -18.4020  -12.8640 N.pl3 212  ARG212      0.1354
@<TRIPOS>BOND
     1    75    74    1
     2    64    65    1
     3    74    72   ar
     4    74    73   ar
     5    72    70   ar
     6    73    71   ar
     7    70    69   ar
     8    65    66    1
     9    65    68    1
    10    79    78    2
    11    71    69   ar
    12    69    68    1
    13    78    77    1
    14    66    67    2
    15    76    77    1
    16    59    58    2
    17    88    87    2
    18    58    57    1
    19    77    80    1
    20    87    86    1
    21    52    51    2
    22    57    56    1
    23    57    60    1
    24    51    56   am
    25    51    50    1
    26    89    86    1
    27    89    90    1
    28    49    50    1
    29    80    81    1
    30    50    53    1
    31    86    85    1
    32    91    90    1
    33    91    92    1
    34    94    93    1
    35    60    61    1
    36    81    82    1
    37    92    93    2
    38    93    95    1
    39    53    54    1
    40    53    55    1
    41    63    61    1
    42    61    62    1
    43    82    83   ar
    44    82    84   ar
    45    39    38    1
    46     4     3    2
    47    29    28    1
    48    38    40    1
    49    38    37    2
    50    36    37    1
    51    36    35    1
    52     3     2    1
    53    48    46    1
    54     5     2    1
    55     5     6    1
    56    28    27    1
    57    20    18    1
    58    19    18    1
    59    18    17    2
    60     1     2    1
    61     9     7   am
    62    17    16    1
    63    35    34    1
    64    16    15    1
    65     7     8    2
    66     7     6    1
    67    46    45    1
    68    27    26    1
    69    14    15    1
    70    14    11    1
    71    34    31    1
    72    30    31    1
    73    10    11    1
    74    45    47    1
    75    45    42    1
    76    26    25    1
    77    31    32    1
    78    13    12    2
    79    11    12    1
    80    41    32   am
    81    41    42    1
    82    32    33    2
    83    42    43    1
    84    25    22    1
    85    44    43    2
    86    22    23    1
    87    22    21    1
    88    23    24    2
