@<TRIPOS>MOLECULE
tmp/5zjpB01.pdb
 168 159 0 0 0
SMALL
GASTEIGER

@<TRIPOS>ATOM
      1  N        -17.4540  -19.3720   11.7490 N.3    20  SER20      -0.1217
      2  CA       -18.7090  -19.5060   11.0170 C.3    20  SER20       0.1889
      3  C        -19.2350  -18.1100   10.7000 C.2    20  SER20       0.2288
      4  O        -19.6650  -17.3810   11.6010 O.2    20  SER20      -0.2866
      5  CB       -19.7250  -20.3070   11.8260 C.3    20  SER20       0.2089
      6  OG       -20.9840  -20.3350   11.1770 O.3    20  SER20      -0.2183
      7  N        -21.9850  -16.3820    9.3390 N.3    22  GLN22      -0.1245
      8  CA       -23.3980  -16.4890    8.9810 C.3    22  GLN22       0.1566
      9  C        -24.1740  -15.3870    9.6840 C.2    22  GLN22       0.2260
     10  O        -24.6570  -15.5700   10.8090 O.2    22  GLN22      -0.2867
     11  CB       -23.9730  -17.8590    9.3450 C.3    22  GLN22       0.0367
     12  CG       -23.2160  -19.0420    8.7810 C.3    22  GLN22       0.0905
     13  CD       -23.9150  -20.3540    9.0640 C.2    22  GLN22       0.2608
     14  OE1      -25.0390  -20.3770    9.5660 O.2    22  GLN22      -0.2717
     15  NE2      -23.2490  -21.4580    8.7490 N.am   22  GLN22      -0.0878
     16  N        -16.7080  -21.6390    7.9300 N.3    51  ARG51      -0.1245
     17  CA       -17.9800  -22.2040    7.4990 C.3    51  ARG51       0.1563
     18  C        -18.7820  -21.0870    6.8490 C.2    51  ARG51       0.2260
     19  O        -19.0610  -20.0660    7.4890 O.2    51  ARG51      -0.2867
     20  CB       -18.7610  -22.8110    8.6660 C.3    51  ARG51       0.0307
     21  CG       -20.1390  -23.3370    8.2630 C.3    51  ARG51       0.0489
     22  CD       -20.9450  -23.8420    9.4550 C.3    51  ARG51       0.2205
     23  NE       -20.6020  -25.2050    9.8470 N.pl3  51  ARG51      -0.0865
     24  CZ       -21.4000  -26.2540    9.6700 C.cat  51  ARG51       0.5346
     25  NH1      -21.0110  -27.4610   10.0590 N.pl3  51  ARG51       0.1354
     26  NH2      -22.5890  -26.0960    9.1080 N.pl3  51  ARG51       0.1354
     27  N        -22.1020  -24.8890    3.1640 N.3    72  ILE72      -0.1245
     28  CA       -23.4390  -25.4080    3.4210 C.3    72  ILE72       0.1561
     29  C        -24.4470  -24.5660    2.6570 C.2    72  ILE72       0.2260
     30  O        -24.1710  -23.4390    2.2410 O.2    72  ILE72      -0.2867
     31  CB       -23.8330  -25.4030    4.9210 C.3    72  ILE72       0.0252
     32  CG1      -23.8850  -23.9680    5.4530 C.3    72  ILE72       0.0019
     33  CG2      -22.9000  -26.2700    5.7500 C.3    72  ILE72       0.0019
     34  CD1      -24.5230  -23.8470    6.8220 C.3    72  ILE72       0.0001
     35  N        -28.4610  -23.7970    3.8370 N.3    74  LYS74      -0.1245
     36  CA       -29.4350  -24.0590    4.8840 C.3    74  LYS74       0.1561
     37  C        -30.8070  -23.6230    4.4020 C.2    74  LYS74       0.2260
     38  O        -30.9770  -22.4960    3.9290 O.2    74  LYS74      -0.2867
     39  CB       -29.0560  -23.3470    6.1860 C.3    74  LYS74       0.0271
     40  CG       -30.2370  -22.9350    7.0630 C.3    74  LYS74       0.0035
     41  CD       -29.7960  -21.9800    8.1630 C.3    74  LYS74       0.0206
     42  CE       -28.6430  -22.5790    8.9570 C.3    74  LYS74       0.1093
     43  NZ       -28.2810  -21.7600   10.1450 N.3    74  LYS74      -0.1314
     44  N        -32.3350  -28.9710    7.9590 N.3    83  ARG83      -0.1231
     45  CA       -31.9960  -27.6420    7.4640 C.3    83  ARG83       0.1694
     46  C        -30.6800  -27.5930    6.7050 C.2    83  ARG83       0.2591
     47  O        -30.5810  -26.8950    5.6960 O.2    83  ARG83      -0.2718
     48  CB       -31.9160  -26.6480    8.6310 C.3    83  ARG83       0.0321
     49  CG       -33.1940  -26.4660    9.4270 C.3    83  ARG83       0.0489
     50  CD       -32.9600  -25.4810   10.5600 C.3    83  ARG83       0.2205
     51  NE       -32.8190  -24.1130   10.0700 N.pl3  83  ARG83      -0.0865
     52  CZ       -32.3130  -23.1080   10.7780 C.cat  83  ARG83       0.5346
     53  NH1      -31.8840  -23.3100   12.0170 N.pl3  83  ARG83       0.1354
     54  NH2      -32.2360  -21.8960   10.2460 N.pl3  83  ARG83       0.1354
     55  N        -29.6700  -28.3340    7.1450 N.am   84  ILE84      -0.1980
     56  CA       -28.3070  -28.1640    6.6520 C.3    84  ILE84       0.1595
     57  C        -28.1120  -29.0410    5.4180 C.2    84  ILE84       0.2287
     58  O        -28.0010  -30.2670    5.5230 O.2    84  ILE84      -0.2864
     59  CB       -27.2550  -28.4640    7.7320 C.3    84  ILE84       0.0276
     60  CG1      -27.1410  -27.3360    8.7760 C.3    84  ILE84       0.0022
     61  CG2      -25.9010  -28.6830    7.1040 C.3    84  ILE84       0.0022
     62  CD1      -28.4050  -26.9160    9.4930 C.3    84  ILE84       0.0001
     63  N        -22.7490  -30.3110   15.7180 N.3   153  THR153     -0.1203
     64  CA       -23.4970  -29.1410   15.2610 C.3   153  THR153      0.1994
     65  C        -24.9620  -29.1820   15.6870 C.2   153  THR153      0.2617
     66  O        -25.5170  -28.1670   16.1230 O.2   153  THR153     -0.2717
     67  CB       -23.3930  -29.0260   13.7410 C.3   153  THR153      0.1784
     68  OG1      -22.0130  -28.9610   13.3590 O.3   153  THR153     -0.2211
     69  CG2      -24.1100  -27.7800   13.2450 C.3   153  THR153      0.0376
     70  N        -25.6050  -30.3430   15.5690 N.am  154  LEU154     -0.1979
     71  CA       -27.0510  -30.4410   15.7100 C.3   154  LEU154      0.1596
     72  C        -27.4860  -30.9140   17.0900 C.2   154  LEU154      0.2287
     73  O        -28.6790  -31.1540   17.3020 O.2   154  LEU154     -0.2864
     74  CB       -27.6230  -31.3640   14.6340 C.3   154  LEU154      0.0297
     75  CG       -27.5330  -30.8130   13.2100 C.3   154  LEU154      0.0022
     76  CD1      -28.0890  -31.8090   12.2100 C.3   154  LEU154      0.0001
     77  CD2      -28.2570  -29.4800   13.1030 C.3   154  LEU154      0.0001
     78  N        -30.6320  -29.2340   18.9050 N.3   157  TYR157     -0.1241
     79  CA       -31.4230  -28.5490   17.8900 C.3   157  TYR157      0.1605
     80  C        -32.4080  -29.4990   17.2180 C.2   157  TYR157      0.2264
     81  O        -32.7590  -29.3230   16.0500 O.2   157  TYR157     -0.2867
     82  CB       -30.5040  -27.8850   16.8690 C.3   157  TYR157      0.0534
     83  CG       -29.6040  -26.8570   17.5090 C.ar  157  TYR157     -0.0201
     84  CD1      -30.1330  -25.8620   18.3190 C.ar  157  TYR157     -0.0009
     85  CD2      -28.2260  -26.9030   17.3420 C.ar  157  TYR157     -0.0009
     86  CE1      -29.3220  -24.9240   18.9210 C.ar  157  TYR157      0.0417
     87  CE2      -27.4050  -25.9680   17.9430 C.ar  157  TYR157      0.0417
     88  CZ       -27.9600  -24.9810   18.7310 C.ar  157  TYR157      0.1957
     89  OH       -27.1530  -24.0450   19.3330 O.3   157  TYR157     -0.2866
     90  N        -18.8300  -28.0050   17.5610 N.3   184  GLU184     -0.1231
     91  CA       -19.5660  -26.8760   17.0130 C.3   184  GLU184      0.1699
     92  C        -20.9130  -26.7480   17.7080 C.2   184  GLU184      0.2593
     93  O        -21.6120  -27.7440   17.9100 O.2   184  GLU184     -0.2718
     94  CB       -19.7640  -27.0310   15.5000 C.3   184  GLU184      0.0402
     95  CG       -20.5430  -25.9030   14.8470 C.3   184  GLU184      0.1161
     96  CD       -20.5690  -26.0210   13.3360 C.2   184  GLU184      0.3649
     97  OE1      -19.7690  -26.8100   12.7890 O.co2 184  GLU184     -0.2457
     98  OE2      -21.3910  -25.3340   12.6960 O.co2 184  GLU184     -0.2457
     99  N        -21.2680  -25.5160   18.0670 N.am  185  GLY185     -0.1942
    100  CA       -22.5420  -25.2610   18.7060 C.3   185  GLY185      0.2014
    101  C        -22.4340  -24.7100   20.1120 C.2   185  GLY185      0.2639
    102  O        -22.0760  -25.4420   21.0400 O.2   185  GLY185     -0.2714
    103  N        -22.7080  -23.4120   20.2720 N.am  186  ARG186     -0.1963
    104  CA       -22.8740  -22.7700   21.5740 C.3   186  ARG186      0.1729
    105  C        -21.5620  -22.5930   22.3350 C.2   186  ARG186      0.2616
    106  O        -21.5770  -22.3450   23.5450 O.2   186  ARG186     -0.2715
    107  CB       -23.9150  -23.5270   22.4120 C.3   186  ARG186      0.0348
    108  CG       -25.3220  -23.3880   21.8300 C.3   186  ARG186      0.0492
    109  CD       -26.3990  -24.2000   22.5430 C.3   186  ARG186      0.2205
    110  NE       -26.5200  -25.5490   21.9890 N.pl3 186  ARG186     -0.0865
    111  CZ       -26.0770  -26.6600   22.5680 C.cat 186  ARG186      0.5346
    112  NH1      -25.4780  -26.6110   23.7460 N.pl3 186  ARG186      0.1354
    113  NH2      -26.2450  -27.8300   21.9660 N.pl3 186  ARG186      0.1354
    114  N        -20.4230  -22.7080   21.6490 N.am  187  TYR187     -0.1960
    115  CA       -19.1070  -22.4170   22.2230 C.3   187  TYR187      0.1771
    116  C        -18.8790  -20.9140   22.1080 C.2   187  TYR187      0.2619
    117  O        -18.2670  -20.4250   21.1570 O.2   187  TYR187     -0.2715
    118  CB       -18.0200  -23.2070   21.5070 C.3   187  TYR187      0.0574
    119  CG       -18.1040  -24.6980   21.7250 C.ar  187  TYR187     -0.0198
    120  CD1      -17.5980  -25.2800   22.8790 C.ar  187  TYR187     -0.0009
    121  CD2      -18.7040  -25.5210   20.7830 C.ar  187  TYR187     -0.0009
    122  CE1      -17.6730  -26.6420   23.0810 C.ar  187  TYR187      0.0417
    123  CE2      -18.7880  -26.8850   20.9780 C.ar  187  TYR187      0.0417
    124  CZ       -18.2730  -27.4380   22.1310 C.ar  187  TYR187      0.1957
    125  OH       -18.3540  -28.7940   22.3330 O.3   187  TYR187     -0.2866
    126  N        -19.3720  -20.1700   23.0950 N.am  188  ASN188     -0.1972
    127  CA       -19.5520  -18.7310   22.9650 C.3   188  ASN188      0.1688
    128  C        -18.4460  -17.8990   23.6080 C.2   188  ASN188      0.2292
    129  O        -18.4700  -16.6710   23.4800 O.2   188  ASN188     -0.2864
    130  CB       -20.9100  -18.3330   23.5470 C.3   188  ASN188      0.1181
    131  CG       -22.0660  -18.8770   22.7320 C.2   188  ASN188      0.2629
    132  OD1      -21.9160  -19.1820   21.5480 O.2   188  ASN188     -0.2716
    133  ND2      -23.2260  -19.0060   23.3640 N.am  188  ASN188     -0.0877
    134  N        -15.7000  -24.8960   15.8390 N.3   205  THR205     -0.1203
    135  CA       -16.3860  -23.8920   15.0380 C.3   205  THR205      0.1994
    136  C        -17.1930  -22.9840   15.9570 C.2   205  THR205      0.2618
    137  O        -17.9210  -23.4660   16.8310 O.2   205  THR205     -0.2717
    138  CB       -17.2990  -24.5480   14.0000 C.3   205  THR205      0.1784
    139  OG1      -16.5180  -25.3630   13.1190 O.3   205  THR205     -0.2211
    140  CG2      -18.0320  -23.4910   13.1850 C.3   205  THR205      0.0376
    141  N        -17.0600  -21.6750   15.7580 N.am  206  VAL206     -0.1965
    142  CA       -17.7540  -20.6710   16.5570 C.3   206  VAL206      0.1727
    143  C        -18.4010  -19.6710   15.6100 C.2   206  VAL206      0.2617
    144  O        -17.7420  -19.1560   14.7000 O.2   206  VAL206     -0.2715
    145  CB       -16.8040  -19.9540   17.5360 C.3   206  VAL206      0.0290
    146  CG1      -17.5570  -18.8830   18.3070 C.3   206  VAL206      0.0023
    147  CG2      -16.1650  -20.9550   18.4900 C.3   206  VAL206      0.0023
    148  N        -19.6880  -19.4000   15.8190 N.am  207  GLY207     -0.1940
    149  CA       -20.4240  -18.5190   14.9340 C.3   207  GLY207      0.2014
    150  C        -21.0110  -17.2780   15.5780 C.2   207  GLY207      0.2639
    151  O        -20.5920  -16.1590   15.2690 O.2   207  GLY207     -0.2714
    152  N        -21.9910  -17.4660   16.4670 N.am  208  SER208     -0.1949
    153  CA       -22.7410  -16.3370   17.0130 C.3   208  SER208      0.1924
    154  C        -21.8320  -15.3600   17.7480 C.2   208  SER208      0.2314
    155  O        -21.9140  -14.1440   17.5400 O.2   208  SER208     -0.2863
    156  CB       -23.8440  -16.8440   17.9430 C.3   208  SER208      0.2116
    157  OG       -24.7980  -17.6100   17.2290 O.3   208  SER208     -0.2180
    158  N        -22.4380  -12.6550   14.6400 N.3   212  ARG212     -0.1245
    159  CA       -23.8420  -12.2710   14.8040 C.3   212  ARG212      0.1563
    160  C        -23.8880  -11.1310   15.8170 C.2   212  ARG212      0.2260
    161  O        -24.0320  -11.3550   17.0220 O.2   212  ARG212     -0.2867
    162  CB       -24.7040  -13.4630   15.2140 C.3   212  ARG212      0.0307
    163  CG       -25.0090  -14.3910   14.0430 C.3   212  ARG212      0.0489
    164  CD       -25.7660  -15.6410   14.4570 C.3   212  ARG212      0.2205
    165  NE       -26.1020  -16.4620   13.2950 N.pl3 212  ARG212     -0.0865
    166  CZ       -26.3680  -17.7640   13.3450 C.cat 212  ARG212      0.5346
    167  NH1      -26.3400  -18.4060   14.5040 N.pl3 212  ARG212      0.1354
    168  NH2      -26.6630  -18.4240   12.2330 N.pl3 212  ARG212      0.1354
@<TRIPOS>BOND
     1    30    29    2
     2    29    28    1
     3    27    28    1
     4    28    31    1
     5    35    36    1
     6    38    37    2
     7    37    36    1
     8    36    39    1
     9    31    32    1
    10    31    33    1
    11    57    58    2
    12    57    56    1
    13    32    34    1
    14    47    46    2
    15    39    40    1
    16    56    55    1
    17    56    59    1
    18    46    55   am
    19    46    45    1
    20    18    19    2
    21    18    17    1
    22    40    41    1
    23    61    59    1
    24    45    44    1
    25    45    48    1
    26    17    16    1
    27    17    20    1
    28    59    60    1
    29    41    42    1
    30    21    20    1
    31    21    22    1
    32    48    49    1
    33    15    13   am
    34    60    62    1
    35    12    13    1
    36    12    11    1
    37    42    43    1
    38     8     7    1
    39     8    11    1
    40     8     9    1
    41    13    14    2
    42    26    24    1
    43    49    50    1
    44    22    23    1
    45    24    23    2
    46    24    25    1
    47     9    10    2
    48    51    50    1
    49    51    52    2
    50    54    52    1
    51     3     2    1
    52     3     4    2
    53    52    53    1
    54     2     1    1
    55     2     5    1
    56     6     5    1
    57    76    75    1
    58   168   166    1
    59    98    96   ar
    60    97    96   ar
    61    77    75    1
    62   139   138    1
    63   140   138    1
    64    75    74    1
    65    69    67    1
    66   165   166    2
    67   165   164    1
    68    96    95    1
    69   166   167    1
    70    68    67    1
    71    67    64    1
    72   138   135    1
    73   163   164    1
    74   163   162    1
    75    74    71    1
    76   158   159    1
    77   144   143    2
    78   159   162    1
    79   159   160    1
    80    95    94    1
    81   149   150    1
    82   149   148    1
    83   135   134    1
    84   135   136    1
    85    64    65    1
    86    64    63    1
    87   151   150    2
    88    94    91    1
    89    70    65   am
    90    70    71    1
    91   150   152   am
    92   143   148   am
    93   143   142    1
    94    65    66    2
    95    71    72    1
    96   141   136   am
    97   141   142    1
    98   160   161    2
    99   136   137    2
   100    81    80    2
   101   152   153    1
   102   142   145    1
   103    82    83    1
   104    82    79    1
   105    91    90    1
   106    91    92    1
   107   153   154    1
   108   153   156    1
   109    72    73    2
   110    80    79    1
   111   157   156    1
   112    85    83   ar
   113    85    87   ar
   114    83    84   ar
   115   145   146    1
   116   145   147    1
   117   155   154    2
   118    92    93    2
   119    92    99   am
   120    79    78    1
   121    87    88   ar
   122    99   100    1
   123    84    86   ar
   124   100   101    1
   125    88    86   ar
   126    88    89    1
   127   101   103   am
   128   101   102    2
   129   103   104    1
   130   121   123   ar
   131   121   119   ar
   132   123   124   ar
   133   117   116    2
   134   118   119    1
   135   118   115    1
   136   132   131    2
   137   104   105    1
   138   104   107    1
   139   114   115    1
   140   114   105   am
   141   119   120   ar
   142   108   107    1
   143   108   109    1
   144   113   111    1
   145   110   109    1
   146   110   111    2
   147   116   115    1
   148   116   126   am
   149   124   125    1
   150   124   122   ar
   151   105   106    2
   152   111   112    1
   153   131   133   am
   154   131   130    1
   155   120   122   ar
   156   127   126    1
   157   127   130    1
   158   127   128    1
   159   129   128    2
