@<TRIPOS>MOLECULE
tmp/5zk3A00.pdb
 172 169 0 0 0
SMALL
GASTEIGER

@<TRIPOS>ATOM
      1  N        181.1230   36.7270  528.0260 N.3    86  ASP86      -0.1225
      2  CA       180.5280   35.4270  528.3190 C.3    86  ASP86       0.1805
      3  C        181.5880   34.3960  528.6930 C.2    86  ASP86       0.2597
      4  O        181.4040   33.6250  529.6430 O.2    86  ASP86      -0.2718
      5  CB       179.7060   34.9530  527.1200 C.3    86  ASP86       0.1424
      6  CG       178.9360   33.6810  527.4080 C.2    86  ASP86       0.3668
      7  OD1      178.3230   33.5860  528.4920 O.co2  86  ASP86      -0.2456
      8  OD2      178.9300   32.7830  526.5430 O.co2  86  ASP86      -0.2456
      9  N        182.7100   34.3700  527.9690 N.am   87  TYR87      -0.1976
     10  CA       183.7260   33.3610  528.2520 C.3    87  TYR87       0.1639
     11  C        184.5210   33.6890  529.5110 C.2    87  TYR87       0.2290
     12  O        184.9070   32.7810  530.2570 O.2    87  TYR87      -0.2864
     13  CB       184.6510   33.1970  527.0460 C.3    87  TYR87       0.0560
     14  CG       184.0700   32.2890  525.9840 C.ar   87  TYR87      -0.0198
     15  CD1      183.1080   32.7530  525.0980 C.ar   87  TYR87      -0.0009
     16  CD2      184.4730   30.9640  525.8800 C.ar   87  TYR87      -0.0009
     17  CE1      182.5690   31.9250  524.1320 C.ar   87  TYR87       0.0417
     18  CE2      183.9400   30.1280  524.9170 C.ar   87  TYR87       0.0417
     19  CZ       182.9900   30.6150  524.0440 C.ar   87  TYR87       0.1957
     20  OH       182.4570   29.7870  523.0830 O.3    87  TYR87      -0.2866
     21  N        182.2150   32.6830  532.2850 N.3    90  SER90      -0.1202
     22  CA       182.1620   31.2260  532.3890 C.3    90  SER90       0.2020
     23  C        183.4050   30.6790  533.0810 C.2    90  SER90       0.2618
     24  O        183.3120   29.8420  533.9900 O.2    90  SER90      -0.2717
     25  CB       182.0040   30.6110  530.9980 C.3    90  SER90       0.2103
     26  OG       180.8840   31.1570  530.3290 O.3    90  SER90      -0.2182
     27  N        184.5850   31.1470  532.6620 N.am   91  ASN91      -0.1974
     28  CA       185.8240   30.6910  533.2840 C.3    91  ASN91       0.1688
     29  C        185.8710   31.0720  534.7580 C.2    91  ASN91       0.2292
     30  O        186.2680   30.2610  535.6060 O.2    91  ASN91      -0.2864
     31  CB       187.0240   31.2710  532.5380 C.3    91  ASN91       0.1181
     32  CG       188.3060   30.5150  532.8190 C.2    91  ASN91       0.2629
     33  OD1      188.6560   29.5790  532.0990 O.2    91  ASN91      -0.2716
     34  ND2      189.0140   30.9180  533.8680 N.am   91  ASN91      -0.0877
     35  N        183.9060   28.6000  536.6080 N.3    94  VAL94      -0.1245
     36  CA       184.5860   27.3150  536.7630 C.3    94  VAL94       0.1561
     37  C        185.6150   27.3830  537.8870 C.2    94  VAL94       0.2260
     38  O        185.6330   26.5370  538.7920 O.2    94  VAL94      -0.2867
     39  CB       185.2300   26.8870  535.4330 C.3    94  VAL94       0.0252
     40  CG1      186.0870   25.6540  535.6390 C.3    94  VAL94       0.0019
     41  CG2      184.1570   26.6280  534.3850 C.3    94  VAL94       0.0019
     42  N        191.1140   34.9090  528.7970 N.3   138  TRP138     -0.1241
     43  CA       190.1070   34.8920  527.7400 C.3   138  TRP138      0.1605
     44  C        189.9680   36.1960  526.9710 C.2   138  TRP138      0.2264
     45  O        189.7930   36.1610  525.7510 O.2   138  TRP138     -0.2867
     46  CB       188.7440   34.5140  528.3240 C.3   138  TRP138      0.0550
     47  CG       188.5680   33.0470  528.5040 C.ar  138  TRP138      0.0003
     48  CD1      188.5690   32.3570  529.6800 C.ar  138  TRP138      0.0946
     49  CD2      188.3720   32.0790  527.4700 C.ar  138  TRP138      0.0152
     50  NE1      188.3780   31.0170  529.4420 N.ar  138  TRP138     -0.2442
     51  CE2      188.2550   30.8210  528.0920 C.ar  138  TRP138      0.0810
     52  CE3      188.2810   32.1540  526.0770 C.ar  138  TRP138      0.0012
     53  CZ2      188.0530   29.6480  527.3700 C.ar  138  TRP138      0.0191
     54  CZ3      188.0810   30.9900  525.3630 C.ar  138  TRP138      0.0001
     55  CH2      187.9670   29.7550  526.0100 C.ar  138  TRP138      0.0015
     56  N        188.4860   30.0310  517.1180 N.3   164  PHE164     -0.1241
     57  CA       187.7410   28.7820  517.1510 C.3   164  PHE164      0.1605
     58  C        187.2890   28.3380  515.7650 C.2   164  PHE164      0.2264
     59  O        186.3920   27.4940  515.6550 O.2   164  PHE164     -0.2867
     60  CB       186.5330   28.9050  518.0840 C.3   164  PHE164      0.0534
     61  CG       186.8700   28.7380  519.5390 C.ar  164  PHE164     -0.0203
     62  CD1      188.1100   28.2540  519.9260 C.ar  164  PHE164     -0.0042
     63  CD2      185.9450   29.0560  520.5190 C.ar  164  PHE164     -0.0042
     64  CE1      188.4220   28.0960  521.2640 C.ar  164  PHE164     -0.0003
     65  CE2      186.2510   28.9000  521.8590 C.ar  164  PHE164     -0.0003
     66  CZ       187.4920   28.4200  522.2310 C.ar  164  PHE164     -0.0000
     67  N        189.0530   24.3120  519.3270 N.3   170  THR170     -0.1218
     68  CA       187.9150   24.4670  520.2240 C.3   170  THR170      0.1862
     69  C        187.8250   23.3070  521.2070 C.2   170  THR170      0.2287
     70  O        187.5630   23.5110  522.3980 O.2   170  THR170     -0.2866
     71  CB       186.6240   24.5850  519.4140 C.3   170  THR170      0.1770
     72  OG1      186.7860   25.5830  518.3980 O.3   170  THR170     -0.2211
     73  CG2      185.4600   24.9720  520.3150 C.3   170  THR170      0.0375
     74  N        190.6800   23.5380  523.8260 N.3   173  THR173     -0.1203
     75  CA       190.3120   24.5720  524.7870 C.3   173  THR173      0.1994
     76  C        189.2050   24.0900  525.7170 C.2   173  THR173      0.2617
     77  O        189.1820   24.4400  526.9030 O.2   173  THR173     -0.2717
     78  CB       189.8880   25.8400  524.0500 C.3   173  THR173      0.1784
     79  OG1      190.9350   26.2430  523.1590 O.3   173  THR173     -0.2211
     80  CG2      189.6250   26.9580  525.0330 C.3   173  THR173      0.0376
     81  N        188.2810   23.2740  525.1990 N.am  174  ALA174     -0.1979
     82  CA       187.2410   22.7060  526.0500 C.3   174  ALA174      0.1597
     83  C        187.8120   21.6900  527.0310 C.2   174  ALA174      0.2287
     84  O        187.2470   21.4890  528.1110 O.2   174  ALA174     -0.2864
     85  CB       186.1480   22.0640  525.1950 C.3   174  ALA174      0.0319
     86  N        189.4900   23.9140  529.7370 N.3   177  ALA177     -0.1231
     87  CA       188.5660   24.7860  530.4510 C.3   177  ALA177      0.1694
     88  C        187.4280   24.0490  531.1420 C.2   177  ALA177      0.2592
     89  O        186.9270   24.5350  532.1620 O.2   177  ALA177     -0.2718
     90  CB       187.9740   25.8270  529.4940 C.3   177  ALA177      0.0304
     91  N        186.9940   22.9020  530.6230 N.am  178  PHE178     -0.1976
     92  CA       185.8470   22.2070  531.1940 C.3   178  PHE178      0.1639
     93  C        186.1800   20.8250  531.7330 C.2   178  PHE178      0.2290
     94  O        185.8920   20.5390  532.9010 O.2   178  PHE178     -0.2864
     95  CB       184.7200   22.0980  530.1530 C.3   178  PHE178      0.0560
     96  CG       183.4960   21.3970  530.6660 C.ar  178  PHE178     -0.0200
     97  CD1      182.6430   22.0310  531.5540 C.ar  178  PHE178     -0.0042
     98  CD2      183.2030   20.1020  530.2720 C.ar  178  PHE178     -0.0042
     99  CE1      181.5190   21.3880  532.0370 C.ar  178  PHE178     -0.0003
    100  CE2      182.0790   19.4540  530.7500 C.ar  178  PHE178     -0.0003
    101  CZ       181.2360   20.0990  531.6330 C.ar  178  PHE178     -0.0000
    102  N        176.1910   21.7700  531.7540 N.3   322  TRP322     -0.1241
    103  CA       177.2730   22.1510  530.8600 C.3   322  TRP322      0.1605
    104  C        177.8590   20.9880  530.0700 C.2   322  TRP322      0.2264
    105  O        178.6610   21.2280  529.1630 O.2   322  TRP322     -0.2867
    106  CB       178.3900   22.8420  531.6530 C.3   322  TRP322      0.0550
    107  CG       178.0410   24.2320  532.0740 C.ar  322  TRP322      0.0003
    108  CD1      176.9380   24.6230  532.7760 C.ar  322  TRP322      0.0946
    109  CD2      178.8000   25.4210  531.8260 C.ar  322  TRP322      0.0152
    110  NE1      176.9610   25.9810  532.9770 N.ar  322  TRP322     -0.2442
    111  CE2      178.0940   26.4950  532.4050 C.ar  322  TRP322      0.0810
    112  CE3      180.0070   25.6820  531.1720 C.ar  322  TRP322      0.0012
    113  CZ2      178.5540   27.8080  532.3490 C.ar  322  TRP322      0.0191
    114  CZ3      180.4630   26.9870  531.1190 C.ar  322  TRP322      0.0001
    115  CH2      179.7380   28.0330  531.7030 C.ar  322  TRP322      0.0015
    116  N        176.7700   20.7290  525.8090 N.3   325  TYR325     -0.1227
    117  CA       177.4660   21.6080  524.8720 C.3   325  TYR325      0.1736
    118  C        178.8850   21.1210  524.6050 C.2   325  TYR325      0.2595
    119  O        179.3570   21.1440  523.4610 O.2   325  TYR325     -0.2718
    120  CB       177.4870   23.0400  525.4070 C.3   325  TYR325      0.0548
    121  CG       178.1110   24.0280  524.4520 C.ar  325  TYR325     -0.0200
    122  CD1      177.3530   24.6320  523.4610 C.ar  325  TYR325     -0.0009
    123  CD2      179.4590   24.3530  524.5370 C.ar  325  TYR325     -0.0009
    124  CE1      177.9170   25.5320  522.5810 C.ar  325  TYR325      0.0417
    125  CE2      180.0330   25.2530  523.6590 C.ar  325  TYR325      0.0417
    126  CZ       179.2560   25.8410  522.6840 C.ar  325  TYR325      0.1957
    127  OH       179.8180   26.7400  521.8070 O.3   325  TYR325     -0.2866
    128  N        179.5790   20.6630  525.6490 N.am  326  ASN326     -0.1974
    129  CA       180.9640   20.2420  525.4810 C.3   326  ASN326      0.1688
    130  C        181.0690   18.8970  524.7720 C.2   326  ASN326      0.2292
    131  O        182.0620   18.6430  524.0800 O.2   326  ASN326     -0.2864
    132  CB       181.6630   20.2040  526.8390 C.3   326  ASN326      0.1181
    133  CG       181.8130   21.5850  527.4490 C.2   326  ASN326      0.2629
    134  OD1      182.7490   22.3180  527.1270 O.2   326  ASN326     -0.2716
    135  ND2      180.8860   21.9500  528.3270 N.am  326  ASN326     -0.0877
    136  N        180.9150   19.8350  521.3510 N.3   329  VAL329     -0.1245
    137  CA       182.2420   20.2620  520.9200 C.3   329  VAL329      0.1561
    138  C        183.1080   19.0520  520.5840 C.2   329  VAL329      0.2260
    139  O        183.8580   19.0610  519.6000 O.2   329  VAL329     -0.2867
    140  CB       182.8900   21.1490  522.0000 C.3   329  VAL329      0.0252
    141  CG1      184.3430   21.4340  521.6620 C.3   329  VAL329      0.0019
    142  CG2      182.1160   22.4500  522.1470 C.3   329  VAL329      0.0019
    143  N        173.7500   25.7780  524.3970 N.3   348  TYR348     -0.1241
    144  CA       173.8810   27.1350  524.9210 C.3   348  TYR348      0.1605
    145  C        172.8570   27.4020  526.0170 C.2   348  TYR348      0.2264
    146  O        173.1860   27.9410  527.0820 O.2   348  TYR348     -0.2867
    147  CB       173.7120   28.1500  523.7880 C.3   348  TYR348      0.0534
    148  CG       175.0010   28.6850  523.2150 C.ar  348  TYR348     -0.0201
    149  CD1      175.6020   28.0800  522.1190 C.ar  348  TYR348     -0.0009
    150  CD2      175.6110   29.8070  523.7600 C.ar  348  TYR348     -0.0009
    151  CE1      176.7790   28.5720  521.5880 C.ar  348  TYR348      0.0417
    152  CE2      176.7880   30.3060  523.2380 C.ar  348  TYR348      0.0417
    153  CZ       177.3680   29.6850  522.1520 C.ar  348  TYR348      0.1957
    154  OH       178.5410   30.1780  521.6280 O.3   348  TYR348     -0.2866
    155  N        173.5500   25.6050  529.3180 N.3   351  CYS351     -0.1221
    156  CA       174.5940   26.3510  530.0130 C.3   351  CYS351      0.1808
    157  C        174.0290   27.5860  530.7010 C.2   351  CYS351      0.2601
    158  O        174.3520   27.8640  531.8620 O.2   351  CYS351     -0.2717
    159  CB       175.7040   26.7430  529.0380 C.3   351  CYS351      0.0970
    160  SG       176.7470   25.3680  528.5160 S.3   351  CYS351     -0.0800
    161  N        173.1700   28.3360  530.0060 N.am  352  TYR352     -0.1976
    162  CA       172.5630   29.5070  530.6300 C.3   352  TYR352      0.1639
    163  C        171.5840   29.1180  531.7320 C.2   352  TYR352      0.2290
    164  O        171.4510   29.8450  532.7230 O.2   352  TYR352     -0.2864
    165  CB       171.8700   30.3630  529.5720 C.3   352  TYR352      0.0560
    166  CG       172.8310   31.0230  528.6110 C.ar  352  TYR352     -0.0198
    167  CD1      174.1430   31.2840  528.9840 C.ar  352  TYR352     -0.0009
    168  CD2      172.4300   31.3830  527.3320 C.ar  352  TYR352     -0.0009
    169  CE1      175.0280   31.8870  528.1130 C.ar  352  TYR352      0.0417
    170  CE2      173.3090   31.9870  526.4510 C.ar  352  TYR352      0.0417
    171  CZ       174.6070   32.2360  526.8480 C.ar  352  TYR352      0.1957
    172  OH       175.4880   32.8360  525.9770 O.3   352  TYR352     -0.2866
@<TRIPOS>BOND
     1    59    58    2
     2    58    57    1
     3    56    57    1
     4    57    60    1
     5    60    61    1
     6    72    71    1
     7    67    68    1
     8    71    68    1
     9    71    73    1
    10    61    62   ar
    11    61    63   ar
    12   139   138    2
    13    62    64   ar
    14    68    69    1
    15    63    65   ar
    16   138   137    1
    17   137   136    1
    18   137   140    1
    19    69    70    2
    20    64    66   ar
    21   151   149   ar
    22   151   153   ar
    23   154   153    1
    24   141   140    1
    25   127   126    1
    26    65    66   ar
    27   140   142    1
    28   149   148   ar
    29   153   152   ar
    30   124   126   ar
    31   124   122   ar
    32   126   125   ar
    33    20    19    1
    34    79    78    1
    35   148   150   ar
    36   148   147    1
    37   152   150   ar
    38   122   121   ar
    39   119   118    2
    40   125   123   ar
    41   147   144    1
    42    74    75    1
    43    19    17   ar
    44    19    18   ar
    45    78    75    1
    46    78    80    1
    47   131   130    2
    48    17    15   ar
    49   143   144    1
    50   121   123   ar
    51   121   120    1
    52   118   117    1
    53   118   128   am
    54   130   129    1
    55    75    76    1
    56   117   120    1
    57   117   116    1
    58    18    16   ar
    59   144   145    1
    60    15    14   ar
    61    85    82    1
    62    81    76   am
    63    81    82    1
    64    54    55   ar
    65    54    52   ar
    66   129   128    1
    67   129   132    1
    68    76    77    2
    69    45    44    2
    70    16    14   ar
    71   172   171    1
    72    14    13    1
    73    55    53   ar
    74   145   146    2
    75    82    83    1
    76    52    49   ar
    77   170   171   ar
    78   170   168   ar
    79     8     6   ar
    80   132   133    1
    81   171   169   ar
    82    44    43    1
    83    83    84    2
    84    13    10    1
    85     5     6    1
    86     5     2    1
    87   134   133    2
    88   168   166   ar
    89    53    51   ar
    90     6     7   ar
    91   133   135   am
    92    49    51   ar
    93    49    47   ar
    94    43    46    1
    95    43    42    1
    96     9    10    1
    97     9     3   am
    98     1     2    1
    99    51    50   ar
   100   169   167   ar
   101    10    11    1
   102     2     3    1
   103    46    47    1
   104    47    48   ar
   105   160   159    1
   106   166   167   ar
   107   166   165    1
   108     3     4    2
   109   159   156    1
   110   105   104    2
   111   155   156    1
   112    50    48   ar
   113    90    87    1
   114    11    12    2
   115   165   162    1
   116    86    87    1
   117   161   162    1
   118   161   157   am
   119   156   157    1
   120   104   103    1
   121    95    96    1
   122    95    92    1
   123    98    96   ar
   124    98   100   ar
   125    26    25    1
   126    87    88    1
   127    91    88   am
   128    91    92    1
   129   162   163    1
   130    96    97   ar
   131   157   158    2
   132   100   101   ar
   133   103   106    1
   134   103   102    1
   135    25    22    1
   136   114   112   ar
   137   114   115   ar
   138    88    89    2
   139   112   109   ar
   140    92    93    1
   141    97    99   ar
   142   101    99   ar
   143   106   107    1
   144   115   113   ar
   145   163   164    2
   146    93    94    2
   147   109   107   ar
   148   109   111   ar
   149   107   108   ar
   150    33    32    2
   151    21    22    1
   152   113   111   ar
   153    22    23    1
   154   111   110   ar
   155    31    32    1
   156    31    28    1
   157    27    23   am
   158    27    28    1
   159   108   110   ar
   160    32    34   am
   161    23    24    2
   162    28    29    1
   163    41    39    1
   164    29    30    2
   165    39    40    1
   166    39    36    1
   167    35    36    1
   168    36    37    1
   169    37    38    2
