@<TRIPOS>MOLECULE
tmp/5zk4A00.pdb
 142 130 0 0 0
SMALL
GASTEIGER

@<TRIPOS>ATOM
      1  N         42.0380   58.9310   10.2490 N.3    11  GLN11      -0.1231
      2  CA        41.4850   59.3110   11.5640 C.3    11  GLN11       0.1698
      3  C         41.0670   60.7700   11.6330 C.2    11  GLN11       0.2592
      4  O         41.8440   61.6910   11.3060 O.2    11  GLN11      -0.2718
      5  CB        42.4760   58.9200   12.6760 C.3    11  GLN11       0.0381
      6  CG        42.5850   57.4100   12.8870 C.3    11  GLN11       0.0905
      7  CD        43.0840   57.0460   14.3200 C.2    11  GLN11       0.2608
      8  OE1       42.3520   56.4830   15.1170 O.2    11  GLN11      -0.2717
      9  NE2       44.3330   57.3860   14.6280 N.am   11  GLN11      -0.0878
     10  N         39.8520   60.9900   12.1310 N.am   12  GLY12      -0.1957
     11  CA        39.2800   62.3100   12.1470 C.3    12  GLY12       0.1869
     12  C         38.1650   62.4060   11.1420 C.2    12  GLY12       0.2309
     13  O         37.2990   63.2300   11.3120 O.2    12  GLY12      -0.2863
     14  N         45.5890   59.3560    3.2530 N.3    87  HIS87      -0.1226
     15  CA        45.9440   60.2960    4.2980 C.3    87  HIS87       0.1752
     16  C         45.9420   59.5870    5.6290 C.2    87  HIS87       0.2596
     17  O         44.8960   59.0950    6.0910 O.2    87  HIS87      -0.2718
     18  CB        44.9260   61.3960    4.2850 C.3    87  HIS87       0.0759
     19  CG        45.2400   62.5650    5.1760 C.ar   87  HIS87       0.0818
     20  ND1       44.3980   62.9560    6.1880 N.ar   87  HIS87      -0.2268
     21  CD2       46.2470   63.4650    5.1510 C.ar   87  HIS87       0.1154
     22  CE1       44.8440   64.0670    6.7220 C.ar   87  HIS87       0.1986
     23  NE2       45.9940   64.3760    6.1350 N.ar   87  HIS87      -0.2212
     24  N         47.0980   59.5050    6.2660 N.am   88  CYS88      -0.1970
     25  CA        47.2160   58.8930    7.5520 C.3    88  CYS88       0.1712
     26  C         46.7480   57.4540    7.5090 C.2    88  CYS88       0.2296
     27  O         47.3420   56.6950    6.7430 O.2    88  CYS88      -0.2864
     28  CB        46.4510   59.7150    8.5800 C.3    88  CYS88       0.0983
     29  SG        46.9530   61.4570    8.5070 S.3    88  CYS88      -0.0798
     30  N         47.1060   66.3880   20.4670 N.3   125  MET125     -0.1245
     31  CA        47.2510   66.9740   19.1770 C.3   125  MET125      0.1570
     32  C         46.2970   68.1470   19.0680 C.2   125  MET125      0.2261
     33  O         45.2630   68.1670   19.7400 O.2   125  MET125     -0.2867
     34  CB        46.9110   65.9760   18.0540 C.3   125  MET125      0.0387
     35  CG        47.6670   64.6420   18.1130 C.3   125  MET125      0.0595
     36  SD        47.1610   63.5400   16.7470 S.3   125  MET125     -0.1393
     37  CE        48.1690   64.0900   15.3650 C.3   125  MET125      0.0692
     38  N         44.7890   71.0180   15.8860 N.3   127  ALA127     -0.1245
     39  CA        44.7150   71.5540   14.4990 C.3   127  ALA127      0.1562
     40  C         44.7500   72.9850   14.4960 C.2   127  ALA127      0.2260
     41  O         44.0490   73.6050   15.2890 O.2   127  ALA127     -0.2867
     42  CB        43.4120   71.1330   13.8410 C.3   127  ALA127      0.0290
     43  N         44.6770   76.5820   12.1260 N.3   129  ILE129     -0.1245
     44  CA        44.3820   77.2730   10.9050 C.3   129  ILE129      0.1561
     45  C         45.0840   78.6240   10.8540 C.2   129  ILE129      0.2260
     46  O         45.0950   79.3840   11.8510 O.2   129  ILE129     -0.2867
     47  CB        42.8490   77.4030   10.7150 C.3   129  ILE129      0.0252
     48  CG1       42.2410   76.0290   10.4600 C.3   129  ILE129      0.0019
     49  CG2       42.5060   78.2380    9.5130 C.3   129  ILE129      0.0019
     50  CD1       40.7280   75.9870   10.4740 C.3   129  ILE129      0.0001
     51  N         50.7450   66.6910   10.8320 N.3   152  ASN152     -0.1240
     52  CA        50.1280   66.7190    9.4870 C.3   152  ASN152      0.1653
     53  C         50.4210   68.0570    8.8240 C.2   152  ASN152      0.2266
     54  O         50.2140   69.1040    9.4690 O.2   152  ASN152     -0.2867
     55  CB        48.5640   66.6570    9.5020 C.3   152  ASN152      0.1155
     56  CG        47.9280   65.4620   10.1150 C.2   152  ASN152      0.2627
     57  OD1       46.7070   65.4680   10.1780 O.2   152  ASN152     -0.2716
     58  ND2       48.6400   64.4340   10.4960 N.am  152  ASN152     -0.0877
     59  N         48.5990   69.5840    6.0310 N.3   154  ASN154     -0.1240
     60  CA        47.3850   69.2330    5.2980 C.3   154  ASN154      0.1653
     61  C         47.0630   70.1010    4.0910 C.2   154  ASN154      0.2266
     62  O         46.6610   69.5970    3.0460 O.2   154  ASN154     -0.2867
     63  CB        46.2230   69.0970    6.2430 C.3   154  ASN154      0.1155
     64  CG        46.3130   67.8570    7.0820 C.2   154  ASN154      0.2627
     65  OD1       47.0280   66.9160    6.7330 O.2   154  ASN154     -0.2716
     66  ND2       45.6600   67.8700    8.2250 N.am  154  ASN154     -0.0877
     67  N         46.5470   74.7870    6.8950 N.3   158  GLN158     -0.1245
     68  CA        46.1680   73.8150    7.9040 C.3   158  GLN158      0.1566
     69  C         47.3060   72.8320    8.2430 C.2   158  GLN158      0.2260
     70  O         47.8480   72.1150    7.3610 O.2   158  GLN158     -0.2867
     71  CB        44.9470   73.0240    7.5020 C.3   158  GLN158      0.0367
     72  CG        43.7390   73.8610    7.2510 C.3   158  GLN158      0.0905
     73  CD        42.4640   73.0900    7.5290 C.2   158  GLN158      0.2608
     74  OE1       42.4710   71.8760    7.6530 O.2   158  GLN158     -0.2717
     75  NE2       41.3660   73.8120    7.6670 N.am  158  GLN158     -0.0878
     76  N         48.6310   70.1160   11.6780 N.3   160  VAL160     -0.1245
     77  CA        48.2790   69.4960   12.9300 C.3   160  VAL160      0.1561
     78  C         49.5440   69.2850   13.7240 C.2   160  VAL160      0.2260
     79  O         50.5510   68.7590   13.2070 O.2   160  VAL160     -0.2867
     80  CB        47.4770   68.2080   12.7740 C.3   160  VAL160      0.0252
     81  CG1       47.0860   67.6540   14.1530 C.3   160  VAL160      0.0019
     82  CG2       46.2220   68.4540   11.9770 C.3   160  VAL160      0.0019
     83  N         42.5050   68.2440   20.0850 N.3   186  LEU186     -0.1245
     84  CA        41.7270   67.1760   19.4780 C.3   186  LEU186      0.1561
     85  C         41.4500   66.1600   20.5550 C.2   186  LEU186      0.2260
     86  O         42.1520   66.1240   21.5540 O.2   186  LEU186     -0.2867
     87  CB        42.4630   66.5420   18.2720 C.3   186  LEU186      0.0270
     88  CG        42.8050   67.5060   17.1740 C.3   186  LEU186      0.0019
     89  CD1       43.5140   66.7550   16.0620 C.3   186  LEU186      0.0001
     90  CD2       41.5300   68.1330   16.6290 C.3   186  LEU186      0.0001
     91  N         42.1590   63.1200   21.2970 N.3   188  VAL188     -0.1245
     92  CA        43.0160   61.9530   21.1010 C.3   188  VAL188      0.1561
     93  C         43.8080   61.8390   22.4140 C.2   188  VAL188      0.2260
     94  O         44.0290   62.8730   23.0620 O.2   188  VAL188     -0.2867
     95  CB        43.9350   62.2200   19.8820 C.3   188  VAL188      0.0252
     96  CG1       43.1470   62.8430   18.7150 C.3   188  VAL188      0.0019
     97  CG2       45.0370   63.2230   20.2430 C.3   188  VAL188      0.0019
     98  N         49.8790   61.2710   17.8710 N.3   192  PHE192     -0.1227
     99  CA        50.0160   60.4980   16.6270 C.3   192  PHE192      0.1736
    100  C         50.9410   61.2890   15.6560 C.2   192  PHE192      0.2595
    101  O         50.9740   62.5260   15.6880 O.2   192  PHE192     -0.2718
    102  CB        48.6830   60.2180   15.8920 C.3   192  PHE192      0.0547
    103  CG        47.6390   59.4850   16.6700 C.ar  192  PHE192     -0.0202
    104  CD1       47.9350   58.3620   17.4070 C.ar  192  PHE192     -0.0042
    105  CD2       46.3260   59.9590   16.6880 C.ar  192  PHE192     -0.0042
    106  CE1       46.9430   57.6860   18.1050 C.ar  192  PHE192     -0.0003
    107  CE2       45.3360   59.2980   17.4490 C.ar  192  PHE192     -0.0003
    108  CZ        45.6490   58.1600   18.1190 C.ar  192  PHE192     -0.0000
    109  N         51.7100   60.5580   14.8570 N.am  193  HIS193     -0.1975
    110  CA        52.6090   61.1040   13.8370 C.3   193  HIS193      0.1656
    111  C         53.6540   62.0770   14.4190 C.2   193  HIS193      0.2291
    112  O         54.0330   63.0760   13.7790 O.2   193  HIS193     -0.2864
    113  CB        51.8050   61.7100   12.6730 C.3   193  HIS193      0.0771
    114  CG        50.9960   60.6760   11.9640 C.ar  193  HIS193      0.0820
    115  ND1       51.5840   59.6830   11.2000 N.ar  193  HIS193     -0.2267
    116  CD2       49.6800   60.3920   11.9980 C.ar  193  HIS193      0.1154
    117  CE1       50.6470   58.8590   10.7730 C.ar  193  HIS193      0.1986
    118  NE2       49.4900   59.2550   11.2460 N.ar  193  HIS193     -0.2212
    119  N         36.5820   65.2910    3.8120 N.3   271  VAL271     -0.1245
    120  CA        37.7550   65.8960    4.4080 C.3   271  VAL271      0.1561
    121  C         38.8420   66.2040    3.3530 C.2   271  VAL271      0.2260
    122  O         39.3450   67.2920    3.2760 O.2   271  VAL271     -0.2867
    123  CB        38.3200   65.0240    5.5160 C.3   271  VAL271      0.0252
    124  CG1       39.6780   65.5020    5.9450 C.3   271  VAL271      0.0019
    125  CG2       37.3370   65.0020    6.7050 C.3   271  VAL271      0.0019
    126  N         40.5000   69.6800    1.4430 N.3   275  LEU275     -0.1245
    127  CA        41.9270   69.9410    1.3950 C.3   275  LEU275      0.1561
    128  C         42.4210   70.0490    0.0010 C.2   275  LEU275      0.2260
    129  O         43.2340   70.9250   -0.2590 O.2   275  LEU275     -0.2867
    130  CB        42.7320   68.8240    2.0740 C.3   275  LEU275      0.0270
    131  CG        42.4890   68.7490    3.6170 C.3   275  LEU275      0.0019
    132  CD1       43.2710   67.5670    4.1260 C.3   275  LEU275      0.0001
    133  CD2       42.7680   70.0100    4.4730 C.3   275  LEU275      0.0001
    134  N         41.6040   73.5040   -1.3020 N.3   278  GLN278     -0.1245
    135  CA        42.5100   74.5090   -0.7690 C.3   278  GLN278      0.1566
    136  C         43.9020   74.5540   -1.4450 C.2   278  GLN278      0.2260
    137  O         44.4350   75.6340   -1.8040 O.2   278  GLN278     -0.2867
    138  CB        42.6620   74.3060    0.7590 C.3   278  GLN278      0.0367
    139  CG        41.3770   74.4540    1.5430 C.3   278  GLN278      0.0905
    140  CD        41.5720   73.9440    2.9890 C.2   278  GLN278      0.2608
    141  OE1       42.5780   74.2820    3.6140 O.2   278  GLN278     -0.2717
    142  NE2       40.6870   73.0350    3.4520 N.am  278  GLN278     -0.0878
@<TRIPOS>BOND
     1   137   136    2
     2   136   135    1
     3   134   135    1
     4   135   138    1
     5   129   128    2
     6   128   127    1
     7   138   139    1
     8   127   126    1
     9   127   130    1
    10   139   140    1
    11   130   131    1
    12   140   142   am
    13   140   141    2
    14    62    61    2
    15    14    15    1
    16   122   121    2
    17   121   120    1
    18   131   132    1
    19   131   133    1
    20   119   120    1
    21    61    60    1
    22    18    15    1
    23    18    19    1
    24    15    16    1
    25   120   123    1
    26    21    19   ar
    27    21    23   ar
    28    19    20   ar
    29    60    59    1
    30    60    63    1
    31   123   124    1
    32   123   125    1
    33    16    17    2
    34    16    24   am
    35    23    22   ar
    36    20    22   ar
    37    63    64    1
    38    24    25    1
    39    65    64    2
    40    27    26    2
    41    67    68    1
    42    64    66   am
    43    72    71    1
    44    72    73    1
    45    70    69    2
    46    71    68    1
    47    26    25    1
    48    73    74    2
    49    73    75   am
    50    25    28    1
    51    68    69    1
    52    29    28    1
    53    53    54    2
    54    53    52    1
    55    52    55    1
    56    52    51    1
    57    55    56    1
    58    49    47    1
    59    56    57    2
    60    56    58   am
    61     1     2    1
    62    48    50    1
    63    48    47    1
    64    47    44    1
    65   117   115   ar
    66   117   118   ar
    67    45    44    1
    68    45    46    2
    69    44    43    1
    70    12    13    2
    71    12    11    1
    72   115   114   ar
    73   118   116   ar
    74     4     3    2
    75     2     3    1
    76     2     5    1
    77     3    10   am
    78    76    77    1
    79   114   116   ar
    80   114   113    1
    81    82    80    1
    82    10    11    1
    83   113   110    1
    84     5     6    1
    85    80    77    1
    86    80    81    1
    87     6     7    1
    88    77    78    1
    89    79    78    2
    90   112   111    2
    91   110   111    1
    92   110   109    1
    93    42    39    1
    94     7     9   am
    95     7     8    2
    96    40    39    1
    97    40    41    2
    98    39    38    1
    99   109   100   am
   100    37    36    1
   101   100   101    2
   102   100    99    1
   103   102    99    1
   104   102   103    1
   105    89    88    1
   106    99    98    1
   107    90    88    1
   108   103   105   ar
   109   103   104   ar
   110   105   107   ar
   111    36    35    1
   112    88    87    1
   113   104   106   ar
   114   107   108   ar
   115    34    35    1
   116    34    31    1
   117   106   108   ar
   118    87    84    1
   119    96    95    1
   120    32    31    1
   121    32    33    2
   122    31    30    1
   123    84    83    1
   124    84    85    1
   125    95    97    1
   126    95    92    1
   127    85    86    2
   128    92    91    1
   129    92    93    1
   130    93    94    2
