@<TRIPOS>MOLECULE
tmp/5zk7A00.pdb
 140 137 0 0 0
SMALL
GASTEIGER

@<TRIPOS>ATOM
      1  N        -20.3470  -12.9320   -6.6230 N.3    20  PHE20      -0.1241
      2  CA       -20.7010  -14.3450   -6.7070 C.3    20  PHE20       0.1605
      3  C        -21.5310  -14.5460   -7.9690 C.2    20  PHE20       0.2264
      4  O        -22.3750  -13.7090   -8.2830 O.2    20  PHE20      -0.2867
      5  CB       -21.5060  -14.7540   -5.4750 C.3    20  PHE20       0.0534
      6  CG       -21.7970  -16.2280   -5.3950 C.ar   20  PHE20      -0.0203
      7  CD1      -22.9130  -16.7710   -6.0360 C.ar   20  PHE20      -0.0042
      8  CD2      -20.9670  -17.0730   -4.6680 C.ar   20  PHE20      -0.0042
      9  CE1      -23.1850  -18.1290   -5.9600 C.ar   20  PHE20      -0.0003
     10  CE2      -21.2380  -18.4300   -4.5870 C.ar   20  PHE20      -0.0003
     11  CZ       -22.3460  -18.9590   -5.2320 C.ar   20  PHE20      -0.0000
     12  N        -19.1710  -23.9550   -4.6240 N.3    22  TRP22      -0.1241
     13  CA       -19.7120  -22.6850   -4.1440 C.3    22  TRP22       0.1605
     14  C        -18.6030  -21.6500   -3.9550 C.2    22  TRP22       0.2264
     15  O        -18.6700  -20.5540   -4.5150 O.2    22  TRP22      -0.2867
     16  CB       -20.4780  -22.8910   -2.8320 C.3    22  TRP22       0.0550
     17  CG       -21.3330  -21.7210   -2.4440 C.ar   22  TRP22       0.0003
     18  CD1      -22.6420  -21.5160   -2.7760 C.ar   22  TRP22       0.0946
     19  CD2      -20.9390  -20.5920   -1.6530 C.ar   22  TRP22       0.0152
     20  NE1      -23.0890  -20.3300   -2.2410 N.ar   22  TRP22      -0.2442
     21  CE2      -22.0640  -19.7420   -1.5470 C.ar   22  TRP22       0.0810
     22  CE3      -19.7430  -20.2150   -1.0240 C.ar   22  TRP22       0.0012
     23  CZ2      -22.0310  -18.5340   -0.8360 C.ar   22  TRP22       0.0191
     24  CZ3      -19.7090  -19.0130   -0.3130 C.ar   22  TRP22       0.0001
     25  CH2      -20.8490  -18.1870   -0.2270 C.ar   22  TRP22       0.0015
     26  N        -24.5190  -12.4430   -6.5710 N.3    56  ASP56      -0.1239
     27  CA       -24.4530  -11.5620   -5.3990 C.3    56  ASP56       0.1674
     28  C        -23.3520  -10.5190   -5.5600 C.2    56  ASP56       0.2266
     29  O        -22.3350  -10.7740   -6.2000 O.2    56  ASP56      -0.2867
     30  CB       -24.1130  -12.3160   -4.1000 C.3    56  ASP56       0.1410
     31  CG       -24.9030  -13.5860   -3.9010 C.2    56  ASP56       0.3668
     32  OD1      -26.1110  -13.6220   -4.1940 O.co2  56  ASP56      -0.2456
     33  OD2      -24.2960  -14.5530   -3.4010 O.co2  56  ASP56      -0.2456
     34  N        -16.7440  -13.2030    2.6970 N.3    66  PRO66      -0.2102
     35  CA       -18.1990  -13.1550    2.7770 C.3    66  PRO66       0.1504
     36  C        -18.8250  -14.5610    2.7990 C.2    66  PRO66       0.2576
     37  O        -19.5260  -14.9560    1.8650 O.2    66  PRO66      -0.2718
     38  CB       -18.5670  -12.3880    1.5050 C.3    66  PRO66       0.0282
     39  CG       -17.5560  -12.8510    0.5240 C.3    66  PRO66       0.0208
     40  CD       -16.2830  -12.9420    1.3190 C.3    66  PRO66       0.0893
     41  N        -18.5730  -15.2960    3.8790 N.am   67  MET67      -0.1966
     42  CA       -19.0630  -16.6630    4.0400 C.3    67  MET67       0.1736
     43  C        -19.2030  -16.9890    5.5250 C.2    67  MET67       0.2616
     44  O        -18.4650  -16.4500    6.3550 O.2    67  MET67      -0.2715
     45  CB       -18.1250  -17.6590    3.3450 C.3    67  MET67       0.0427
     46  CG       -16.7620  -17.8440    4.0070 C.3    67  MET67       0.0599
     47  SD       -15.4570  -18.4130    2.8870 S.3    67  MET67      -0.1393
     48  CE       -16.2930  -19.6960    1.9520 C.3    67  MET67       0.0692
     49  N        -20.1540  -17.8660    5.8440 N.am   68  TRP68      -0.1960
     50  CA       -20.4780  -18.2240    7.2370 C.3    68  TRP68       0.1771
     51  C        -19.2590  -18.7060    8.0240 C.2    68  TRP68       0.2619
     52  O        -19.1150  -18.3810    9.2030 O.2    68  TRP68      -0.2715
     53  CB       -21.5410  -19.3300    7.3060 C.3    68  TRP68       0.0590
     54  CG       -22.8190  -19.0550    6.5760 C.ar   68  TRP68       0.0006
     55  CD1      -23.4870  -17.8690    6.5020 C.ar   68  TRP68       0.0946
     56  CD2      -23.5990  -20.0050    5.8380 C.ar   68  TRP68       0.0152
     57  NE1      -24.6300  -18.0150    5.7480 N.ar   68  TRP68      -0.2442
     58  CE2      -24.7230  -19.3160    5.3280 C.ar   68  TRP68       0.0810
     59  CE3      -23.4520  -21.3710    5.5500 C.ar   68  TRP68       0.0012
     60  CZ2      -25.7020  -19.9480    4.5440 C.ar   68  TRP68       0.0191
     61  CZ3      -24.4240  -22.0000    4.7680 C.ar   68  TRP68       0.0001
     62  CH2      -25.5340  -21.2860    4.2760 C.ar   68  TRP68       0.0015
     63  N        -18.3900  -19.4660    7.3540 N.am   69  GLU69      -0.1977
     64  CA       -17.2790  -20.1740    8.0000 C.3    69  GLU69       0.1602
     65  C        -16.0820  -19.2990    8.4200 C.2    69  GLU69       0.2287
     66  O        -15.2100  -19.7760    9.1510 O.2    69  GLU69      -0.2864
     67  CB       -16.7930  -21.3380    7.1090 C.3    69  GLU69       0.0415
     68  CG       -17.7130  -22.5640    7.0890 C.3    69  GLU69       0.1163
     69  CD       -18.9500  -22.4230    6.2040 C.2    69  GLU69       0.3649
     70  OE1      -19.9750  -23.0660    6.5230 O.co2  69  GLU69      -0.2457
     71  OE2      -18.9120  -21.6880    5.1910 O.co2  69  GLU69      -0.2457
     72  N        -27.3030  -12.1130   10.5440 N.3    78  ARG78      -0.1245
     73  CA       -27.6230  -11.0660    9.5800 C.3    78  ARG78       0.1563
     74  C        -28.9980  -10.4640    9.8100 C.2    78  ARG78       0.2260
     75  O        -29.9320  -11.1730   10.1600 O.2    78  ARG78      -0.2867
     76  CB       -27.5170  -11.6090    8.1460 C.3    78  ARG78       0.0307
     77  CG       -28.6310  -12.5680    7.7460 C.3    78  ARG78       0.0489
     78  CD       -28.4090  -13.1970    6.3790 C.3    78  ARG78       0.2205
     79  NE       -29.5150  -14.0930    6.0300 N.pl3  78  ARG78      -0.0865
     80  CZ       -29.6920  -14.6910    4.8480 C.cat  78  ARG78       0.5346
     81  NH1      -30.7460  -15.4790    4.6680 N.pl3  78  ARG78       0.1354
     82  NH2      -28.8390  -14.5150    3.8450 N.pl3  78  ARG78       0.1354
     83  N        -28.4570  -10.3800   -2.6440 N.3   121  ASN121     -0.1240
     84  CA       -28.7530  -11.5410   -3.4730 C.3   121  ASN121      0.1653
     85  C        -29.7420  -11.1300   -4.5510 C.2   121  ASN121      0.2266
     86  O        -30.8390  -10.6600   -4.2370 O.2   121  ASN121     -0.2867
     87  CB       -29.3660  -12.6620   -2.6310 C.3   121  ASN121      0.1155
     88  CG       -28.5340  -13.0060   -1.4160 C.2   121  ASN121      0.2627
     89  OD1      -29.0010  -12.8790   -0.2850 O.2   121  ASN121     -0.2716
     90  ND2      -27.3010  -13.4420   -1.6380 N.am  121  ASN121     -0.0877
     91  N        -32.1720  -12.5140   -7.1530 N.3   123  ARG123     -0.1245
     92  CA       -32.8860  -13.7810   -7.3470 C.3   123  ARG123      0.1563
     93  C        -34.2190  -13.5780   -8.0660 C.2   123  ARG123      0.2260
     94  O        -34.8300  -12.5110   -7.9750 O.2   123  ARG123     -0.2867
     95  CB       -33.1640  -14.4470   -5.9920 C.3   123  ARG123      0.0307
     96  CG       -31.9390  -14.7720   -5.1520 C.3   123  ARG123      0.0489
     97  CD       -31.1100  -15.8900   -5.7590 C.3   123  ARG123      0.2205
     98  NE       -29.9720  -16.2260   -4.9030 N.pl3 123  ARG123     -0.0865
     99  CZ       -28.7760  -15.6310   -4.9160 C.cat 123  ARG123      0.5346
    100  NH1      -28.4950  -14.6270   -5.7540 N.pl3 123  ARG123      0.1354
    101  NH2      -27.8380  -16.0460   -4.0650 N.pl3 123  ARG123      0.1354
    102  N        -36.9910  -15.4060   -7.3760 N.3   125  LYS125     -0.1245
    103  CA       -38.0250  -15.4760   -6.3320 C.3   125  LYS125      0.1561
    104  C        -38.2390  -14.1520   -5.5840 C.2   125  LYS125      0.2260
    105  O        -39.3060  -13.9330   -5.0010 O.2   125  LYS125     -0.2867
    106  CB       -37.6920  -16.5770   -5.3160 C.3   125  LYS125      0.0271
    107  CG       -36.3480  -16.4380   -4.6390 C.3   125  LYS125      0.0035
    108  CD       -36.0620  -17.5160   -3.6130 C.3   125  LYS125      0.0206
    109  CE       -34.8950  -17.0080   -2.7940 C.3   125  LYS125      0.1093
    110  NZ       -34.2130  -18.0310   -2.0440 N.3   125  LYS125     -0.1314
    111  N        -32.8120  -10.0670   -2.0370 N.3   128  LYS128     -0.1245
    112  CA       -32.5150   -9.9670   -0.6040 C.3   128  LYS128      0.1561
    113  C        -31.2650   -9.1280   -0.3560 C.2   128  LYS128      0.2260
    114  O        -30.2890   -9.2440   -1.0960 O.2   128  LYS128     -0.2867
    115  CB       -32.3220  -11.3590    0.0010 C.3   128  LYS128      0.0271
    116  CG       -33.5970  -12.1880    0.0590 C.3   128  LYS128      0.0035
    117  CD       -33.3350  -13.5990    0.5710 C.3   128  LYS128      0.0206
    118  CE       -32.5330  -14.4260   -0.4250 C.3   128  LYS128      0.1093
    119  NZ       -32.6700  -15.8860   -0.1730 N.3   128  LYS128     -0.1314
    120  N        -24.3760   -8.2730    7.7320 N.3   132  TRP132     -0.1241
    121  CA       -23.7990   -9.3530    8.5120 C.3   132  TRP132      0.1605
    122  C        -23.0230   -8.7680    9.6950 C.2   132  TRP132      0.2264
    123  O        -22.1480   -7.9200    9.4970 O.2   132  TRP132     -0.2867
    124  CB       -22.8440  -10.1720    7.6430 C.3   132  TRP132      0.0550
    125  CG       -23.5050  -11.1060    6.6580 C.ar  132  TRP132      0.0003
    126  CD1      -24.6990  -10.9280    6.0080 C.ar  132  TRP132      0.0946
    127  CD2      -22.9790  -12.3480    6.1910 C.ar  132  TRP132      0.0152
    128  NE1      -24.9470  -11.9930    5.1780 N.ar  132  TRP132     -0.2442
    129  CE2      -23.9040  -12.8760    5.2650 C.ar  132  TRP132      0.0810
    130  CE3      -21.8090  -13.0670    6.4640 C.ar  132  TRP132      0.0012
    131  CZ2      -23.7000  -14.1000    4.6160 C.ar  132  TRP132      0.0191
    132  CZ3      -21.6030  -14.2790    5.8190 C.ar  132  TRP132      0.0001
    133  CH2      -22.5480  -14.7860    4.9050 C.ar  132  TRP132      0.0015
    134  N        -29.4610  -20.6960   10.0140 N.3   169  THR169     -0.1218
    135  CA       -29.6060  -20.7160    8.5500 C.3   169  THR169      0.1862
    136  C        -28.8860  -21.9230    7.9160 C.2   169  THR169      0.2287
    137  O        -29.2900  -22.3950    6.8520 O.2   169  THR169     -0.2866
    138  CB       -29.0880  -19.4010    7.9110 C.3   169  THR169      0.1770
    139  OG1      -29.6600  -18.2730    8.5880 O.3   169  THR169     -0.2211
    140  CG2      -29.4500  -19.3190    6.4260 C.3   169  THR169      0.0375
@<TRIPOS>BOND
     1     4     3    2
     2    93    94    2
     3    93    92    1
     4     3     2    1
     5   102   103    1
     6    92    91    1
     7    92    95    1
     8     2     1    1
     9     2     5    1
    10    26    27    1
    11   103   104    1
    12   103   106    1
    13    29    28    2
    14     7     9   ar
    15     7     6   ar
    16    95    96    1
    17     9    11   ar
    18    97    96    1
    19    97    98    1
    20   100    99    1
    21   104   105    2
    22    28    27    1
    23     5     6    1
    24    27    30    1
    25     6     8   ar
    26   106   107    1
    27    11    10   ar
    28    99    98    2
    29    99   101    1
    30     8    10   ar
    31   107   108    1
    32    12    13    1
    33    85    86    2
    34    85    84    1
    35    15    14    2
    36    32    31   ar
    37    13    14    1
    38    13    16    1
    39    30    31    1
    40    31    33   ar
    41   108   109    1
    42    84    83    1
    43    84    87    1
    44    16    17    1
    45   109   110    1
    46    18    17   ar
    47    18    20   ar
    48    87    88    1
    49    17    19   ar
    50    20    21   ar
    51   111   112    1
    52    19    21   ar
    53    19    22   ar
    54    90    88   am
    55    21    23   ar
    56    88    89    2
    57   114   113    2
    58    22    24   ar
    59    23    25   ar
    60   112   113    1
    61   112   115    1
    62   118   119    1
    63   118   117    1
    64    24    25   ar
    65   115   116    1
    66   116   117    1
    67    39    40    1
    68    39    38    1
    69    40    34    1
    70    38    35    1
    71    37    36    2
    72    48    47    1
    73    34    35    1
    74    35    36    1
    75    36    41   am
    76    47    46    1
    77    45    46    1
    78    45    42    1
    79    82    80    1
    80    41    42    1
    81    42    43    1
    82    62    60   ar
    83    62    61   ar
    84    60    58   ar
    85   131   133   ar
    86   131   129   ar
    87    81    80    1
    88    61    59   ar
    89    80    79    2
    90   133   132   ar
    91   128   129   ar
    92   128   126   ar
    93    71    69   ar
    94   129   127   ar
    95    58    57   ar
    96    58    56   ar
    97    43    49   am
    98    43    44    2
    99    59    56   ar
   100    57    55   ar
   101   132   130   ar
   102    56    54   ar
   103    49    50    1
   104   126   125   ar
   105    79    78    1
   106   127   130   ar
   107   127   125   ar
   108    69    70   ar
   109    69    68    1
   110    78    77    1
   111   140   138    1
   112    55    54   ar
   113    54    53    1
   114   125   124    1
   115   137   136    2
   116    68    67    1
   117    67    64    1
   118    50    53    1
   119    50    51    1
   120    63    64    1
   121    63    51   am
   122   124   121    1
   123   120   121    1
   124    77    76    1
   125   138   135    1
   126   138   139    1
   127   136   135    1
   128    64    65    1
   129    51    52    2
   130    76    73    1
   131    65    66    2
   132   121   122    1
   133   135   134    1
   134   123   122    2
   135    73    74    1
   136    73    72    1
   137    74    75    2
