@<TRIPOS>MOLECULE
tmp/5zk9A01.pdb
 86 81 0 0 0
SMALL
GASTEIGER

@<TRIPOS>ATOM
      1  N        -59.3910  -34.7520   79.7510 N.3    84  LEU84      -0.1231
      2  CA       -58.3600  -33.7270   79.7000 C.3    84  LEU84       0.1693
      3  C        -58.6900  -32.5250   80.5860 C.2    84  LEU84       0.2592
      4  O        -59.7840  -31.9820   80.4780 O.2    84  LEU84      -0.2718
      5  CB       -58.2060  -33.2480   78.2650 C.3    84  LEU84       0.0284
      6  CG       -57.1080  -32.1960   78.0200 C.3    84  LEU84       0.0019
      7  CD1      -55.7270  -32.7500   78.3150 C.3    84  LEU84       0.0001
      8  CD2      -57.1760  -31.7210   76.5700 C.3    84  LEU84       0.0001
      9  N        -57.7490  -32.1540   81.4450 N.am   85  ILE85      -0.1966
     10  CA       -57.8210  -30.9430   82.2720 C.3    85  ILE85       0.1727
     11  C        -56.8280  -29.9580   81.6370 C.2    85  ILE85       0.2616
     12  O        -55.6350  -30.2440   81.5730 O.2    85  ILE85      -0.2715
     13  CB       -57.4150  -31.2500   83.7340 C.3    85  ILE85       0.0290
     14  CG1      -58.2280  -32.4260   84.3070 C.3    85  ILE85       0.0022
     15  CG2      -57.5590  -30.0240   84.6350 C.3    85  ILE85       0.0023
     16  CD1      -59.7340  -32.2830   84.2380 C.3    85  ILE85       0.0001
     17  N        -57.3160  -28.8220   81.1350 N.am   86  THR86      -0.1951
     18  CA       -56.4580  -27.8090   80.5320 C.3    86  THR86       0.1897
     19  C        -56.3360  -26.6910   81.5510 C.2    86  THR86       0.2313
     20  O        -57.3390  -26.2460   82.1110 O.2    86  THR86      -0.2863
     21  CB       -57.0150  -27.2650   79.1990 C.3    86  THR86       0.1794
     22  OG1      -58.3460  -26.7730   79.3930 O.3    86  THR86      -0.2208
     23  CG2      -57.0420  -28.3550   78.1360 C.3    86  THR86       0.0378
     24  N        -52.4710  -21.0390   86.5090 N.3    91  GLN91      -0.1245
     25  CA       -52.7640  -22.2810   87.2300 C.3    91  GLN91       0.1566
     26  C        -51.5530  -23.1930   87.4230 C.2    91  GLN91       0.2260
     27  O        -51.6160  -24.1250   88.2430 O.2    91  GLN91      -0.2867
     28  CB       -53.9050  -23.0490   86.5660 C.3    91  GLN91       0.0367
     29  CG       -55.2880  -22.4570   86.7640 C.3    91  GLN91       0.0905
     30  CD       -56.3380  -23.2800   86.0540 C.2    91  GLN91       0.2608
     31  OE1      -56.4640  -23.2140   84.8350 O.2    91  GLN91      -0.2717
     32  NE2      -57.0720  -24.0900   86.8120 N.am   91  GLN91      -0.0878
     33  N        -52.8640  -24.4800   90.8580 N.3    95  ASP95      -0.1239
     34  CA       -53.5740  -25.7540   90.7470 C.3    95  ASP95       0.1674
     35  C        -52.7650  -26.9450   90.2290 C.2    95  ASP95       0.2266
     36  O        -53.1630  -28.0830   90.4820 O.2    95  ASP95      -0.2867
     37  CB       -54.8070  -25.5950   89.8470 C.3    95  ASP95       0.1410
     38  CG       -55.8310  -24.5850   90.3890 C.2    95  ASP95       0.3668
     39  OD1      -55.8910  -24.3560   91.6150 O.co2  95  ASP95      -0.2456
     40  OD2      -56.6070  -24.0560   89.5750 O.co2  95  ASP95      -0.2456
     41  N        -53.6490  -30.6400   91.6790 N.3    99  PHE99      -0.1241
     42  CA       -54.4400  -31.4710   90.7370 C.3    99  PHE99       0.1605
     43  C        -53.6830  -32.7410   90.3510 C.2    99  PHE99       0.2264
     44  O        -54.2880  -33.8160   90.2920 O.2    99  PHE99      -0.2867
     45  CB       -54.7960  -30.7290   89.4420 C.3    99  PHE99       0.0534
     46  CG       -55.9170  -29.7210   89.5580 C.ar   99  PHE99      -0.0203
     47  CD1      -56.6370  -29.5070   90.7420 C.ar   99  PHE99      -0.0042
     48  CD2      -56.2570  -28.9790   88.4370 C.ar   99  PHE99      -0.0042
     49  CE1      -57.6710  -28.5770   90.7890 C.ar   99  PHE99      -0.0003
     50  CE2      -57.2980  -28.0530   88.4770 C.ar   99  PHE99      -0.0003
     51  CZ       -57.9930  -27.8470   89.6570 C.ar   99  PHE99      -0.0000
     52  N        -63.9540  -29.6880   90.9710 N.3   159  LEU159     -0.1245
     53  CA       -64.3650  -28.7440   89.9280 C.3   159  LEU159      0.1561
     54  C        -65.8740  -28.5170   90.0090 C.2   159  LEU159      0.2260
     55  O        -66.6220  -29.4880   90.1220 O.2   159  LEU159     -0.2867
     56  CB       -63.9990  -29.2730   88.5450 C.3   159  LEU159      0.0270
     57  CG       -62.5200  -29.5790   88.2890 C.3   159  LEU159      0.0019
     58  CD1      -62.3450  -30.0080   86.8440 C.3   159  LEU159      0.0001
     59  CD2      -61.6350  -28.3930   88.6090 C.3   159  LEU159      0.0001
     60  N        -67.8200  -25.8860   85.2860 N.3   163  ILE163     -0.1231
     61  CA       -66.5690  -26.2160   84.5780 C.3   163  ILE163      0.1692
     62  C        -66.7890  -27.5630   83.8810 C.2   163  ILE163      0.2592
     63  O        -66.9660  -28.5830   84.5420 O.2   163  ILE163     -0.2718
     64  CB       -65.3510  -26.3010   85.5250 C.3   163  ILE163      0.0266
     65  CG1      -65.1920  -25.0160   86.3620 C.3   163  ILE163      0.0019
     66  CG2      -64.0720  -26.5750   84.7320 C.3   163  ILE163      0.0020
     67  CD1      -64.9610  -23.7430   85.5700 C.3   163  ILE163      0.0001
     68  N        -66.8030  -27.5590   82.5580 N.am  164  VAL164     -0.1966
     69  CA       -67.0300  -28.7740   81.7910 C.3   164  VAL164      0.1727
     70  C        -65.6700  -29.3040   81.3690 C.2   164  VAL164      0.2616
     71  O        -64.8130  -28.5320   80.9630 O.2   164  VAL164     -0.2715
     72  CB       -67.8970  -28.5050   80.5440 C.3   164  VAL164      0.0290
     73  CG1      -68.1170  -29.7890   79.7520 C.3   164  VAL164      0.0023
     74  CG2      -69.2460  -27.9120   80.9510 C.3   164  VAL164      0.0023
     75  N        -65.4810  -30.6180   81.4560 N.am  165  ILE165     -0.1963
     76  CA       -64.2660  -31.2530   80.9490 C.3   165  ILE165      0.1727
     77  C        -64.6590  -32.2090   79.8420 C.2   165  ILE165      0.2616
     78  O        -65.7940  -32.6970   79.8060 O.2   165  ILE165     -0.2715
     79  CB       -63.4520  -31.9650   82.0510 C.3   165  ILE165      0.0290
     80  CG1      -64.2700  -33.0710   82.7300 C.3   165  ILE165      0.0022
     81  CG2      -62.9300  -30.9400   83.0510 C.3   165  ILE165      0.0023
     82  CD1      -63.4520  -33.9790   83.6260 C.3   165  ILE165      0.0001
     83  N        -63.7150  -32.4600   78.9340 N.am  166  GLY166     -0.1955
     84  CA       -63.9510  -33.2720   77.7690 C.3   166  GLY166      0.1869
     85  C        -63.0810  -34.5050   77.6950 C.2   166  GLY166      0.2309
     86  O        -61.9670  -34.5320   78.2440 O.2   166  GLY166     -0.2863
@<TRIPOS>BOND
     1     8     6    1
     2    85    84    1
     3    85    86    2
     4    84    83    1
     5     6     5    1
     6     6     7    1
     7    23    21    1
     8     5     2    1
     9    83    77   am
    10    21    22    1
    11    21    18    1
    12     2     1    1
    13     2     3    1
    14    73    72    1
    15    78    77    2
    16    77    76    1
    17     4     3    2
    18    18    17    1
    19    18    19    1
    20    72    74    1
    21    72    69    1
    22     3     9   am
    23    76    75    1
    24    76    79    1
    25    71    70    2
    26    17    11   am
    27    70    75   am
    28    70    69    1
    29     9    10    1
    30    19    20    2
    31    12    11    2
    32    11    10    1
    33    69    68    1
    34    79    80    1
    35    79    81    1
    36    10    13    1
    37    68    62   am
    38    80    82    1
    39    13    14    1
    40    13    15    1
    41    62    63    2
    42    62    61    1
    43    16    14    1
    44    61    60    1
    45    61    64    1
    46    66    64    1
    47    31    30    2
    48    64    65    1
    49    67    65    1
    50    30    29    1
    51    30    32   am
    52    24    25    1
    53    28    29    1
    54    28    25    1
    55    58    57    1
    56    25    26    1
    57    26    27    2
    58    57    56    1
    59    57    59    1
    60    48    50   ar
    61    48    46   ar
    62    50    51   ar
    63    56    53    1
    64    45    46    1
    65    45    42    1
    66    46    47   ar
    67    40    38   ar
    68    51    49   ar
    69    37    38    1
    70    37    34    1
    71    53    54    1
    72    53    52    1
    73    54    55    2
    74    35    36    2
    75    35    34    1
    76    44    43    2
    77    43    42    1
    78    38    39   ar
    79    42    41    1
    80    47    49   ar
    81    34    33    1
