@<TRIPOS>MOLECULE
tmp/5zkbA00.pdb
 240 237 0 0 0
SMALL
GASTEIGER

@<TRIPOS>ATOM
      1  N        -49.9530  -25.2960    5.1060 N.3    56  ILE56      -0.1245
      2  CA       -50.8720  -24.5180    4.2780 C.3    56  ILE56       0.1561
      3  C        -50.8250  -24.9940    2.8310 C.2    56  ILE56       0.2260
      4  O        -51.8640  -25.1290    2.1730 O.2    56  ILE56      -0.2867
      5  CB       -50.5550  -23.0170    4.3930 C.3    56  ILE56       0.0252
      6  CG1      -50.8940  -22.5120    5.7950 C.3    56  ILE56       0.0019
      7  CG2      -51.3190  -22.2270    3.3440 C.3    56  ILE56       0.0019
      8  CD1      -52.3490  -22.6920    6.1770 C.3    56  ILE56       0.0001
      9  N        -59.3290  -25.3720   -0.4030 N.3    64  TYR64      -0.1241
     10  CA       -60.0240  -24.1900   -0.9020 C.3    64  TYR64       0.1605
     11  C        -60.2690  -24.2870   -2.4030 C.2    64  TYR64       0.2264
     12  O        -61.3210  -23.8570   -2.8950 O.2    64  TYR64      -0.2867
     13  CB       -59.2370  -22.9270   -0.5630 C.3    64  TYR64       0.0534
     14  CG       -59.9800  -21.6560   -0.8960 C.ar   64  TYR64      -0.0201
     15  CD1      -61.1890  -21.3560   -0.2790 C.ar   64  TYR64      -0.0009
     16  CD2      -59.4740  -20.7540   -1.8210 C.ar   64  TYR64      -0.0009
     17  CE1      -61.8740  -20.1950   -0.5790 C.ar   64  TYR64       0.0417
     18  CE2      -60.1510  -19.5880   -2.1250 C.ar   64  TYR64       0.0417
     19  CZ       -61.3500  -19.3130   -1.5010 C.ar   64  TYR64       0.1957
     20  OH       -62.0260  -18.1540   -1.8040 O.3    64  TYR64      -0.2866
     21  N        -60.6370  -28.5990    9.2180 N.3    83  TRP83      -0.1227
     22  CA       -59.9140  -27.6500    8.3790 C.3    83  TRP83       0.1737
     23  C        -59.9850  -26.2340    8.9440 C.2    83  TRP83       0.2595
     24  O        -59.0170  -25.4710    8.8360 O.2    83  TRP83      -0.2718
     25  CB       -60.4610  -27.6930    6.9530 C.3    83  TRP83       0.0564
     26  CG       -59.7150  -26.8070    6.0130 C.ar   83  TRP83       0.0003
     27  CD1      -58.3870  -26.4870    6.0630 C.ar   83  TRP83       0.0946
     28  CD2      -60.2520  -26.1110    4.8850 C.ar   83  TRP83       0.0152
     29  NE1      -58.0660  -25.6410    5.0310 N.ar   83  TRP83      -0.2442
     30  CE2      -59.1940  -25.3920    4.2950 C.ar   83  TRP83       0.0810
     31  CE3      -61.5270  -26.0240    4.3180 C.ar   83  TRP83       0.0012
     32  CZ2      -59.3720  -24.5970    3.1660 C.ar   83  TRP83       0.0191
     33  CZ3      -61.7000  -25.2370    3.1970 C.ar   83  TRP83       0.0001
     34  CH2      -60.6290  -24.5320    2.6340 C.ar   83  TRP83       0.0015
     35  N        -61.1220  -25.8590    9.5370 N.am   84  LEU84      -0.1980
     36  CA       -61.2270  -24.5510   10.1820 C.3    84  LEU84       0.1596
     37  C        -60.2520  -24.4410   11.3460 C.2    84  LEU84       0.2287
     38  O        -59.5030  -23.4600   11.4610 O.2    84  LEU84      -0.2864
     39  CB       -62.6580  -24.3150   10.6650 C.3    84  LEU84       0.0297
     40  CG       -63.7390  -24.0300    9.6220 C.3    84  LEU84       0.0022
     41  CD1      -65.1150  -24.0740   10.2640 C.3    84  LEU84       0.0001
     42  CD2      -63.4960  -22.6800    8.9770 C.3    84  LEU84       0.0001
     43  N        -56.6150  -24.2460    9.8980 N.3    87  ASP87      -0.1225
     44  CA       -56.2810  -22.9400    9.3370 C.3    87  ASP87       0.1805
     45  C        -56.0980  -21.8940   10.4300 C.2    87  ASP87       0.2597
     46  O        -55.1700  -21.0750   10.3680 O.2    87  ASP87      -0.2718
     47  CB       -57.3640  -22.5000    8.3500 C.3    87  ASP87       0.1424
     48  CG       -56.8350  -22.3310    6.9350 C.2    87  ASP87       0.3668
     49  OD1      -55.6880  -22.7500    6.6700 O.co2  87  ASP87      -0.2456
     50  OD2      -57.5630  -21.7730    6.0880 O.co2  87  ASP87      -0.2456
     51  N        -56.9650  -21.9110   11.4470 N.am   88  TYR88      -0.1976
     52  CA       -56.8860  -20.8930   12.4920 C.3    88  TYR88       0.1639
     53  C        -55.6680  -21.1040   13.3870 C.2    88  TYR88       0.2290
     54  O        -54.9430  -20.1510   13.7020 O.2    88  TYR88      -0.2864
     55  CB       -58.1710  -20.8890   13.3160 C.3    88  TYR88       0.0560
     56  CG       -59.1300  -19.7960   12.9130 C.ar   88  TYR88      -0.0198
     57  CD1      -59.9360  -19.9320   11.7910 C.ar   88  TYR88      -0.0009
     58  CD2      -59.2260  -18.6230   13.6530 C.ar   88  TYR88      -0.0009
     59  CE1      -60.8150  -18.9330   11.4160 C.ar   88  TYR88       0.0417
     60  CE2      -60.1020  -17.6170   13.2870 C.ar   88  TYR88       0.0417
     61  CZ       -60.8950  -17.7780   12.1670 C.ar   88  TYR88       0.1957
     62  OH       -61.7670  -16.7810   11.7930 O.3    88  TYR88      -0.2866
     63  N        -52.5900  -20.0780   11.3750 N.3    91  SER91      -0.1202
     64  CA       -52.4230  -18.6340   11.2120 C.3    91  SER91       0.2020
     65  C        -51.9850  -17.9820   12.5210 C.2    91  SER91       0.2618
     66  O        -51.0670  -17.1490   12.5290 O.2    91  SER91      -0.2717
     67  CB       -53.7110  -17.9970   10.6810 C.3    91  SER91       0.2103
     68  OG       -54.8160  -18.2510   11.5260 O.3    91  SER91      -0.2182
     69  N        -52.6090  -18.3700   13.6390 N.am   92  ASN92      -0.1974
     70  CA       -52.2140  -17.8340   14.9390 C.3    92  ASN92       0.1688
     71  C        -50.7700  -18.2000   15.2710 C.2    92  ASN92       0.2292
     72  O        -50.0140  -17.3760   15.8060 O.2    92  ASN92      -0.2864
     73  CB       -53.1670  -18.3490   16.0200 C.3    92  ASN92       0.1181
     74  CG       -52.9860  -17.6400   17.3530 C.2    92  ASN92       0.2629
     75  OD1      -53.6960  -16.6820   17.6580 O.2    92  ASN92      -0.2716
     76  ND2      -52.0380  -18.1140   18.1550 N.am   92  ASN92      -0.0877
     77  N        -48.5610  -15.7970   13.3160 N.3    95  VAL95      -0.1245
     78  CA       -48.4500  -14.4870   13.9520 C.3    95  VAL95       0.1561
     79  C        -47.5140  -14.5570   15.1530 C.2    95  VAL95       0.2260
     80  O        -46.6010  -13.7340   15.3030 O.2    95  VAL95      -0.2867
     81  CB       -49.8400  -13.9630   14.3520 C.3    95  VAL95       0.0252
     82  CG1      -49.7160  -12.6060   15.0320 C.3    95  VAL95       0.0019
     83  CG2      -50.7420  -13.8760   13.1360 C.3    95  VAL95       0.0019
     84  N        -57.5170  -21.9930   19.8400 N.3   139  TRP139     -0.1241
     85  CA       -58.4890  -22.0250   18.7510 C.3   139  TRP139      0.1605
     86  C        -59.1830  -23.3680   18.5670 C.2   139  TRP139      0.2264
     87  O        -60.3750  -23.3950   18.2450 O.2   139  TRP139     -0.2867
     88  CB       -57.8200  -21.6220   17.4350 C.3   139  TRP139      0.0550
     89  CG       -57.5150  -20.1640   17.3680 C.ar  139  TRP139      0.0003
     90  CD1      -56.2870  -19.5790   17.4560 C.ar  139  TRP139      0.0946
     91  CD2      -58.4590  -19.0980   17.2150 C.ar  139  TRP139      0.0152
     92  NE1      -56.4060  -18.2140   17.3570 N.ar  139  TRP139     -0.2442
     93  CE2      -57.7300  -17.8940   17.2100 C.ar  139  TRP139      0.0810
     94  CE3      -59.8490  -19.0450   17.0780 C.ar  139  TRP139      0.0012
     95  CZ2      -58.3450  -16.6510   17.0760 C.ar  139  TRP139      0.0191
     96  CZ3      -60.4570  -17.8100   16.9430 C.ar  139  TRP139      0.0001
     97  CH2      -59.7050  -16.6310   16.9430 C.ar  139  TRP139      0.0015
     98  N        -69.2240  -24.2800    5.0180 N.3   160  CYS160     -0.1221
     99  CA       -68.1330  -24.4760    5.9690 C.3   160  CYS160      0.1808
    100  C        -67.7070  -23.1180    6.5100 C.2   160  CYS160      0.2601
    101  O        -67.0140  -22.3650    5.8200 O.2   160  CYS160     -0.2717
    102  CB       -66.9630  -25.1970    5.3080 C.3   160  CYS160      0.0970
    103  SG       -65.6860  -25.7090    6.4590 S.3   160  CYS160     -0.0800
    104  N        -68.1080  -22.8100    7.7410 N.am  161  TYR161     -0.1962
    105  CA       -67.7090  -21.5680    8.3930 C.3   161  TYR161      0.1771
    106  C        -67.8100  -21.7600    9.9030 C.2   161  TYR161      0.2619
    107  O        -68.2360  -22.8120   10.3890 O.2   161  TYR161     -0.2715
    108  CB       -68.5610  -20.3950    7.9070 C.3   161  TYR161      0.0574
    109  CG       -70.0450  -20.6080    8.0710 C.ar  161  TYR161     -0.0198
    110  CD1      -70.8070  -21.1630    7.0490 C.ar  161  TYR161     -0.0009
    111  CD2      -70.6870  -20.2550    9.2510 C.ar  161  TYR161     -0.0009
    112  CE1      -72.1660  -21.3610    7.1990 C.ar  161  TYR161      0.0417
    113  CE2      -72.0430  -20.4480    9.4110 C.ar  161  TYR161      0.0417
    114  CZ       -72.7780  -21.0010    8.3820 C.ar  161  TYR161      0.1957
    115  OH       -74.1310  -21.1950    8.5420 O.3   161  TYR161     -0.2866
    116  N        -67.4060  -20.7310   10.6470 N.am  162  ILE162     -0.1977
    117  CA       -67.3860  -20.7630   12.1070 C.3   162  ILE162      0.1596
    118  C        -68.6380  -20.0830   12.6380 C.2   162  ILE162      0.2287
    119  O        -68.9600  -18.9560   12.2410 O.2   162  ILE162     -0.2864
    120  CB       -66.1230  -20.0880   12.6660 C.3   162  ILE162      0.0276
    121  CG1      -64.8980  -20.9770   12.4450 C.3   162  ILE162      0.0022
    122  CG2      -66.2990  -19.7840   14.1400 C.3   162  ILE162      0.0022
    123  CD1      -63.6140  -20.3770   12.9750 C.3   162  ILE162      0.0001
    124  N        -68.2660  -16.7520   15.0960 N.3   165  PHE165     -0.1241
    125  CA       -67.8690  -15.5220   14.4250 C.3   165  PHE165      0.1605
    126  C        -69.0400  -14.8240   13.7420 C.2   165  PHE165      0.2264
    127  O        -68.8230  -13.9490   12.8960 O.2   165  PHE165     -0.2867
    128  CB       -66.7580  -15.7970   13.4110 C.3   165  PHE165      0.0534
    129  CG       -65.3770  -15.7270   13.9960 C.ar  165  PHE165     -0.0203
    130  CD1      -64.8890  -14.5380   14.5070 C.ar  165  PHE165     -0.0042
    131  CD2      -64.5640  -16.8460   14.0280 C.ar  165  PHE165     -0.0042
    132  CE1      -63.6190  -14.4670   15.0420 C.ar  165  PHE165     -0.0003
    133  CE2      -63.2930  -16.7820   14.5640 C.ar  165  PHE165     -0.0003
    134  CZ       -62.8200  -15.5910   15.0710 C.ar  165  PHE165     -0.0000
    135  N        -65.5490  -10.7400   16.0200 N.3   171  THR171     -0.1218
    136  CA       -64.7380  -10.5910   14.8170 C.3   171  THR171      0.1862
    137  C        -63.8730   -9.3400   14.8920 C.2   171  THR171      0.2287
    138  O        -62.7140   -9.3520   14.4630 O.2   171  THR171     -0.2866
    139  CB       -65.6250  -10.5450   13.5730 C.3   171  THR171      0.1770
    140  OG1      -66.3520   -9.3120   13.5490 O.3   171  THR171     -0.2211
    141  CG2      -66.6080  -11.6980   13.5750 C.3   171  THR171      0.0375
    142  N        -61.2670   -9.8760   17.6610 N.3   174  THR174     -0.1203
    143  CA       -60.3190  -10.8660   17.1570 C.3   174  THR174      0.1994
    144  C        -59.4030  -10.2630   16.0990 C.2   174  THR174      0.2617
    145  O        -58.2180  -10.6080   16.0260 O.2   174  THR174     -0.2717
    146  CB       -61.0680  -12.0720   16.5890 C.3   174  THR174      0.1784
    147  OG1      -61.9480  -12.6030   17.5870 O.3   174  THR174     -0.2211
    148  CG2      -60.0870  -13.1550   16.1580 C.3   174  THR174      0.0376
    149  N        -59.9340   -9.3660   15.2660 N.am  175  ALA175     -0.1979
    150  CA       -59.0940   -8.7090   14.2720 C.3   175  ALA175      0.1597
    151  C        -58.0990   -7.7600   14.9260 C.2   175  ALA175      0.2287
    152  O        -56.9700   -7.6190   14.4410 O.2   175  ALA175     -0.2864
    153  CB       -59.9610   -7.9620   13.2580 C.3   175  ALA175      0.0319
    154  N        -55.5930  -10.2360   17.1650 N.3   178  ALA178     -0.1231
    155  CA       -54.8920  -11.2830   16.4340 C.3   178  ALA178      0.1694
    156  C        -54.0710  -10.7670   15.2580 C.2   178  ALA178      0.2592
    157  O        -53.1940  -11.4920   14.7730 O.2   178  ALA178     -0.2718
    158  CB       -55.8880  -12.3290   15.9240 C.3   178  ALA178      0.0304
    159  N        -54.3260   -9.5480   14.7820 N.am  179  PHE179     -0.1976
    160  CA       -53.6150   -9.0720   13.6030 C.3   179  PHE179      0.1639
    161  C        -53.0720   -7.6590   13.7750 C.2   179  PHE179      0.2290
    162  O        -51.8570   -7.4490   13.7180 O.2   179  PHE179     -0.2864
    163  CB       -54.5220   -9.1310   12.3720 C.3   179  PHE179      0.0560
    164  CG       -53.8270   -8.7600   11.0920 C.ar  179  PHE179     -0.0200
    165  CD1      -52.9340   -9.6370   10.4930 C.ar  179  PHE179     -0.0042
    166  CD2      -54.0600   -7.5360   10.4890 C.ar  179  PHE179     -0.0042
    167  CE1      -52.2900   -9.3000    9.3190 C.ar  179  PHE179     -0.0003
    168  CE2      -53.4190   -7.1960    9.3130 C.ar  179  PHE179     -0.0003
    169  CZ       -52.5330   -8.0800    8.7280 C.ar  179  PHE179     -0.0000
    170  N        -51.4140  -10.1630    4.0940 N.3   325  TRP325     -0.1241
    171  CA       -52.5350  -10.4190    4.9890 C.3   325  TRP325      0.1605
    172  C        -53.3920   -9.1900    5.2660 C.2   325  TRP325      0.2264
    173  O        -54.4720   -9.3310    5.8480 O.2   325  TRP325     -0.2867
    174  CB       -52.0280  -10.9980    6.3150 C.3   325  TRP325      0.0550
    175  CG       -51.7050  -12.4600    6.2410 C.ar  325  TRP325      0.0003
    176  CD1      -50.6580  -13.0350    5.5830 C.ar  325  TRP325      0.0946
    177  CD2      -52.4290  -13.5320    6.8570 C.ar  325  TRP325      0.0152
    178  NE1      -50.6890  -14.3990    5.7430 N.ar  325  TRP325     -0.2442
    179  CE2      -51.7650  -14.7290    6.5230 C.ar  325  TRP325      0.0810
    180  CE3      -53.5740  -13.5970    7.6560 C.ar  325  TRP325      0.0012
    181  CZ2      -52.2080  -15.9750    6.9580 C.ar  325  TRP325      0.0191
    182  CZ3      -54.0130  -14.8330    8.0860 C.ar  325  TRP325      0.0001
    183  CH2      -53.3320  -16.0070    7.7350 C.ar  325  TRP325      0.0015
    184  N        -57.1970   -9.1850    3.3830 N.3   328  TYR328     -0.1227
    185  CA       -58.1850  -10.0730    3.9900 C.3   328  TYR328      0.1736
    186  C        -58.7520   -9.4750    5.2730 C.2   328  TYR328      0.2595
    187  O        -59.9710   -9.4740    5.4850 O.2   328  TYR328     -0.2718
    188  CB       -57.5570  -11.4410    4.2560 C.3   328  TYR328      0.0548
    189  CG       -58.3990  -12.3630    5.1080 C.ar  328  TYR328     -0.0200
    190  CD1      -59.5170  -13.0010    4.5840 C.ar  328  TYR328     -0.0009
    191  CD2      -58.0660  -12.6060    6.4360 C.ar  328  TYR328     -0.0009
    192  CE1      -60.2860  -13.8500    5.3620 C.ar  328  TYR328      0.0417
    193  CE2      -58.8250  -13.4520    7.2220 C.ar  328  TYR328      0.0417
    194  CZ       -59.9340  -14.0710    6.6810 C.ar  328  TYR328      0.1957
    195  OH       -60.6900  -14.9140    7.4640 O.3   328  TYR328     -0.2866
    196  N        -57.8810   -8.9510    6.1410 N.am  329  ASN329     -0.1974
    197  CA       -58.3490   -8.3640    7.3930 C.3   329  ASN329      0.1688
    198  C        -59.2120   -7.1360    7.1400 C.2   329  ASN329      0.2292
    199  O        -60.2080   -6.9110    7.8420 O.2   329  ASN329     -0.2864
    200  CB       -57.1590   -8.0140    8.2820 C.3   329  ASN329      0.1181
    201  CG       -56.4030   -9.2430    8.7430 C.2   329  ASN329      0.2629
    202  OD1      -56.7370   -9.8440    9.7640 O.2   329  ASN329     -0.2716
    203  ND2      -55.3830   -9.6270    7.9880 N.am  329  ASN329     -0.0877
    204  N        -62.5220   -8.3330    6.3230 N.3   332  VAL332     -0.1245
    205  CA       -63.2400   -8.7440    7.5260 C.3   332  VAL332      0.1561
    206  C        -63.8650   -7.5320    8.2080 C.2   332  VAL332      0.2260
    207  O        -65.0560   -7.5350    8.5550 O.2   332  VAL332     -0.2867
    208  CB       -62.2990   -9.5060    8.4770 C.3   332  VAL332      0.0252
    209  CG1      -62.9950   -9.7880    9.7990 C.3   332  VAL332      0.0019
    210  CG2      -61.8260  -10.7990    7.8340 C.3   332  VAL332      0.0019
    211  N        -58.0440  -14.6510    0.3660 N.3   351  TYR351     -0.1241
    212  CA       -57.6490  -16.0160    0.7030 C.3   351  TYR351      0.1605
    213  C        -56.3620  -16.4070   -0.0200 C.2   351  TYR351      0.2264
    214  O        -55.3450  -16.7530    0.6050 O.2   351  TYR351     -0.2867
    215  CB       -58.7810  -16.9840    0.3380 C.3   351  TYR351      0.0534
    216  CG       -59.9710  -16.9990    1.2800 C.ar  351  TYR351     -0.0201
    217  CD1      -60.5950  -15.8220    1.6750 C.ar  351  TYR351     -0.0009
    218  CD2      -60.4880  -18.1990    1.7500 C.ar  351  TYR351     -0.0009
    219  CE1      -61.6850  -15.8380    2.5280 C.ar  351  TYR351      0.0417
    220  CE2      -61.5800  -18.2250    2.5990 C.ar  351  TYR351      0.0417
    221  CZ       -62.1730  -17.0430    2.9850 C.ar  351  TYR351      0.1957
    222  OH       -63.2570  -17.0670    3.8310 O.3   351  TYR351     -0.2866
    223  N        -53.1400  -14.6160    1.2830 N.3   354  CYS354     -0.1221
    224  CA       -52.5050  -15.2070    2.4620 C.3   354  CYS354      0.1808
    225  C        -51.7820  -16.5050    2.1040 C.2   354  CYS354      0.2601
    226  O        -50.6110  -16.7210    2.4760 O.2   354  CYS354     -0.2717
    227  CB       -53.5520  -15.4610    3.5470 C.3   354  CYS354      0.0970
    228  SG       -54.5100  -14.0120    4.0540 S.3   354  CYS354     -0.0800
    229  N        -52.4730  -17.3920    1.3810 N.am  355  TYR355     -0.1976
    230  CA       -51.8260  -18.6250    0.9440 C.3   355  TYR355      0.1639
    231  C        -50.5700  -18.3260    0.1270 C.2   355  TYR355      0.2290
    232  O        -49.5310  -18.9820    0.2960 O.2   355  TYR355     -0.2864
    233  CB       -52.8220  -19.4710    0.1510 C.3   355  TYR355      0.0560
    234  CG       -54.0060  -19.9430    0.9730 C.ar  355  TYR355     -0.0198
    235  CD1      -53.9090  -20.0710    2.3550 C.ar  355  TYR355     -0.0009
    236  CD2      -55.2190  -20.2640    0.3690 C.ar  355  TYR355     -0.0009
    237  CE1      -54.9820  -20.5060    3.1140 C.ar  355  TYR355      0.0417
    238  CE2      -56.3010  -20.6990    1.1200 C.ar  355  TYR355      0.0417
    239  CZ       -56.1750  -20.8180    2.4930 C.ar  355  TYR355      0.1957
    240  OH       -57.2420  -21.2480    3.2490 O.3   355  TYR355     -0.2866
@<TRIPOS>BOND
     1    12    11    2
     2    11    10    1
     3    18    16   ar
     4    18    19   ar
     5    16    14   ar
     6    20    19    1
     7    19    17   ar
     8    10    13    1
     9    10     9    1
    10    14    13    1
    11    14    15   ar
    12    17    15   ar
    13   213   214    2
    14   213   212    1
    15   231   232    2
    16   231   230    1
    17   233   230    1
    18   233   234    1
    19   215   212    1
    20   215   216    1
    21   211   212    1
    22   236   234   ar
    23   236   238   ar
    24   230   229    1
    25   234   235   ar
    26   238   239   ar
    27   216   217   ar
    28   216   218   ar
    29   223   224    1
    30   229   225   am
    31   217   219   ar
    32   218   220   ar
    33   225   224    1
    34   225   226    2
    35     4     3    2
    36   235   237   ar
    37   224   227    1
    38   239   237   ar
    39   239   240    1
    40   219   221   ar
    41   220   221   ar
    42    34    32   ar
    43    34    33   ar
    44     3     2    1
    45   221   222    1
    46    32    30   ar
    47    33    31   ar
    48     7     5    1
    49   184   185    1
    50   227   228    1
    51   185   188    1
    52   185   186    1
    53   170   171    1
    54   188   189    1
    55     2     5    1
    56     2     1    1
    57    30    28   ar
    58    30    29   ar
    59    31    28   ar
    60     5     6    1
    61   190   189   ar
    62   190   192   ar
    63    28    26   ar
    64   171   172    1
    65   171   174    1
    66    98    99    1
    67    29    27   ar
    68   189   191   ar
    69   172   173    2
    70   186   187    2
    71   186   196   am
    72   102    99    1
    73   102   103    1
    74   192   194   ar
    75   176   178   ar
    76   176   175   ar
    77   178   179   ar
    78     6     8    1
    79   101   100    2
    80    99   100    1
    81    26    27   ar
    82    26    25    1
    83    50    48   ar
    84   196   197    1
    85   175   174    1
    86   175   177   ar
    87   204   205    1
    88   191   193   ar
    89   100   104   am
    90   179   177   ar
    91   179   181   ar
    92    49    48   ar
    93   194   193   ar
    94   194   195    1
    95   177   180   ar
    96    48    47    1
    97    25    22    1
    98   181   183   ar
    99   110   112   ar
   100   110   109   ar
   101   198   197    1
   102   198   199    2
   103   112   114   ar
   104   197   200    1
   105   205   206    1
   106   205   208    1
   107   180   182   ar
   108   183   182   ar
   109   104   105    1
   110   210   208    1
   111   108   109    1
   112   108   105    1
   113   203   201   am
   114   109   111   ar
   115   206   207    2
   116   200   201    1
   117    47    44    1
   118    22    23    1
   119    22    21    1
   120   114   115    1
   121   114   113   ar
   122   105   106    1
   123   208   209    1
   124   169   168   ar
   125   169   167   ar
   126   201   202    2
   127    24    23    2
   128    23    35   am
   129    42    40    1
   130   111   113   ar
   131   168   166   ar
   132   167   165   ar
   133    44    43    1
   134    44    45    1
   135    35    36    1
   136    40    41    1
   137    40    39    1
   138   106   107    2
   139   106   116   am
   140    36    39    1
   141    36    37    1
   142    46    45    2
   143    45    51   am
   144   166   164   ar
   145   165   164   ar
   146   116   117    1
   147    67    64    1
   148    67    68    1
   149   164   163    1
   150    64    63    1
   151    64    65    1
   152    37    38    2
   153    59    57   ar
   154    59    61   ar
   155    51    52    1
   156    57    56   ar
   157    62    61    1
   158   117   118    1
   159   117   120    1
   160    61    60   ar
   161   119   118    2
   162   163   160    1
   163   121   120    1
   164   121   123    1
   165    52    55    1
   166    52    53    1
   167    65    66    2
   168    65    69   am
   169   120   122    1
   170   127   126    2
   171    56    55    1
   172    56    58   ar
   173    83    81    1
   174   153   150    1
   175    60    58   ar
   176    77    78    1
   177    53    54    2
   178   128   129    1
   179   128   125    1
   180   140   139    1
   181   139   141    1
   182   139   136    1
   183   160   161    1
   184   160   159    1
   185    69    70    1
   186   162   161    2
   187   126   125    1
   188    78    81    1
   189    78    79    1
   190   129   131   ar
   191   129   130   ar
   192   131   133   ar
   193   150   151    1
   194   150   149    1
   195    81    82    1
   196   125   124    1
   197   152   151    2
   198   138   137    2
   199   130   132   ar
   200   133   134   ar
   201   157   156    2
   202   159   156   am
   203   136   137    1
   204   136   135    1
   205    70    71    1
   206    70    73    1
   207   132   134   ar
   208    79    80    2
   209   156   155    1
   210   149   144   am
   211    71    72    2
   212   158   155    1
   213    73    74    1
   214   145   144    2
   215   144   143    1
   216   148   146    1
   217   155   154    1
   218   146   143    1
   219   146   147    1
   220    97    96   ar
   221    97    95   ar
   222    96    94   ar
   223    95    93   ar
   224    94    91   ar
   225   143   142    1
   226    93    91   ar
   227    93    92   ar
   228    91    89   ar
   229    74    75    2
   230    74    76   am
   231    92    90   ar
   232    89    88    1
   233    89    90   ar
   234    88    85    1
   235    87    86    2
   236    86    85    1
   237    85    84    1
