@<TRIPOS>MOLECULE
tmp/5zkcA00.pdb
 169 165 0 0 0
SMALL
GASTEIGER

@<TRIPOS>ATOM
      1  N        177.0880   36.6010  531.5640 N.3    57  ILE57      -0.1245
      2  CA       176.5210   35.7250  530.5410 C.3    57  ILE57       0.1561
      3  C        175.0500   36.0510  530.3130 C.2    57  ILE57       0.2260
      4  O        174.5760   36.0920  529.1700 O.2    57  ILE57      -0.2867
      5  CB       176.7190   34.2490  530.9340 C.3    57  ILE57       0.0252
      6  CG1      178.2070   33.8920  530.9350 C.3    57  ILE57       0.0019
      7  CG2      175.9440   33.3320  529.9980 C.3    57  ILE57       0.0019
      8  CD1      178.8780   34.0730  529.5970 C.3    57  ILE57       0.0001
      9  N        183.0160   36.4930  525.9730 N.3    88  ASP88      -0.1225
     10  CA       182.4620   35.1660  526.2220 C.3    88  ASP88       0.1805
     11  C        183.5400   34.1940  526.6890 C.2    88  ASP88       0.2597
     12  O        183.3490   33.4600  527.6650 O.2    88  ASP88      -0.2718
     13  CB       181.7760   34.6480  524.9570 C.3    88  ASP88       0.1424
     14  CG       180.3150   34.3310  525.1790 C.2    88  ASP88       0.3668
     15  OD1      179.8480   34.4700  526.3270 O.co2  88  ASP88      -0.2456
     16  OD2      179.6350   33.9360  524.2090 O.co2  88  ASP88      -0.2456
     17  N        184.6840   34.1760  526.0020 N.am   89  TYR89      -0.1976
     18  CA       185.7270   33.2080  526.3230 C.3    89  TYR89       0.1639
     19  C        186.4790   33.5770  527.5960 C.2    89  TYR89       0.2290
     20  O        186.8750   32.6900  528.3590 O.2    89  TYR89      -0.2864
     21  CB       186.6900   33.0690  525.1430 C.3    89  TYR89       0.0560
     22  CG       186.1910   32.1120  524.0860 C.ar   89  TYR89      -0.0198
     23  CD1      185.1290   32.4520  523.2580 C.ar   89  TYR89      -0.0009
     24  CD2      186.7720   30.8610  523.9250 C.ar   89  TYR89      -0.0009
     25  CE1      184.6630   31.5760  522.2950 C.ar   89  TYR89       0.0417
     26  CE2      186.3160   29.9790  522.9670 C.ar   89  TYR89       0.0417
     27  CZ       185.2610   30.3400  522.1530 C.ar   89  TYR89       0.1957
     28  OH       184.8020   29.4630  521.1970 O.3    89  TYR89      -0.2866
     29  N        184.0810   32.7100  530.4470 N.3    92  SER92      -0.1202
     30  CA       183.9610   31.2620  530.5870 C.3    92  SER92       0.2020
     31  C        185.2250   30.6540  531.1800 C.2    92  SER92       0.2618
     32  O        185.1500   29.7220  531.9900 O.2    92  SER92      -0.2717
     33  CB       183.6490   30.6320  529.2320 C.3    92  SER92       0.2103
     34  OG       182.4570   31.1670  528.6830 O.3    92  SER92      -0.2182
     35  N        186.3940   31.1580  530.7830 N.am   93  ASN93      -0.1974
     36  CA       187.6410   30.6480  531.3430 C.3    93  ASN93       0.1688
     37  C        187.7730   31.0170  532.8150 C.2    93  ASN93       0.2292
     38  O        188.2980   30.2320  533.6120 O.2    93  ASN93      -0.2864
     39  CB       188.8310   31.1790  530.5450 C.3    93  ASN93       0.1181
     40  CG       190.0770   30.3430  530.7380 C.2    93  ASN93       0.2629
     41  OD1      190.3610   29.4460  529.9430 O.2    93  ASN93      -0.2716
     42  ND2      190.8240   30.6250  531.8000 N.am   93  ASN93      -0.0877
     43  N        185.7100   28.4700  534.7570 N.3    96  VAL96      -0.1245
     44  CA       186.3520   27.1660  534.9040 C.3    96  VAL96       0.1561
     45  C        187.4080   27.2120  536.0000 C.2    96  VAL96       0.2260
     46  O        187.4510   26.3480  536.8840 O.2    96  VAL96      -0.2867
     47  CB       186.9510   26.7120  533.5610 C.3    96  VAL96       0.0252
     48  CG1      187.8210   25.4870  533.7570 C.3    96  VAL96       0.0019
     49  CG2      185.8420   26.4290  532.5600 C.3    96  VAL96       0.0019
     50  N        192.8670   34.7680  526.6640 N.3   140  TRP140     -0.1241
     51  CA       191.8950   34.7710  525.5760 C.3   140  TRP140      0.1605
     52  C        191.7390   36.1080  524.8680 C.2   140  TRP140      0.2264
     53  O        191.5980   36.1290  523.6440 O.2   140  TRP140     -0.2867
     54  CB       190.5270   34.3200  526.0980 C.3   140  TRP140      0.0550
     55  CG       190.4480   32.8460  526.3150 C.ar  140  TRP140      0.0003
     56  CD1      190.4290   32.1880  527.5100 C.ar  140  TRP140      0.0946
     57  CD2      190.3920   31.8390  525.3010 C.ar  140  TRP140      0.0152
     58  NE1      190.3550   30.8310  527.3020 N.ar  140  TRP140     -0.2442
     59  CE2      190.3320   30.5920  525.9530 C.ar  140  TRP140      0.0810
     60  CE3      190.3840   31.8720  523.9030 C.ar  140  TRP140      0.0012
     61  CZ2      190.2640   29.3900  525.2550 C.ar  140  TRP140      0.0191
     62  CZ3      190.3160   30.6790  523.2130 C.ar  140  TRP140      0.0001
     63  CH2      190.2580   29.4560  523.8890 C.ar  140  TRP140      0.0015
     64  N        190.5080   23.9680  517.5810 N.3   172  THR172     -0.1218
     65  CA       189.3450   24.0430  518.4590 C.3   172  THR172      0.1862
     66  C        189.3090   22.8660  519.4270 C.2   172  THR172      0.2287
     67  O        188.9430   23.0260  520.5980 O.2   172  THR172     -0.2866
     68  CB       188.0660   24.0910  517.6240 C.3   172  THR172      0.1770
     69  OG1      188.2170   25.0570  516.5770 O.3   172  THR172     -0.2211
     70  CG2      186.8750   24.4750  518.4890 C.3   172  THR172      0.0375
     71  N        191.8350   23.3540  522.1680 N.3   175  THR175     -0.1203
     72  CA       191.2390   24.2540  523.1480 C.3   175  THR175      0.1994
     73  C        190.2620   23.5110  524.0520 C.2   175  THR175      0.2617
     74  O        190.2430   23.7270  525.2700 O.2   175  THR175     -0.2717
     75  CB       190.5420   25.4110  522.4310 C.3   175  THR175      0.1784
     76  OG1      191.5250   26.3300  521.9370 O.3   175  THR175     -0.2211
     77  CG2      189.5910   26.1370  523.3670 C.3   175  THR175      0.0376
     78  N        189.4510   22.6200  523.4740 N.am  176  ALA176     -0.1979
     79  CA       188.5080   21.8480  524.2760 C.3   176  ALA176      0.1597
     80  C        189.2210   20.9270  525.2560 C.2   176  ALA176      0.2287
     81  O        188.7020   20.6670  526.3480 O.2   176  ALA176     -0.2864
     82  CB       187.5820   21.0400  523.3660 C.3   176  ALA176      0.0319
     83  N        191.0310   23.5540  527.9840 N.3   179  ALA179     -0.1231
     84  CA       190.1570   24.4470  528.7330 C.3   179  ALA179      0.1694
     85  C        188.9550   23.7550  529.3610 C.2   179  ALA179      0.2592
     86  O        188.4090   24.2770  530.3390 O.2   179  ALA179     -0.2718
     87  CB       189.6640   25.5880  527.8340 C.3   179  ALA179      0.0304
     88  N        188.5180   22.6130  528.8330 N.am  180  PHE180     -0.1976
     89  CA       187.3590   21.9280  529.3950 C.3   180  PHE180      0.1639
     90  C        187.6890   20.5410  529.9320 C.2   180  PHE180      0.2290
     91  O        187.4070   20.2640  531.1010 O.2   180  PHE180     -0.2864
     92  CB       186.2310   21.8380  528.3590 C.3   180  PHE180      0.0560
     93  CG       185.0390   21.0630  528.8400 C.ar  180  PHE180     -0.0200
     94  CD1      184.1600   21.6170  529.7550 C.ar  180  PHE180     -0.0042
     95  CD2      184.8070   19.7750  528.3900 C.ar  180  PHE180     -0.0042
     96  CE1      183.0660   20.9030  530.2050 C.ar  180  PHE180     -0.0003
     97  CE2      183.7150   19.0570  528.8350 C.ar  180  PHE180     -0.0003
     98  CZ       182.8420   19.6220  529.7440 C.ar  180  PHE180     -0.0000
     99  N        177.8840   21.6760  529.7130 N.3   326  TRP326     -0.1241
    100  CA       178.9680   22.0030  528.7950 C.3   326  TRP326      0.1605
    101  C        179.4840   20.8080  528.0040 C.2   326  TRP326      0.2264
    102  O        180.1560   21.0080  526.9860 O.2   326  TRP326     -0.2867
    103  CB       180.1440   22.6320  529.5540 C.3   326  TRP326      0.0550
    104  CG       179.9210   24.0530  529.9710 C.ar  326  TRP326      0.0003
    105  CD1      178.7680   24.5950  530.4570 C.ar  326  TRP326      0.0946
    106  CD2      180.8770   25.1180  529.9230 C.ar  326  TRP326      0.0152
    107  NE1      178.9490   25.9310  530.7230 N.ar  326  TRP326     -0.2442
    108  CE2      180.2350   26.2770  530.4030 C.ar  326  TRP326      0.0810
    109  CE3      182.2150   25.2040  529.5240 C.ar  326  TRP326      0.0012
    110  CZ2      180.8840   27.5060  530.4940 C.ar  326  TRP326      0.0191
    111  CZ3      182.8570   26.4260  529.6170 C.ar  326  TRP326      0.0001
    112  CH2      182.1920   27.5590  530.0980 C.ar  326  TRP326      0.0015
    113  N        178.3580   20.5050  523.9120 N.3   329  TYR329     -0.1227
    114  CA       179.0930   21.3400  522.9660 C.3   329  TYR329      0.1736
    115  C        180.4910   20.7910  522.7140 C.2   329  TYR329      0.2595
    116  O        180.9870   20.8290  521.5820 O.2   329  TYR329     -0.2718
    117  CB       179.1710   22.7810  523.4760 C.3   329  TYR329      0.0548
    118  CG       180.0770   23.6710  522.6500 C.ar  329  TYR329     -0.0200
    119  CD1      179.5940   24.3500  521.5370 C.ar  329  TYR329     -0.0009
    120  CD2      181.4180   23.8330  522.9830 C.ar  329  TYR329     -0.0009
    121  CE1      180.4220   25.1630  520.7790 C.ar  329  TYR329      0.0417
    122  CE2      182.2530   24.6380  522.2270 C.ar  329  TYR329      0.0417
    123  CZ       181.7490   25.3040  521.1300 C.ar  329  TYR329      0.1957
    124  OH       182.5760   26.1110  520.3810 O.3   329  TYR329     -0.2866
    125  N        181.1440   20.2770  523.7550 N.am  330  ASN330     -0.1974
    126  CA       182.5280   19.8430  523.6100 C.3   330  ASN330      0.1688
    127  C        182.6410   18.5220  522.8610 C.2   330  ASN330      0.2292
    128  O        183.6560   18.2810  522.1960 O.2   330  ASN330     -0.2864
    129  CB       183.1910   19.7480  524.9850 C.3   330  ASN330      0.1181
    130  CG       183.5160   21.1070  525.5610 C.2   330  ASN330      0.2629
    131  OD1      184.5620   21.6820  525.2620 O.2   330  ASN330     -0.2716
    132  ND2      182.6120   21.6390  526.3770 N.am  330  ASN330     -0.0877
    133  N        182.5360   19.4750  519.3270 N.3   333  VAL333     -0.1245
    134  CA       183.8630   19.8740  518.8700 C.3   333  VAL333      0.1561
    135  C        184.6910   18.6480  518.5130 C.2   333  VAL333      0.2260
    136  O        185.3950   18.6290  517.4950 O.2   333  VAL333     -0.2867
    137  CB       184.5600   20.7350  519.9420 C.3   333  VAL333      0.0252
    138  CG1      186.0010   21.0230  519.5490 C.3   333  VAL333      0.0019
    139  CG2      183.7960   22.0310  520.1620 C.3   333  VAL333      0.0019
    140  N        175.6360   25.5220  522.2550 N.3   352  TYR352     -0.1241
    141  CA       176.0350   26.8390  522.7390 C.3   352  TYR352      0.1605
    142  C        175.0910   27.3330  523.8270 C.2   352  TYR352      0.2264
    143  O        175.5280   27.9260  524.8220 O.2   352  TYR352     -0.2867
    144  CB       176.0700   27.8280  521.5750 C.3   352  TYR352      0.0534
    145  CG       177.2980   28.7040  521.5320 C.ar  352  TYR352     -0.0201
    146  CD1      178.5020   28.2160  521.0460 C.ar  352  TYR352     -0.0009
    147  CD2      177.2500   30.0240  521.9600 C.ar  352  TYR352     -0.0009
    148  CE1      179.6270   29.0120  520.9940 C.ar  352  TYR352      0.0417
    149  CE2      178.3720   30.8300  521.9120 C.ar  352  TYR352      0.0417
    150  CZ       179.5580   30.3190  521.4280 C.ar  352  TYR352      0.1957
    151  OH       180.6790   31.1160  521.3790 O.3   352  TYR352     -0.2866
    152  N        175.4470   25.6010  527.3320 N.3   355  CYS355     -0.1221
    153  CA       176.5240   26.2140  528.1010 C.3   355  CYS355      0.1808
    154  C        176.0500   27.4900  528.7850 C.2   355  CYS355      0.2601
    155  O        176.4030   27.7540  529.9410 O.2   355  CYS355     -0.2717
    156  CB       177.7220   26.5060  527.1980 C.3   355  CYS355      0.0970
    157  SG       178.4880   25.0610  526.4280 S.3   355  CYS355     -0.0800
    158  N        175.2560   28.3010  528.0820 N.am  356  TYR356     -0.1976
    159  CA       174.6730   29.4840  528.7050 C.3   356  TYR356      0.1639
    160  C        173.7420   29.1000  529.8490 C.2   356  TYR356      0.2290
    161  O        173.7140   29.7700  530.8880 O.2   356  TYR356     -0.2864
    162  CB       173.9190   30.3130  527.6650 C.3   356  TYR356      0.0560
    163  CG       174.8000   31.0890  526.7120 C.ar  356  TYR356     -0.0198
    164  CD1      176.1160   31.3940  527.0350 C.ar  356  TYR356     -0.0009
    165  CD2      174.3080   31.5260  525.4890 C.ar  356  TYR356     -0.0009
    166  CE1      176.9180   32.1090  526.1620 C.ar  356  TYR356      0.0417
    167  CE2      175.1000   32.2410  524.6110 C.ar  356  TYR356      0.0417
    168  CZ       176.4050   32.5300  524.9520 C.ar  356  TYR356      0.1957
    169  OH       177.1940   33.2430  524.0770 O.3   356  TYR356     -0.2866
@<TRIPOS>BOND
     1    69    68    1
     2   136   135    2
     3    64    65    1
     4    68    65    1
     5    68    70    1
     6    65    66    1
     7   135   134    1
     8   134   133    1
     9   134   137    1
    10    66    67    2
    11   138   137    1
    12   137   139    1
    13   124   123    1
    14   121   123   ar
    15   121   119   ar
    16   148   146   ar
    17   148   150   ar
    18   146   145   ar
    19   123   122   ar
    20    28    27    1
    21   151   150    1
    22   150   149   ar
    23   145   144    1
    24   145   147   ar
    25   119   118   ar
    26   144   141    1
    27   116   115    2
    28   149   147   ar
    29    76    75    1
    30    27    25   ar
    31    27    26   ar
    32    71    72    1
    33   128   127    2
    34   122   120   ar
    35   140   141    1
    36    25    23   ar
    37    75    72    1
    38    75    77    1
    39   118   120   ar
    40   118   117    1
    41   115   114    1
    42   115   125   am
    43   141   142    1
    44   127   126    1
    45   114   117    1
    46   114   113    1
    47    26    24   ar
    48    72    73    1
    49    62    63   ar
    50    62    60   ar
    51    23    22   ar
    52    82    79    1
    53    78    73   am
    54    78    79    1
    55   126   125    1
    56   126   129    1
    57    53    52    2
    58   142   143    2
    59    63    61   ar
    60    60    57   ar
    61    24    22   ar
    62    73    74    2
    63   169   168    1
    64    22    21    1
    65    16    14   ar
    66    79    80    1
    67   167   168   ar
    68   167   165   ar
    69    52    51    1
    70   168   166   ar
    71    13    14    1
    72    13    10    1
    73   129   130    1
    74    21    18    1
    75    14    15   ar
    76    61    59   ar
    77    80    81    2
    78   131   130    2
    79    57    59   ar
    80    57    55   ar
    81   165   163   ar
    82   130   132   am
    83    51    54    1
    84    51    50    1
    85    59    58   ar
    86     9    10    1
    87    17    18    1
    88    17    11   am
    89    54    55    1
    90   166   164   ar
    91    10    11    1
    92    55    56   ar
    93    18    19    1
    94   157   156    1
    95    11    12    2
    96   163   164   ar
    97   163   162    1
    98   102   101    2
    99   156   153    1
   100    58    56   ar
   101   152   153    1
   102    19    20    2
   103   162   159    1
   104    87    84    1
   105    83    84    1
   106   101   100    1
   107   158   159    1
   108   158   154   am
   109   153   154    1
   110    92    93    1
   111    92    89    1
   112    95    97   ar
   113    95    93   ar
   114    34    33    1
   115   159   160    1
   116    84    85    1
   117   154   155    2
   118   100   103    1
   119   100    99    1
   120    88    85   am
   121    88    89    1
   122    97    98   ar
   123    93    94   ar
   124     4     3    2
   125    33    30    1
   126    85    86    2
   127    89    90    1
   128   109   111   ar
   129   109   106   ar
   130   103   104    1
   131     8     6    1
   132   111   112   ar
   133    98    96   ar
   134    94    96   ar
   135   160   161    2
   136   106   104   ar
   137   106   108   ar
   138    90    91    2
   139    41    40    2
   140   104   105   ar
   141     7     5    1
   142   112   110   ar
   143     3     2    1
   144   108   110   ar
   145   108   107   ar
   146    29    30    1
   147   105   107   ar
   148     2     5    1
   149     2     1    1
   150    39    40    1
   151    39    36    1
   152    30    31    1
   153    40    42   am
   154    35    31   am
   155    35    36    1
   156     5     6    1
   157    31    32    2
   158    36    37    1
   159    49    47    1
   160    37    38    2
   161    47    48    1
   162    47    44    1
   163    43    44    1
   164    44    45    1
   165    45    46    2
