@<TRIPOS>MOLECULE
tmp/5zkpA01.pdb
 157 156 0 0 0
SMALL
GASTEIGER

@<TRIPOS>ATOM
      1  N         43.3900  -27.1710  -54.6660 N.3   206  SER206     -0.1202
      2  CA        44.6050  -27.2650  -55.4810 C.3   206  SER206      0.2020
      3  C         44.4300  -27.9880  -56.8190 C.2   206  SER206      0.2619
      4  O         43.8680  -29.0840  -56.8440 O.2   206  SER206     -0.2717
      5  CB        45.7260  -27.9230  -54.6830 C.3   206  SER206      0.2103
      6  OG        46.9340  -27.9210  -55.4240 O.3   206  SER206     -0.2182
      7  N         44.9650  -27.3910  -57.9190 N.am  207  THR207     -0.1938
      8  CA        44.9420  -27.9560  -59.2770 C.3   207  THR207      0.2028
      9  C         46.2530  -28.7180  -59.5180 C.2   207  THR207      0.2643
     10  O         46.2300  -29.9510  -59.5620 O.2   207  THR207     -0.2714
     11  CB        44.6930  -26.8570  -60.3540 C.3   207  THR207      0.1808
     12  OG1       43.5050  -26.1220  -60.0610 O.3   207  THR207     -0.2208
     13  CG2       44.5930  -27.4150  -61.7650 C.3   207  THR207      0.0379
     14  N         47.3940  -27.9790  -59.6470 N.am  208  THR208     -0.1936
     15  CA        48.7450  -28.5100  -59.9280 C.3   208  THR208      0.2028
     16  C         49.4140  -29.1750  -58.7010 C.2   208  THR208      0.2643
     17  O         50.4890  -29.7570  -58.8450 O.2   208  THR208     -0.2714
     18  CB        49.6640  -27.4330  -60.5670 C.3   208  THR208      0.1808
     19  OG1       48.8950  -26.3510  -61.1030 O.3   208  THR208     -0.2208
     20  CG2       50.5660  -28.0020  -61.6560 C.3   208  THR208      0.0379
     21  N         48.7710  -29.0950  -57.5300 N.am  209  GLY209     -0.1939
     22  CA        49.2400  -29.7210  -56.2960 C.3   209  GLY209      0.2014
     23  C         50.0930  -28.8790  -55.3670 C.2   209  GLY209      0.2639
     24  O         50.6000  -29.4050  -54.3680 O.2   209  GLY209     -0.2714
     25  N         50.2520  -27.5740  -55.6700 N.am  210  ASN210     -0.1958
     26  CA        51.0690  -26.6530  -54.8770 C.3   210  ASN210      0.1819
     27  C         50.4360  -26.2570  -53.5390 C.2   210  ASN210      0.2621
     28  O         51.1300  -26.2750  -52.5230 O.2   210  ASN210     -0.2715
     29  CB        51.4630  -25.4340  -55.6900 C.3   210  ASN210      0.1195
     30  CG        52.5060  -25.7200  -56.7350 C.2   210  ASN210      0.2630
     31  OD1       53.1720  -26.7580  -56.7330 O.2   210  ASN210     -0.2716
     32  ND2       52.6810  -24.7900  -57.6510 N.am  210  ASN210     -0.0877
     33  N         49.1300  -25.9160  -53.5280 N.am  211  THR211     -0.1951
     34  CA        48.3900  -25.5750  -52.3020 C.3   211  THR211      0.1897
     35  C         48.2740  -26.8360  -51.4540 C.2   211  THR211      0.2313
     36  O         48.3660  -26.7470  -50.2310 O.2   211  THR211     -0.2863
     37  CB        47.0100  -24.9630  -52.6070 C.3   211  THR211      0.1794
     38  OG1       47.1420  -23.9170  -53.5780 O.3   211  THR211     -0.2208
     39  CG2       46.3140  -24.4340  -51.3560 C.3   211  THR211      0.0378
     40  N         44.7160  -21.3350  -54.3900 N.3   254  SER254     -0.1202
     41  CA        45.5740  -20.7980  -55.4460 C.3   254  SER254      0.2020
     42  C         44.8090  -19.7730  -56.2940 C.2   254  SER254      0.2619
     43  O         43.6120  -19.9460  -56.5200 O.2   254  SER254     -0.2717
     44  CB        46.0900  -21.9220  -56.3370 C.3   254  SER254      0.2103
     45  OG        45.0470  -22.7740  -56.7860 O.3   254  SER254     -0.2182
     46  N         45.4890  -18.7090  -56.7560 N.am  255  THR255     -0.1938
     47  CA        44.8610  -17.6790  -57.5930 C.3   255  THR255      0.2028
     48  C         44.8950  -18.1050  -59.0660 C.2   255  THR255      0.2642
     49  O         45.8450  -18.7630  -59.4950 O.2   255  THR255     -0.2714
     50  CB        45.4530  -16.2840  -57.3160 C.3   255  THR255      0.1808
     51  OG1       45.4960  -16.0680  -55.9040 O.3   255  THR255     -0.2208
     52  CG2       44.6400  -15.1640  -57.9590 C.3   255  THR255      0.0379
     53  N         43.8210  -17.7860  -59.8170 N.am  256  TRP256     -0.1959
     54  CA        43.6540  -18.1440  -61.2270 C.3   256  TRP256      0.1771
     55  C         43.0260  -17.0140  -62.0420 C.2   256  TRP256      0.2620
     56  O         42.7400  -15.9450  -61.5010 O.2   256  TRP256     -0.2715
     57  CB        42.8260  -19.4330  -61.3460 C.3   256  TRP256      0.0590
     58  CG        43.5410  -20.6290  -60.8000 C.ar  256  TRP256      0.0006
     59  CD1       43.5480  -21.0530  -59.5060 C.ar  256  TRP256      0.0946
     60  CD2       44.4230  -21.5070  -61.5160 C.ar  256  TRP256      0.0152
     61  NE1       44.3690  -22.1450  -59.3700 N.ar  256  TRP256     -0.2442
     62  CE2       44.9050  -22.4580  -60.5910 C.ar  256  TRP256      0.0810
     63  CE3       44.8290  -21.6050  -62.8600 C.ar  256  TRP256      0.0012
     64  CZ2       45.7750  -23.4900  -60.9630 C.ar  256  TRP256      0.0191
     65  CZ3       45.6860  -22.6320  -63.2290 C.ar  256  TRP256      0.0001
     66  CH2       46.1500  -23.5600  -62.2870 C.ar  256  TRP256      0.0015
     67  N         42.8530  -17.2550  -63.3410 N.am  257  GLY257     -0.1940
     68  CA        42.2310  -16.3130  -64.2620 C.3   257  GLY257      0.2014
     69  C         43.1600  -15.5670  -65.1980 C.2   257  GLY257      0.2638
     70  O         44.0570  -14.8460  -64.7440 O.2   257  GLY257     -0.2714
     71  N         42.9070  -15.7070  -66.5270 N.am  258  ASP258     -0.1971
     72  CA        43.6270  -15.0220  -67.6100 C.3   258  ASP258      0.1709
     73  C         43.3140  -13.5280  -67.5270 C.2   258  ASP258      0.2293
     74  O         44.1950  -12.6890  -67.7340 O.2   258  ASP258     -0.2864
     75  CB        43.1510  -15.5200  -69.0010 C.3   258  ASP258      0.1436
     76  CG        43.3770  -16.9840  -69.3230 C.2   258  ASP258      0.3671
     77  OD1       43.9240  -17.2730  -70.4050 O.co2 258  ASP258     -0.2456
     78  OD2       42.9280  -17.8420  -68.5370 O.co2 258  ASP258     -0.2456
     79  N         40.5810  -11.6630  -64.8730 N.3   260  SER260     -0.1202
     80  CA        40.4780  -11.1350  -63.5000 C.3   260  SER260      0.2020
     81  C         41.0390  -12.0990  -62.4280 C.2   260  SER260      0.2618
     82  O         41.5340  -13.1790  -62.7750 O.2   260  SER260     -0.2717
     83  CB        39.0320  -10.7470  -63.1870 C.3   260  SER260      0.2103
     84  OG        38.9170  -10.0160  -61.9760 O.3   260  SER260     -0.2182
     85  N         40.9790  -11.6910  -61.1330 N.am  261  ILE261     -0.1979
     86  CA        41.4530  -12.4700  -59.9860 C.3   261  ILE261      0.1595
     87  C         40.4060  -13.5080  -59.5420 C.2   261  ILE261      0.2287
     88  O         39.6230  -13.2640  -58.6130 O.2   261  ILE261     -0.2864
     89  CB        41.9190  -11.5430  -58.8310 C.3   261  ILE261      0.0276
     90  CG1       41.6360  -12.3180  -57.5060 C.3   261  ILE261      0.0022
     91  CG2       41.5970  -10.0230  -58.5870 C.3   261  ILE261      0.0022
     92  CD1       42.1800  -11.4440  -56.3420 C.3   261  ILE261      0.0001
     93  N         48.8260  -20.2590  -52.8450 N.3   289  CYS289     -0.1221
     94  CA        49.8490  -20.2880  -53.8950 C.3   289  CYS289      0.1808
     95  C         49.5080  -19.3480  -55.0540 C.2   289  CYS289      0.2602
     96  O         48.3350  -19.1280  -55.3560 O.2   289  CYS289     -0.2717
     97  CB        50.0760  -21.7130  -54.3880 C.3   289  CYS289      0.0970
     98  SG        51.0240  -22.7450  -53.2480 S.3   289  CYS289     -0.0800
     99  N         50.5470  -18.8150  -55.6900 N.am  290  GLY290     -0.1942
    100  CA        50.4150  -17.8970  -56.8110 C.3   290  GLY290      0.2014
    101  C         51.6940  -17.6900  -57.5910 C.2   290  GLY290      0.2638
    102  O         52.5680  -18.5620  -57.5940 O.2   290  GLY290     -0.2714
    103  N         51.7980  -16.5270  -58.2700 N.am  291  ASP291     -0.1971
    104  CA        52.9500  -16.1230  -59.0810 C.3   291  ASP291      0.1709
    105  C         53.0050  -14.5960  -59.2100 C.2   291  ASP291      0.2293
    106  O         51.9910  -13.9750  -59.5450 O.2   291  ASP291     -0.2864
    107  CB        52.8760  -16.7710  -60.4780 C.3   291  ASP291      0.1436
    108  CG        54.2060  -16.9070  -61.1970 C.2   291  ASP291      0.3671
    109  OD1       54.8910  -15.8750  -61.3890 O.co2 291  ASP291     -0.2456
    110  OD2       54.5360  -18.0360  -61.6200 O.co2 291  ASP291     -0.2456
    111  N         51.7770  -12.1260  -62.4770 N.3   294  TRP294     -0.1241
    112  CA        50.4200  -11.5810  -62.6300 C.3   294  TRP294      0.1605
    113  C         50.2390  -10.3350  -61.7420 C.2   294  TRP294      0.2264
    114  O         51.0150  -10.1390  -60.8050 O.2   294  TRP294     -0.2867
    115  CB        49.3460  -12.6420  -62.3240 C.3   294  TRP294      0.0550
    116  CG        49.6350  -14.0010  -62.8920 C.ar  294  TRP294      0.0003
    117  CD1       50.2810  -15.0240  -62.2650 C.ar  294  TRP294      0.0946
    118  CD2       49.2800  -14.4890  -64.1940 C.ar  294  TRP294      0.0152
    119  NE1       50.3510  -16.1210  -63.0920 N.ar  294  TRP294     -0.2442
    120  CE2       49.7490  -15.8190  -64.2860 C.ar  294  TRP294      0.0810
    121  CE3       48.6250  -13.9260  -65.3050 C.ar  294  TRP294      0.0012
    122  CZ2       49.5780  -16.5980  -65.4400 C.ar  294  TRP294      0.0191
    123  CZ3       48.4660  -14.6960  -66.4530 C.ar  294  TRP294      0.0001
    124  CH2       48.9330  -16.0160  -66.5100 C.ar  294  TRP294      0.0015
    125  N         47.5760   -9.3370  -59.6250 N.3   296  TYR296     -0.1227
    126  CA        47.0730   -9.6120  -58.2750 C.3   296  TYR296      0.1736
    127  C         47.8120  -10.8230  -57.6870 C.2   296  TYR296      0.2595
    128  O         47.2860  -11.9440  -57.7390 O.2   296  TYR296     -0.2718
    129  CB        45.5370   -9.8420  -58.2740 C.3   296  TYR296      0.0548
    130  CG        44.7510   -8.9220  -59.1850 C.ar  296  TYR296     -0.0200
    131  CD1       44.5100   -9.2620  -60.5150 C.ar  296  TYR296     -0.0009
    132  CD2       44.2230   -7.7240  -58.7120 C.ar  296  TYR296     -0.0009
    133  CE1       43.7940   -8.4170  -61.3600 C.ar  296  TYR296      0.0417
    134  CE2       43.5010   -6.8720  -59.5470 C.ar  296  TYR296      0.0417
    135  CZ        43.2870   -7.2240  -60.8700 C.ar  296  TYR296      0.1957
    136  OH        42.5700   -6.3910  -61.6960 O.3   296  TYR296     -0.2866
    137  N         49.0470  -10.6090  -57.1580 N.am  297  PHE297     -0.1962
    138  CA        49.8260  -11.7030  -56.5670 C.3   297  PHE297      0.1771
    139  C         49.0950  -12.2630  -55.3580 C.2   297  PHE297      0.2619
    140  O         48.9040  -11.5670  -54.3580 O.2   297  PHE297     -0.2715
    141  CB        51.2830  -11.3170  -56.2430 C.3   297  PHE297      0.0574
    142  CG        52.0030  -12.3640  -55.4190 C.ar  297  PHE297     -0.0200
    143  CD1       52.3290  -13.5990  -55.9660 C.ar  297  PHE297     -0.0042
    144  CD2       52.3110  -12.1310  -54.0830 C.ar  297  PHE297     -0.0042
    145  CE1       52.9530  -14.5790  -55.1940 C.ar  297  PHE297     -0.0003
    146  CE2       52.9480  -13.1080  -53.3160 C.ar  297  PHE297     -0.0003
    147  CZ        53.2700  -14.3230  -53.8780 C.ar  297  PHE297     -0.0000
    148  N         48.6640  -13.5280  -55.4890 N.am  298  CYS298     -0.1968
    149  CA        47.8640  -14.2730  -54.5260 C.3   298  CYS298      0.1712
    150  C         46.5930  -13.4950  -54.2070 C.2   298  CYS298      0.2296
    151  O         46.3730  -13.0610  -53.0770 O.2   298  CYS298     -0.2864
    152  CB        48.6600  -14.6550  -53.2810 C.3   298  CYS298      0.0983
    153  SG        49.6350  -16.1690  -53.4700 S.3   298  CYS298     -0.0798
    154  N         55.2910  -18.8350  -56.6090 N.3   324  GLY324     -0.1225
    155  CA        55.6360  -20.0110  -57.3990 C.3   324  GLY324      0.1811
    156  C         55.5980  -21.3070  -56.6160 C.2   324  GLY324      0.2280
    157  O         54.5790  -21.6300  -55.9920 O.2   324  GLY324     -0.2866
@<TRIPOS>BOND
     1    77    76   ar
     2    76    75    1
     3    76    78   ar
     4    75    72    1
     5    74    73    2
     6    72    73    1
     7    72    71    1
     8    71    69   am
     9   124   123   ar
    10   124   122   ar
    11   123   121   ar
    12   122   120   ar
    13   121   118   ar
    14    69    70    2
    15    69    68    1
    16    79    80    1
    17   120   118   ar
    18   120   119   ar
    19    68    67    1
    20   118   116   ar
    21    80    83    1
    22    80    81    1
    23    67    55   am
    24    65    63   ar
    25    65    66   ar
    26    83    84    1
    27   119   117   ar
    28   116   115    1
    29   116   117   ar
    30    63    60   ar
    31    82    81    2
    32   112   111    1
    33   112   115    1
    34   112   113    1
    35    81    85   am
    36    66    64   ar
    37    55    56    2
    38    55    54    1
    39    13    11    1
    40   113   114    2
    41   136   135    1
    42    20    18    1
    43   110   108   ar
    44    60    58   ar
    45    60    62   ar
    46   109   108   ar
    47   133   135   ar
    48   133   131   ar
    49    57    54    1
    50    57    58    1
    51    54    53    1
    52   108   107    1
    53    85    86    1
    54    19    18    1
    55    64    62   ar
    56   135   134   ar
    57    58    59   ar
    58    62    61   ar
    59    18    15    1
    60   131   130   ar
    61   107   104    1
    62    11    12    1
    63    11     8    1
    64    86    87    1
    65    86    89    1
    66    15    14    1
    67    15    16    1
    68    53    48   am
    69    14     9   am
    70   125   126    1
    71    10     9    2
    72   134   132   ar
    73   106   105    2
    74    87    88    2
    75     9     8    1
    76    59    61   ar
    77    49    48    2
    78     8     7    1
    79   105   104    1
    80   130   132   ar
    81   130   129    1
    82   104   103    1
    83    48    47    1
    84    17    16    2
    85    89    91    1
    86    89    90    1
    87    16    21   am
    88   126   129    1
    89   126   127    1
    90   103   101   am
    91    52    50    1
    92     7     3   am
    93   128   127    2
    94   127   137   am
    95    32    30   am
    96   102   101    2
    97    47    50    1
    98    47    46    1
    99   101   100    1
   100    21    22    1
   101    90    92    1
   102   155   156    1
   103   155   154    1
   104    50    51    1
   105   137   138    1
   106     4     3    2
   107     3     2    1
   108   100    99    1
   109    45    44    1
   110    46    42   am
   111    30    31    2
   112    30    29    1
   113   156   157    2
   114   138   141    1
   115   138   139    1
   116    43    42    2
   117    44    41    1
   118    22    23    1
   119    42    41    1
   120   141   142    1
   121   143   142   ar
   122   143   145   ar
   123    99    95   am
   124    29    26    1
   125    25    23   am
   126    25    26    1
   127   148   139   am
   128   148   149    1
   129     2     5    1
   130     2     1    1
   131    41    40    1
   132     6     5    1
   133   142   144   ar
   134    23    24    2
   135   139   140    2
   136    96    95    2
   137   145   147   ar
   138    95    94    1
   139    26    27    1
   140   149   150    1
   141   149   152    1
   142    97    94    1
   143    97    98    1
   144   150   151    2
   145   144   146   ar
   146    94    93    1
   147   147   146   ar
   148    38    37    1
   149    27    33   am
   150    27    28    2
   151    33    34    1
   152   153   152    1
   153    37    34    1
   154    37    39    1
   155    34    35    1
   156    35    36    2
