@<TRIPOS>MOLECULE
tmp/5zkqB01.pdb
 135 134 0 0 0
SMALL
GASTEIGER

@<TRIPOS>ATOM
      1  N         70.7100    6.5160  194.3340 N.3    89  PHE89      -0.1241
      2  CA        69.4180    5.8770  194.1050 C.3    89  PHE89       0.1605
      3  C         69.5760    4.3940  193.6900 C.2    89  PHE89       0.2264
      4  O         68.7880    3.5490  194.1390 O.2    89  PHE89      -0.2867
      5  CB        68.6210    6.6570  193.0660 C.3    89  PHE89       0.0534
      6  CG        67.2210    6.1360  192.8530 C.ar   89  PHE89      -0.0203
      7  CD1       66.9740    5.0980  191.9610 C.ar   89  PHE89      -0.0042
      8  CD2       66.1460    6.6890  193.5310 C.ar   89  PHE89      -0.0042
      9  CE1       65.6810    4.6200  191.7560 C.ar   89  PHE89      -0.0003
     10  CE2       64.8480    6.2180  193.3160 C.ar   89  PHE89      -0.0003
     11  CZ        64.6270    5.1840  192.4300 C.ar   89  PHE89      -0.0000
     12  N         64.7670    3.8270  186.5820 N.3   136  ALA136     -0.1245
     13  CA        64.1790    4.8240  187.4940 C.3   136  ALA136      0.1562
     14  C         65.2220    5.8850  187.8800 C.2   136  ALA136      0.2260
     15  O         64.9040    7.0810  187.9000 O.2   136  ALA136     -0.2867
     16  CB        63.6340    4.1390  188.7450 C.3   136  ALA136      0.0290
     17  N         66.4100    9.2000  185.6170 N.3   139  TYR139     -0.1227
     18  CA        65.7390   10.4920  185.7450 C.3   139  TYR139      0.1736
     19  C         66.6070   11.5230  186.4670 C.2   139  TYR139      0.2595
     20  O         66.4620   12.7170  186.2230 O.2   139  TYR139     -0.2718
     21  CB        64.4040   10.3280  186.4700 C.3   139  TYR139      0.0548
     22  CG        63.3290    9.6660  185.6360 C.ar  139  TYR139     -0.0200
     23  CD1       62.6790   10.3620  184.6220 C.ar  139  TYR139     -0.0009
     24  CD2       62.9210    8.3640  185.8980 C.ar  139  TYR139     -0.0009
     25  CE1       61.6670    9.7680  183.8740 C.ar  139  TYR139      0.0417
     26  CE2       61.9070    7.7630  185.1630 C.ar  139  TYR139      0.0417
     27  CZ        61.2910    8.4640  184.1430 C.ar  139  TYR139      0.1957
     28  OH        60.2830    7.8690  183.4260 O.3   139  TYR139     -0.2866
     29  N         67.5290   11.0620  187.3280 N.am  140  PHE140     -0.1976
     30  CA        68.4600   11.9200  188.0500 C.3   140  PHE140      0.1639
     31  C         69.4690   12.5500  187.1090 C.2   140  PHE140      0.2290
     32  O         70.1040   13.5370  187.4840 O.2   140  PHE140     -0.2864
     33  CB        69.1900   11.1190  189.1220 C.3   140  PHE140      0.0560
     34  CG        68.3660   10.8840  190.3590 C.ar  140  PHE140     -0.0200
     35  CD1       67.4800    9.8200  190.4310 C.ar  140  PHE140     -0.0042
     36  CD2       68.4880   11.7190  191.4630 C.ar  140  PHE140     -0.0042
     37  CE1       66.7090    9.6160  191.5720 C.ar  140  PHE140     -0.0003
     38  CE2       67.7270   11.5030  192.6090 C.ar  140  PHE140     -0.0003
     39  CZ        66.8380   10.4600  192.6530 C.ar  140  PHE140     -0.0000
     40  N         67.7080   15.8990  185.3430 N.3   143  LEU143     -0.1245
     41  CA        67.3740   16.9650  186.2930 C.3   143  LEU143      0.1561
     42  C         68.4600   18.0180  186.3680 C.2   143  LEU143      0.2260
     43  O         69.5970   17.7560  185.9820 O.2   143  LEU143     -0.2867
     44  CB        67.2380   16.3660  187.7080 C.3   143  LEU143      0.0270
     45  CG        66.1240   15.3790  187.9970 C.3   143  LEU143      0.0019
     46  CD1       66.1450   14.9750  189.4550 C.3   143  LEU143      0.0001
     47  CD2       64.7610   15.9450  187.6170 C.3   143  LEU143      0.0001
     48  N         68.1670   21.3790  196.4710 N.3   164  HIS164     -0.1226
     49  CA        67.1290   22.2810  195.9770 C.3   164  HIS164      0.1752
     50  C         65.8830   21.5350  195.5470 C.2   164  HIS164      0.2596
     51  O         65.9540   20.6170  194.7320 O.2   164  HIS164     -0.2718
     52  CB        67.6820   23.1020  194.7930 C.3   164  HIS164      0.0759
     53  CG        66.7310   24.0930  194.1770 C.ar  164  HIS164      0.0818
     54  ND1       66.3080   25.2280  194.8680 N.ar  164  HIS164     -0.2268
     55  CD2       66.2170   24.1280  192.9210 C.ar  164  HIS164      0.1154
     56  CE1       65.5200   25.8840  194.0280 C.ar  164  HIS164      0.1986
     57  NE2       65.4380   25.2650  192.8410 N.ar  164  HIS164     -0.2212
     58  N         64.7430   21.9510  196.0860 N.am  165  TYR165     -0.1962
     59  CA        63.4210   21.4350  195.7530 C.3   165  TYR165      0.1771
     60  C         62.6340   22.6840  195.4720 C.2   165  TYR165      0.2619
     61  O         62.5490   23.5360  196.3590 O.2   165  TYR165     -0.2715
     62  CB        62.7760   20.6880  196.9490 C.3   165  TYR165      0.0574
     63  CG        63.2680   19.2740  197.1910 C.ar  165  TYR165     -0.0198
     64  CD1       64.4680   19.0350  197.8600 C.ar  165  TYR165     -0.0009
     65  CD2       62.4890   18.1760  196.8440 C.ar  165  TYR165     -0.0009
     66  CE1       64.9200   17.7360  198.1010 C.ar  165  TYR165      0.0417
     67  CE2       62.9170   16.8720  197.1010 C.ar  165  TYR165      0.0417
     68  CZ        64.1370   16.6570  197.7240 C.ar  165  TYR165      0.1957
     69  OH        64.5670   15.3780  197.9870 O.3   165  TYR165     -0.2866
     70  N         62.1130   22.8410  194.2400 N.am  166  GLU166     -0.1977
     71  CA        61.2920   24.0020  193.8800 C.3   166  GLU166      0.1602
     72  C         60.0940   24.0270  194.8300 C.2   166  GLU166      0.2287
     73  O         59.3940   23.0140  194.9400 O.2   166  GLU166     -0.2864
     74  CB        60.8120   23.9050  192.4270 C.3   166  GLU166      0.0415
     75  CG        61.7860   24.4860  191.4170 C.3   166  GLU166      0.1163
     76  CD        61.3810   24.3660  189.9570 C.2   166  GLU166      0.3649
     77  OE1       60.1760   24.1620  189.6730 O.co2 166  GLU166     -0.2457
     78  OE2       62.2780   24.4930  189.0920 O.co2 166  GLU166     -0.2457
     79  N         56.4800   21.6780  194.8920 N.3   169  SER169     -0.1217
     80  CA        56.5060   20.7510  193.7590 C.3   169  SER169      0.1889
     81  C         55.6360   19.5380  194.0410 C.2   169  SER169      0.2288
     82  O         55.7760   18.8630  195.0650 O.2   169  SER169     -0.2866
     83  CB        57.9260   20.3390  193.3930 C.3   169  SER169      0.2089
     84  OG        57.9910   20.0330  192.0100 O.3   169  SER169     -0.2183
     85  N         55.0850   16.8600  191.5410 N.3   171  PRO171     -0.2102
     86  CA        55.6740   15.5660  191.1360 C.3   171  PRO171      0.1504
     87  C         56.5800   14.9980  192.2250 C.2   171  PRO171      0.2575
     88  O         56.4300   13.8230  192.5600 O.2   171  PRO171     -0.2718
     89  CB        56.4230   15.8920  189.8340 C.3   171  PRO171      0.0282
     90  CG        55.7480   17.1130  189.3210 C.3   171  PRO171      0.0208
     91  CD        55.4070   17.9080  190.5480 C.3   171  PRO171      0.0893
     92  N         57.4260   15.8540  192.8480 N.am  172  VAL172     -0.1980
     93  CA        58.3100   15.4900  193.9490 C.3   172  VAL172      0.1595
     94  C         57.5140   14.7730  195.0420 C.2   172  VAL172      0.2287
     95  O         57.9140   13.6800  195.4380 O.2   172  VAL172     -0.2864
     96  CB        59.0880   16.7220  194.4850 C.3   172  VAL172      0.0276
     97  CG1       59.4740   16.5740  195.9550 C.3   172  VAL172      0.0022
     98  CG2       60.3120   17.0140  193.6360 C.3   172  VAL172      0.0022
     99  N         56.1450   11.2720  193.7480 N.3   175  ILE175     -0.1231
    100  CA        57.3120   10.3910  193.5820 C.3   175  ILE175      0.1692
    101  C         57.8160    9.8740  194.9290 C.2   175  ILE175      0.2592
    102  O         58.0150    8.6750  195.0880 O.2   175  ILE175     -0.2718
    103  CB        58.4160   11.0720  192.7310 C.3   175  ILE175      0.0266
    104  CG1       57.9640   11.1550  191.2520 C.3   175  ILE175      0.0019
    105  CG2       59.7600   10.3300  192.8470 C.3   175  ILE175      0.0020
    106  CD1       58.6090   12.2080  190.4240 C.3   175  ILE175      0.0001
    107  N         57.9800   10.7720  195.8920 N.am  176  HIS176     -0.1976
    108  CA        58.4130   10.4520  197.2450 C.3   176  HIS176      0.1656
    109  C         57.3530    9.6770  198.0110 C.2   176  HIS176      0.2291
    110  O         57.7150    8.9330  198.9230 O.2   176  HIS176     -0.2864
    111  CB        58.7860   11.7220  198.0160 C.3   176  HIS176      0.0771
    112  CG        60.1710   12.2040  197.7360 C.ar  176  HIS176      0.0820
    113  ND1       61.2600   11.6820  198.4020 N.ar  176  HIS176     -0.2267
    114  CD2       60.5960   13.1640  196.8840 C.ar  176  HIS176      0.1154
    115  CE1       62.3090   12.3340  197.9320 C.ar  176  HIS176      0.1986
    116  NE2       61.9560   13.2240  197.0040 N.ar  176  HIS176     -0.2212
    117  N         55.0220    7.4980  196.4970 N.3   178  PHE178     -0.1227
    118  CA        55.1010    6.2220  195.8000 C.3   178  PHE178      0.1736
    119  C         56.2380    5.3740  196.3450 C.2   178  PHE178      0.2595
    120  O         55.9770    4.2530  196.7520 O.2   178  PHE178     -0.2718
    121  CB        55.2750    6.4070  194.2770 C.3   178  PHE178      0.0547
    122  CG        55.7190    5.1380  193.5710 C.ar  178  PHE178     -0.0202
    123  CD1       54.8230    4.0970  193.3410 C.ar  178  PHE178     -0.0042
    124  CD2       57.0410    4.9760  193.1580 C.ar  178  PHE178     -0.0042
    125  CE1       55.2380    2.9200  192.7010 C.ar  178  PHE178     -0.0003
    126  CE2       57.4570    3.7930  192.5270 C.ar  178  PHE178     -0.0003
    127  CZ        56.5550    2.7700  192.3130 C.ar  178  PHE178     -0.0000
    128  N         57.4860    5.9120  196.3530 N.am  179  ILE179     -0.1980
    129  CA        58.7060    5.2330  196.7950 C.3   179  ILE179      0.1595
    130  C         58.6230    4.7280  198.2370 C.2   179  ILE179      0.2287
    131  O         58.9970    3.5870  198.4910 O.2   179  ILE179     -0.2864
    132  CB        59.9230    6.1430  196.5430 C.3   179  ILE179      0.0276
    133  CG1       60.2980    6.0790  195.0520 C.3   179  ILE179      0.0022
    134  CG2       61.1220    5.7940  197.4570 C.3   179  ILE179      0.0022
    135  CD1       61.0900    7.1790  194.5750 C.3   179  ILE179      0.0001
@<TRIPOS>BOND
     1    28    27    1
     2    25    27   ar
     3    25    23   ar
     4    27    26   ar
     5    23    22   ar
     6    26    24   ar
     7    40    41    1
     8    17    18    1
     9    22    24   ar
    10    22    21    1
    11    18    19    1
    12    18    21    1
    13    43    42    2
    14    20    19    2
    15    41    42    1
    16    41    44    1
    17    19    29   am
    18    12    13    1
    19    31    32    2
    20    31    30    1
    21    29    30    1
    22    13    14    1
    23    13    16    1
    24    47    45    1
    25    44    45    1
    26    14    15    2
    27    45    46    1
    28    30    33    1
    29    78    76   ar
    30    33    34    1
    31    90    89    1
    32    90    91    1
    33    77    76   ar
    34    89    86    1
    35    76    75    1
    36    34    35   ar
    37    34    36   ar
    38   106   104    1
    39    35    37   ar
    40    91    85    1
    41    86    85    1
    42    86    87    1
    43   104   103    1
    44    75    74    1
    45    36    38   ar
    46    37    39   ar
    47     9     7   ar
    48     9    11   ar
    49     7     6   ar
    50    84    83    1
    51    87    88    2
    52    87    92   am
    53   127   126   ar
    54   127   125   ar
    55    74    71    1
    56    11    10   ar
    57   126   124   ar
    58    38    39   ar
    59   125   123   ar
    60   103   105    1
    61   103   100    1
    62    57    55   ar
    63    57    56   ar
    64    92    93    1
    65     6     5    1
    66     6     8   ar
    67    55    53   ar
    68     5     2    1
    69   124   122   ar
    70    10     8   ar
    71   123   122   ar
    72    83    80    1
    73   122   121    1
    74   100    99    1
    75   100   101    1
    76    98    96    1
    77     3     2    1
    78     3     4    2
    79    80    81    1
    80    80    79    1
    81    71    70    1
    82    71    72    1
    83    93    96    1
    84    93    94    1
    85    56    54   ar
    86    81    82    2
    87     2     1    1
    88    53    52    1
    89    53    54   ar
    90    70    60   am
    91   121   118    1
    92    96    97    1
    93   135   133    1
    94    51    50    2
    95    52    49    1
    96    72    73    2
    97   101   102    2
    98   101   107   am
    99    94    95    2
   100   133   132    1
   101    60    59    1
   102    60    61    2
   103    50    49    1
   104    50    58   am
   105    59    58    1
   106    59    62    1
   107   118   119    1
   108   118   117    1
   109   107   108    1
   110    49    48    1
   111   119   128   am
   112   119   120    2
   113   128   129    1
   114   132   129    1
   115   132   134    1
   116   129   130    1
   117    65    67   ar
   118    65    63   ar
   119   114   116   ar
   120   114   112   ar
   121    62    63    1
   122   116   115   ar
   123    67    68   ar
   124    63    64   ar
   125   108   109    1
   126   108   111    1
   127    68    69    1
   128    68    66   ar
   129   112   111    1
   130   112   113   ar
   131    64    66   ar
   132   115   113   ar
   133   109   110    2
   134   130   131    2
