@<TRIPOS>MOLECULE
tmp/5zkqA00.pdb
 268 268 0 0 0
SMALL
GASTEIGER

@<TRIPOS>ATOM
      1  N         46.7490   -8.2360  240.8200 N.3    15  PHE15      -0.1241
      2  CA        45.6850   -7.4730  240.1660 C.3    15  PHE15       0.1605
      3  C         44.4710   -7.1650  241.0590 C.2    15  PHE15       0.2264
      4  O         44.1290   -5.9870  241.1000 O.2    15  PHE15      -0.2867
      5  CB        45.2570   -8.0860  238.8360 C.3    15  PHE15       0.0534
      6  CG        46.3420   -8.0030  237.7850 C.ar   15  PHE15      -0.0203
      7  CD1       46.7720   -6.7710  237.2990 C.ar   15  PHE15      -0.0042
      8  CD2       46.9500   -9.1560  237.2970 C.ar   15  PHE15      -0.0042
      9  CE1       47.7810   -6.6940  236.3300 C.ar   15  PHE15      -0.0003
     10  CE2       47.9530   -9.0800  236.3280 C.ar   15  PHE15      -0.0003
     11  CZ        48.3700   -7.8470  235.8580 C.ar   15  PHE15      -0.0000
     12  N         44.3490   -3.2220  241.2770 N.3    19  TYR19      -0.1241
     13  CA        43.2750   -2.6540  240.4550 C.3    19  TYR19       0.1605
     14  C         42.1790   -1.9960  241.2930 C.2    19  TYR19       0.2264
     15  O         41.6220   -1.0020  240.8450 O.2    19  TYR19      -0.2867
     16  CB        42.7130   -3.6630  239.4420 C.3    19  TYR19       0.0534
     17  CG        43.5140   -3.7710  238.1540 C.ar   19  TYR19      -0.0201
     18  CD1       44.6890   -3.0450  237.9740 C.ar   19  TYR19      -0.0009
     19  CD2       43.0880   -4.5900  237.1110 C.ar   19  TYR19      -0.0009
     20  CE1       45.4170   -3.1310  236.7910 C.ar   19  TYR19       0.0417
     21  CE2       43.8010   -4.6700  235.9140 C.ar   19  TYR19       0.0417
     22  CZ        44.9570   -3.9280  235.7550 C.ar   19  TYR19       0.1957
     23  OH        45.6640   -3.9950  234.5820 O.3    19  TYR19      -0.2866
     24  N         38.7420    3.0380  230.8810 N.3    58  PHE58      -0.1241
     25  CA        39.4900    1.9320  231.4580 C.3    58  PHE58       0.1605
     26  C         39.0870    1.6810  232.9160 C.2    58  PHE58       0.2264
     27  O         38.9260    0.5120  233.3010 O.2    58  PHE58      -0.2867
     28  CB        41.0000    2.1210  231.3130 C.3    58  PHE58       0.0534
     29  CG        41.8140    0.9720  231.8630 C.ar   58  PHE58      -0.0203
     30  CD1       41.6330   -0.3240  231.3860 C.ar   58  PHE58      -0.0042
     31  CD2       42.7390    1.1800  232.8800 C.ar   58  PHE58      -0.0042
     32  CE1       42.3510   -1.3910  231.9230 C.ar   58  PHE58      -0.0003
     33  CE2       43.4770    0.1160  233.3970 C.ar   58  PHE58      -0.0003
     34  CZ        43.2800   -1.1620  232.9120 C.ar   58  PHE58      -0.0000
     35  N         38.2680   -6.9370  235.8010 N.3    65  TRP65      -0.1241
     36  CA        39.5670   -7.6020  235.9530 C.3    65  TRP65       0.1605
     37  C         39.8250   -8.0020  237.3770 C.2    65  TRP65       0.2264
     38  O         40.4950   -9.0090  237.6100 O.2    65  TRP65      -0.2867
     39  CB        40.7190   -6.7690  235.3910 C.3    65  TRP65       0.0550
     40  CG        40.6590   -6.5890  233.9010 C.ar   65  TRP65       0.0003
     41  CD1       40.4550   -5.4200  233.2230 C.ar   65  TRP65       0.0946
     42  CD2       40.8030   -7.6130  232.9040 C.ar   65  TRP65       0.0152
     43  NE1       40.4920   -5.6440  231.8640 N.ar   65  TRP65      -0.2442
     44  CE2       40.6900   -6.9850  231.6380 C.ar   65  TRP65       0.0810
     45  CE3       41.0300   -9.0030  232.9550 C.ar   65  TRP65       0.0012
     46  CZ2       40.7810   -7.7020  230.4340 C.ar   65  TRP65       0.0191
     47  CZ3       41.1120   -9.7120  231.7650 C.ar   65  TRP65       0.0001
     48  CH2       40.9890   -9.0640  230.5240 C.ar   65  TRP65       0.0015
     49  N         37.8110  -11.1670  237.7010 N.3    68  TYR68      -0.1227
     50  CA        38.5280  -12.1340  236.8580 C.3    68  TYR68       0.1736
     51  C         39.7220  -12.7510  237.5900 C.2    68  TYR68       0.2595
     52  O         39.8110  -13.9710  237.6840 O.2    68  TYR68      -0.2718
     53  CB        38.9710  -11.4400  235.5430 C.3    68  TYR68       0.0548
     54  CG        39.8040  -12.2820  234.6060 C.ar   68  TYR68      -0.0200
     55  CD1       39.2050  -13.1720  233.7230 C.ar   68  TYR68      -0.0009
     56  CD2       41.1890  -12.1510  234.5640 C.ar   68  TYR68      -0.0009
     57  CE1       39.9640  -13.9440  232.8500 C.ar   68  TYR68       0.0417
     58  CE2       41.9620  -12.9270  233.7040 C.ar   68  TYR68       0.0417
     59  CZ        41.3420  -13.8190  232.8430 C.ar   68  TYR68       0.1957
     60  OH        42.0730  -14.5800  231.9670 O.3    68  TYR68      -0.2866
     61  N         40.6390  -11.9090  238.0840 N.am   69  TYR69      -0.1976
     62  CA        41.8150  -12.3670  238.8080 C.3    69  TYR69       0.1639
     63  C         41.4400  -12.9260  240.1860 C.2    69  TYR69       0.2290
     64  O         42.1110  -13.8300  240.6800 O.2    69  TYR69      -0.2864
     65  CB        42.8990  -11.2750  238.8590 C.3    69  TYR69       0.0560
     66  CG        43.6520  -11.1400  237.5530 C.ar   69  TYR69      -0.0198
     67  CD1       44.5550  -12.1170  237.1420 C.ar   69  TYR69      -0.0009
     68  CD2       43.4260  -10.0610  236.7000 C.ar   69  TYR69      -0.0009
     69  CE1       45.2260  -12.0180  235.9210 C.ar   69  TYR69       0.0417
     70  CE2       44.1000   -9.9470  235.4790 C.ar   69  TYR69       0.0417
     71  CZ        44.9970  -10.9310  235.0920 C.ar   69  TYR69       0.1957
     72  OH        45.6760  -10.8460  233.8980 O.3    69  TYR69      -0.2866
     73  N         39.1750   -5.5670  226.5970 N.3    86  GLY86      -0.1225
     74  CA        40.4060   -5.5160  225.8230 C.3    86  GLY86       0.1811
     75  C         40.4690   -4.2770  224.9700 C.2    86  GLY86       0.2280
     76  O         41.4860   -3.5820  224.9640 O.2    86  GLY86      -0.2866
     77  N         40.9290   -1.1120  227.0840 N.3    89  PHE89      -0.1227
     78  CA        42.2670   -1.1060  227.6470 C.3    89  PHE89       0.1736
     79  C         43.2190   -0.5590  226.5970 C.2    89  PHE89       0.2595
     80  O         44.1120    0.2100  226.9510 O.2    89  PHE89      -0.2718
     81  CB        42.6820   -2.5150  228.1210 C.3    89  PHE89       0.0547
     82  CG        44.1650   -2.7840  228.1620 C.ar   89  PHE89      -0.0202
     83  CD1       44.9780   -2.1560  229.0960 C.ar   89  PHE89      -0.0042
     84  CD2       44.7560   -3.6570  227.2520 C.ar   89  PHE89      -0.0042
     85  CE1       46.3580   -2.3830  229.1070 C.ar   89  PHE89      -0.0003
     86  CE2       46.1400   -3.8840  227.2660 C.ar   89  PHE89      -0.0003
     87  CZ        46.9300   -3.2490  228.1960 C.ar   89  PHE89      -0.0000
     88  N         43.0160   -0.9310  225.3060 N.am   90  PHE90      -0.1976
     89  CA        43.8310   -0.4540  224.1880 C.3    90  PHE90       0.1639
     90  C         43.5900    1.0490  223.9790 C.2    90  PHE90       0.2290
     91  O         44.5600    1.8080  223.8210 O.2    90  PHE90      -0.2864
     92  CB        43.5490   -1.2680  222.9130 C.3    90  PHE90       0.0560
     93  CG        44.2600   -0.8100  221.6600 C.ar   90  PHE90      -0.0200
     94  CD1       43.7230    0.1950  220.8620 C.ar   90  PHE90      -0.0042
     95  CD2       45.4390   -1.4160  221.2500 C.ar   90  PHE90      -0.0042
     96  CE1       44.3750    0.6140  219.7020 C.ar   90  PHE90      -0.0003
     97  CE2       46.0860   -1.0040  220.0790 C.ar   90  PHE90      -0.0003
     98  CZ        45.5530    0.0140  219.3170 C.ar   90  PHE90      -0.0000
     99  N         45.3400    3.0490  226.7700 N.3    93  THR93      -0.1203
    100  CA        46.7880    3.0620  226.5670 C.3    93  THR93       0.1994
    101  C         47.2100    4.0570  225.4870 C.2    93  THR93       0.2617
    102  O         48.0990    4.8750  225.7390 O.2    93  THR93      -0.2717
    103  CB        47.3290    1.6470  226.2560 C.3    93  THR93       0.1784
    104  OG1       46.7580    0.6860  227.1430 O.3    93  THR93      -0.2211
    105  CG2       48.8550    1.5630  226.3050 C.3    93  THR93       0.0376
    106  N         46.5650    4.0190  224.3030 N.am   94  TYR94      -0.1975
    107  CA        47.0300    4.8430  223.1900 C.3    94  TYR94       0.1639
    108  C         46.3520    6.2110  223.0660 C.2    94  TYR94       0.2290
    109  O         46.9540    7.0920  222.4640 O.2    94  TYR94      -0.2864
    110  CB        47.0060    4.0320  221.8970 C.3    94  TYR94       0.0560
    111  CG        47.9040    2.8230  222.0770 C.ar   94  TYR94      -0.0198
    112  CD1       49.2850    2.9720  222.2250 C.ar   94  TYR94      -0.0009
    113  CD2       47.3650    1.5570  222.2940 C.ar   94  TYR94      -0.0009
    114  CE1       50.1050    1.8870  222.5260 C.ar   94  TYR94       0.0417
    115  CE2       48.1790    0.4630  222.5840 C.ar   94  TYR94       0.0417
    116  CZ        49.5480    0.6340  222.6960 C.ar   94  TYR94       0.1957
    117  OH        50.3500   -0.4390  222.9800 O.3    94  TYR94      -0.2866
    118  N         39.2730   -5.5410  218.4580 N.3   140  PHE140     -0.1241
    119  CA        39.1550   -6.3840  219.6380 C.3   140  PHE140      0.1605
    120  C         37.7370   -6.9150  219.7890 C.2   140  PHE140      0.2264
    121  O         37.5210   -7.9270  220.4450 O.2   140  PHE140     -0.2867
    122  CB        39.5900   -5.6170  220.8840 C.3   140  PHE140      0.0534
    123  CG        41.0880   -5.4760  221.0240 C.ar  140  PHE140     -0.0203
    124  CD1       41.7570   -4.3920  220.4670 C.ar  140  PHE140     -0.0042
    125  CD2       41.8300   -6.4170  221.7340 C.ar  140  PHE140     -0.0042
    126  CE1       43.1410   -4.2560  220.6080 C.ar  140  PHE140     -0.0003
    127  CE2       43.2130   -6.2780  221.8720 C.ar  140  PHE140     -0.0003
    128  CZ        43.8590   -5.2010  221.3020 C.ar  140  PHE140     -0.0000
    129  N         37.1780  -10.3860  217.5640 N.3   143  LEU143     -0.1245
    130  CA        38.0270  -11.5200  217.9270 C.3   143  LEU143      0.1561
    131  C         37.2480  -12.5200  218.7850 C.2   143  LEU143      0.2260
    132  O         36.1240  -12.2460  219.2160 O.2   143  LEU143     -0.2867
    133  CB        39.2760  -11.0360  218.7080 C.3   143  LEU143      0.0270
    134  CG        40.2330  -10.0540  218.0260 C.3   143  LEU143      0.0019
    135  CD1       41.2690   -9.5390  218.9850 C.3   143  LEU143      0.0001
    136  CD2       40.9360  -10.6740  216.8640 C.3   143  LEU143      0.0001
    137  N         40.4150  -14.6500  229.3900 N.3   161  CYS161     -0.1221
    138  CA        40.0790  -13.4470  228.6570 C.3   161  CYS161      0.1808
    139  C         41.3450  -12.8030  228.1110 C.2   161  CYS161      0.2601
    140  O         42.1540  -12.2500  228.8700 O.2   161  CYS161     -0.2717
    141  CB        39.2810  -12.4720  229.5070 C.3   161  CYS161      0.0970
    142  SG        38.8650  -10.9410  228.6430 S.3   161  CYS161     -0.0800
    143  N         41.4940  -12.8900  226.7700 N.am  162  PHE162     -0.1962
    144  CA        42.5710  -12.3260  225.9620 C.3   162  PHE162      0.1771
    145  C         43.9280  -12.8100  226.4300 C.2   162  PHE162      0.2619
    146  O         44.8700  -12.0340  226.6260 O.2   162  PHE162     -0.2715
    147  CB        42.4640  -10.7900  225.8630 C.3   162  PHE162      0.0574
    148  CG        41.4770  -10.2770  224.8350 C.ar  162  PHE162     -0.0200
    149  CD1       41.4990  -10.7520  223.5220 C.ar  162  PHE162     -0.0042
    150  CD2       40.5800   -9.2700  225.1540 C.ar  162  PHE162     -0.0042
    151  CE1       40.6450  -10.2280  222.5510 C.ar  162  PHE162     -0.0003
    152  CE2       39.7120   -8.7600  224.1830 C.ar  162  PHE162     -0.0003
    153  CZ        39.7590   -9.2390  222.8850 C.ar  162  PHE162     -0.0000
    154  N         44.0110  -14.1360  226.5640 N.am  163  GLU163     -0.1963
    155  CA        45.2130  -14.8460  226.9670 C.3   163  GLU163      0.1733
    156  C         45.7130  -15.8060  225.8840 C.2   163  GLU163      0.2616
    157  O         46.8880  -16.1800  225.9380 O.2   163  GLU163     -0.2715
    158  CB        44.9650  -15.6100  228.2660 C.3   163  GLU163      0.0429
    159  CG        44.5340  -14.7300  229.4220 C.3   163  GLU163      0.1163
    160  CD        45.0060  -15.1700  230.7880 C.2   163  GLU163      0.3649
    161  OE1       45.5860  -16.2730  230.9080 O.co2 163  GLU163     -0.2457
    162  OE2       44.7800  -14.4050  231.7500 O.co2 163  GLU163     -0.2457
    163  N         44.8410  -16.2040  224.9070 N.am  164  HIS164     -0.1959
    164  CA        45.1960  -17.1440  223.8300 C.3   164  HIS164      0.1787
    165  C         45.9880  -16.5430  222.6670 C.2   164  HIS164      0.2620
    166  O         45.4850  -15.6440  221.9950 O.2   164  HIS164     -0.2715
    167  CB        43.9620  -17.8820  223.2780 C.3   164  HIS164      0.0785
    168  CG        44.3100  -18.8730  222.2030 C.ar  164  HIS164      0.0821
    169  ND1       44.9180  -20.0860  222.5050 N.ar  164  HIS164     -0.2267
    170  CD2       44.1900  -18.7700  220.8580 C.ar  164  HIS164      0.1154
    171  CE1       45.1320  -20.6820  221.3410 C.ar  164  HIS164      0.1986
    172  NE2       44.7100  -19.9340  220.3210 N.ar  164  HIS164     -0.2212
    173  N         47.1840  -17.1090  222.3770 N.am  165  TYR165     -0.1974
    174  CA        48.0570  -16.7110  221.2560 C.3   165  TYR165      0.1639
    175  C         48.4190  -17.9470  220.4300 C.2   165  TYR165      0.2290
    176  O         49.0000  -18.8930  220.9750 O.2   165  TYR165     -0.2864
    177  CB        49.3350  -15.9690  221.7390 C.3   165  TYR165      0.0560
    178  CG        49.0600  -14.6170  222.3620 C.ar  165  TYR165     -0.0198
    179  CD1       48.7310  -14.5020  223.7110 C.ar  165  TYR165     -0.0009
    180  CD2       49.0660  -13.4560  221.5900 C.ar  165  TYR165     -0.0009
    181  CE1       48.4100  -13.2680  224.2780 C.ar  165  TYR165      0.0417
    182  CE2       48.7540  -12.2120  222.1490 C.ar  165  TYR165      0.0417
    183  CZ        48.4310  -12.1240  223.4970 C.ar  165  TYR165      0.1957
    184  OH        48.1210  -10.9170  224.0740 O.3   165  TYR165     -0.2866
    185  N         50.5860  -11.8830  214.2110 N.3   172  VAL172     -0.1245
    186  CA        50.3990  -11.3780  215.5730 C.3   172  VAL172      0.1561
    187  C         51.6860  -10.6510  215.9300 C.2   172  VAL172      0.2260
    188  O         51.6370   -9.5090  216.3580 O.2   172  VAL172     -0.2867
    189  CB        50.0450  -12.4930  216.6050 C.3   172  VAL172      0.0252
    190  CG1       50.2230  -12.0110  218.0480 C.3   172  VAL172      0.0019
    191  CG2       48.6290  -13.0060  216.3960 C.3   172  VAL172      0.0019
    192  N         52.1110   -7.1690  214.1130 N.3   175  ILE175     -0.1231
    193  CA        51.2610   -6.1450  214.7650 C.3   175  ILE175      0.1692
    194  C         51.9790   -5.5560  215.9840 C.2   175  ILE175      0.2592
    195  O         52.0470   -4.3280  216.1180 O.2   175  ILE175     -0.2718
    196  CB        49.8430   -6.6840  215.1310 C.3   175  ILE175      0.0266
    197  CG1       48.9890   -6.9560  213.8720 C.3   175  ILE175      0.0019
    198  CG2       49.1100   -5.7410  216.0950 C.3   175  ILE175      0.0020
    199  CD1       47.8850   -8.0180  214.0810 C.3   175  ILE175      0.0001
    200  N         52.5360   -6.4330  216.8420 N.am  176  HIS176     -0.1976
    201  CA        53.2540   -6.0240  218.0430 C.3   176  HIS176      0.1656
    202  C         54.5370   -5.3080  217.7270 C.2   176  HIS176      0.2291
    203  O         54.8910   -4.3960  218.4650 O.2   176  HIS176     -0.2864
    204  CB        53.4740   -7.1860  219.0060 C.3   176  HIS176      0.0771
    205  CG        52.2050   -7.6870  219.6130 C.ar  176  HIS176      0.0820
    206  ND1       51.5950   -7.0190  220.6560 N.ar  176  HIS176     -0.2267
    207  CD2       51.4630   -8.7720  219.2950 C.ar  176  HIS176      0.1154
    208  CE1       50.5160   -7.7280  220.9540 C.ar  176  HIS176      0.1986
    209  NE2       50.3860   -8.7830  220.1500 N.ar  176  HIS176     -0.2212
    210  N         53.2400   -1.6800  216.7250 N.3   179  ILE179     -0.1245
    211  CA        52.8510   -0.9420  217.9360 C.3   179  ILE179      0.1561
    212  C         54.0530   -0.5710  218.8480 C.2   179  ILE179      0.2260
    213  O         54.1000    0.5570  219.3250 O.2   179  ILE179     -0.2867
    214  CB        51.7370   -1.7130  218.6850 C.3   179  ILE179      0.0252
    215  CG1       50.3870   -1.4490  217.9990 C.3   179  ILE179      0.0019
    216  CG2       51.6790   -1.3590  220.1770 C.3   179  ILE179      0.0019
    217  CD1       49.4200   -2.5820  218.0580 C.3   179  ILE179      0.0001
    218  N         56.1450   -1.0890  230.0340 N.3   230  HIS230     -0.1241
    219  CA        55.2590   -1.9760  229.3090 C.3   230  HIS230      0.1621
    220  C         55.6820   -2.2320  227.8660 C.2   230  HIS230      0.2264
    221  O         55.6240   -3.3780  227.4300 O.2   230  HIS230     -0.2867
    222  CB        53.8180   -1.4730  229.3850 C.3   230  HIS230      0.0745
    223  CG        52.8620   -2.3670  228.6740 C.ar  230  HIS230      0.0817
    224  ND1       52.3530   -2.0290  227.4340 N.ar  230  HIS230     -0.2268
    225  CD2       52.4090   -3.5970  229.0210 C.ar  230  HIS230      0.1154
    226  CE1       51.5660   -3.0360  227.0850 C.ar  230  HIS230      0.1986
    227  NE2       51.5690   -4.0050  228.0090 N.ar  230  HIS230     -0.2212
    228  N         56.5880   -5.7250  226.2020 N.3   234  GLN234     -0.1245
    229  CA        55.6160   -6.1390  225.1640 C.3   234  GLN234      0.1566
    230  C         56.1950   -7.1050  224.1220 C.2   234  GLN234      0.2260
    231  O         55.6440   -8.2000  223.9990 O.2   234  GLN234     -0.2867
    232  CB        54.8980   -4.9450  224.4890 C.3   234  GLN234      0.0367
    233  CG        53.5150   -5.2540  223.8770 C.3   234  GLN234      0.0905
    234  CD        52.4870   -5.9720  224.7660 C.2   234  GLN234      0.2608
    235  OE1       52.5520   -5.9820  226.0090 O.2   234  GLN234     -0.2717
    236  NE2       51.4890   -6.5940  224.1360 N.am  234  GLN234     -0.0878
    237  N         57.8270  -10.5750  225.7630 N.3   237  TRP237     -0.1241
    238  CA        56.6840  -11.3080  226.2980 C.3   237  TRP237      0.1605
    239  C         55.8070  -11.8990  225.1710 C.2   237  TRP237      0.2264
    240  O         55.4330  -13.0710  225.2450 O.2   237  TRP237     -0.2867
    241  CB        55.8930  -10.4380  227.2980 C.3   237  TRP237      0.0550
    242  CG        54.5870  -11.0400  227.6990 C.ar  237  TRP237      0.0003
    243  CD1       54.3810  -12.0190  228.6300 C.ar  237  TRP237      0.0946
    244  CD2       53.3180  -10.7950  227.0810 C.ar  237  TRP237      0.0152
    245  NE1       53.0540  -12.3890  228.6400 N.ar  237  TRP237     -0.2442
    246  CE2       52.3760  -11.6460  227.7050 C.ar  237  TRP237      0.0810
    247  CE3       52.8760   -9.9110  226.0760 C.ar  237  TRP237      0.0012
    248  CZ2       51.0180  -11.6370  227.3580 C.ar  237  TRP237      0.0191
    249  CZ3       51.5260   -9.8810  225.7560 C.ar  237  TRP237      0.0001
    250  CH2       50.6120  -10.7290  226.3990 C.ar  237  TRP237      0.0015
    251  N         55.6110   -8.7790  232.9570 N.3   257  HIS257     -0.1241
    252  CA        54.4430   -8.3510  232.2080 C.3   257  HIS257      0.1621
    253  C         53.2920   -7.9600  233.1450 C.2   257  HIS257      0.2264
    254  O         52.6260   -6.9530  232.8850 O.2   257  HIS257     -0.2867
    255  CB        54.0390   -9.4260  231.2060 C.3   257  HIS257      0.0745
    256  CG        52.7270   -9.1640  230.5630 C.ar  257  HIS257      0.0817
    257  ND1       51.6000   -9.8880  230.9130 N.ar  257  HIS257     -0.2268
    258  CD2       52.3840   -8.2160  229.6610 C.ar  257  HIS257      0.1154
    259  CE1       50.6110   -9.3720  230.2030 C.ar  257  HIS257      0.1986
    260  NE2       51.0340   -8.3610  229.4360 N.ar  257  HIS257     -0.2212
    261  N         51.8050   -4.0960  233.4270 N.3   261  LEU261     -0.1245
    262  CA        50.3640   -3.9850  233.2060 C.3   261  LEU261      0.1561
    263  C         49.7550   -3.1530  234.3400 C.2   261  LEU261      0.2260
    264  O         48.9020   -2.2930  234.0810 O.2   261  LEU261     -0.2867
    265  CB        49.7340   -5.3800  233.1550 C.3   261  LEU261      0.0270
    266  CG        48.7140   -5.6590  232.0540 C.3   261  LEU261      0.0019
    267  CD1       49.3350   -5.5430  230.6900 C.3   261  LEU261      0.0001
    268  CD2       48.1890   -7.0630  232.1800 C.3   261  LEU261      0.0001
@<TRIPOS>BOND
     1   197   199    1
     2   197   196    1
     3   192   193    1
     4   185   186    1
     5   193   196    1
     6   193   194    1
     7   196   198    1
     8   186   187    1
     9   186   189    1
    10   187   188    2
    11   194   195    2
    12   194   200   am
    13   191   189    1
    14   189   190    1
    15   210   211    1
    16   200   201    1
    17   136   134    1
    18   129   130    1
    19   202   201    1
    20   202   203    2
    21   130   133    1
    22   130   131    1
    23   211   214    1
    24   211   212    1
    25   215   217    1
    26   215   214    1
    27   134   133    1
    28   134   135    1
    29   201   204    1
    30   118   119    1
    31   214   216    1
    32   131   132    2
    33   212   213    2
    34   204   205    1
    35   207   205   ar
    36   207   209   ar
    37    98    96   ar
    38    98    97   ar
    39   205   206   ar
    40   119   120    1
    41   119   122    1
    42    96    94   ar
    43   120   121    2
    44    97    95   ar
    45   209   208   ar
    46   172   170   ar
    47   172   171   ar
    48   175   176    2
    49   175   174    1
    50   124   126   ar
    51   124   123   ar
    52   126   128   ar
    53   206   208   ar
    54   170   168   ar
    55    94    93   ar
    56   122   123    1
    57   123   125   ar
    58    95    93   ar
    59   174   177    1
    60   174   173    1
    61   128   127   ar
    62   171   169   ar
    63   180   182   ar
    64   180   178   ar
    65    93    92    1
    66   125   127   ar
    67   177   178    1
    68   110   111    1
    69   110   107    1
    70   166   165    2
    71   111   112   ar
    72   111   113   ar
    73   182   183   ar
    74   168   169   ar
    75   168   167    1
    76   112   114   ar
    77   113   115   ar
    78   178   179   ar
    79   173   165   am
    80   109   108    2
    81   114   116   ar
    82   151   153   ar
    83   151   149   ar
    84   115   116   ar
    85   165   164    1
    86   116   117    1
    87   153   152   ar
    88    92    89    1
    89   108   107    1
    90   107   106    1
    91   167   164    1
    92   183   184    1
    93   183   181   ar
    94   149   148   ar
    95   179   181   ar
    96    91    90    2
    97   164   163    1
    98   233   232    1
    99   233   234    1
   100    90    89    1
   101   231   230    2
   102   230   229    1
   103   236   234   am
   104   152   150   ar
   105    89    88    1
   106   106   101   am
   107   232   229    1
   108   234   235    2
   109   148   150   ar
   110   148   147    1
   111   163   156   am
   112    76    75    2
   113    75    74    1
   114   229   228    1
   115   239   240    2
   116   239   238    1
   117    88    79   am
   118   101   102    2
   119   101   100    1
   120   249   247   ar
   121   249   250   ar
   122   237   238    1
   123    74    73    1
   124   147   144    1
   125   156   157    2
   126   156   155    1
   127   144   145    1
   128   144   143    1
   129   247   244   ar
   130   103   105    1
   131   103   100    1
   132   103   104    1
   133   238   241    1
   134   250   248   ar
   135   145   154   am
   136   145   146    2
   137   154   155    1
   138   100    99    1
   139    79    80    2
   140    79    78    1
   141   143   139   am
   142   155   158    1
   143   244   242   ar
   144   244   246   ar
   145    77    78    1
   146   226   224   ar
   147   226   227   ar
   148    84    86   ar
   149    84    82   ar
   150    86    87   ar
   151   241   242    1
   152   248   246   ar
   153   221   220    2
   154   224   223   ar
   155    78    81    1
   156   242   243   ar
   157   246   245   ar
   158   220   219    1
   159   227   225   ar
   160   139   138    1
   161   139   140    2
   162    81    82    1
   163    82    83   ar
   164    87    85   ar
   165   158   159    1
   166   243   245   ar
   167   142   141    1
   168   138   137    1
   169   138   141    1
   170   223   225   ar
   171   223   222    1
   172    83    85   ar
   173   219   222    1
   174   219   218    1
   175   159   160    1
   176   260   258   ar
   177   260   259   ar
   178   258   256   ar
   179   259   257   ar
   180    46    48   ar
   181    46    44   ar
   182    48    47   ar
   183   256   257   ar
   184   256   255    1
   185   267   266    1
   186   160   161   ar
   187   160   162   ar
   188    24    25    1
   189   255   252    1
   190    28    25    1
   191    28    29    1
   192    30    29   ar
   193    30    32   ar
   194    25    26    1
   195    44    43   ar
   196    44    42   ar
   197    47    45   ar
   198    29    31   ar
   199    43    41   ar
   200    32    34   ar
   201    60    59    1
   202   266   268    1
   203   266   265    1
   204   252   251    1
   205   252   253    1
   206    59    57   ar
   207    59    58   ar
   208    57    55   ar
   209    31    33   ar
   210   254   253    2
   211    42    45   ar
   212    42    40   ar
   213    34    33   ar
   214    26    27    2
   215   265   262    1
   216   262   261    1
   217   262   263    1
   218    41    40   ar
   219    58    56   ar
   220    55    54   ar
   221    72    71    1
   222    40    39    1
   223   264   263    2
   224    56    54   ar
   225    23    22    1
   226    54    53    1
   227    71    70   ar
   228    71    69   ar
   229    39    36    1
   230    70    68   ar
   231    53    50    1
   232    22    21   ar
   233    22    20   ar
   234    35    36    1
   235    11    10   ar
   236    11     9   ar
   237    21    19   ar
   238    69    67   ar
   239    36    37    1
   240    10     8   ar
   241     9     7   ar
   242    68    66   ar
   243    20    18   ar
   244    50    51    1
   245    50    49    1
   246    19    17   ar
   247    67    66   ar
   248     8     6   ar
   249     7     6   ar
   250    37    38    2
   251    66    65    1
   252    51    52    2
   253    51    61   am
   254     6     5    1
   255    18    17   ar
   256    61    62    1
   257    17    16    1
   258    62    65    1
   259    62    63    1
   260     5     2    1
   261    16    13    1
   262     2     1    1
   263     2     3    1
   264    63    64    2
   265    13    12    1
   266    13    14    1
   267    15    14    2
   268     3     4    2
