@<TRIPOS>MOLECULE
tmp/5zkqB00.pdb
 279 278 0 0 0
SMALL
GASTEIGER

@<TRIPOS>ATOM
      1  N         76.3790   18.6620  209.5670 N.3     8  ARG8       -0.1245
      2  CA        76.4780   17.8340  208.3670 C.3     8  ARG8        0.1563
      3  C         77.8210   17.9590  207.6790 C.2     8  ARG8        0.2260
      4  O         78.3500   16.9420  207.2530 O.2     8  ARG8       -0.2867
      5  CB        75.3110   18.0620  207.4000 C.3     8  ARG8        0.0307
      6  CG        75.4440   19.2260  206.4430 C.3     8  ARG8        0.0489
      7  CD        74.0850   19.6870  205.9740 C.3     8  ARG8        0.2205
      8  NE        74.2190   20.7140  204.9520 N.pl3   8  ARG8       -0.0865
      9  CZ        74.0590   20.4840  203.6600 C.cat   8  ARG8        0.5346
     10  NH1       74.2420   21.4570  202.7810 N.pl3   8  ARG8        0.1354
     11  NH2       73.7000   19.2820  203.2340 N.pl3   8  ARG8        0.1354
     12  N         79.3720   13.9350  207.5770 N.3    12  PHE12      -0.1241
     13  CA        79.6560   13.2230  206.3200 C.3    12  PHE12       0.1605
     14  C         81.1430   13.0870  206.0050 C.2    12  PHE12       0.2264
     15  O         81.5370   11.9750  205.6980 O.2    12  PHE12      -0.2867
     16  CB        78.8850   13.7730  205.1130 C.3    12  PHE12       0.0534
     17  CG        77.3860   13.7420  205.2740 C.ar   12  PHE12      -0.0203
     18  CD1       76.6860   12.5480  205.1840 C.ar   12  PHE12      -0.0042
     19  CD2       76.6790   14.9020  205.5390 C.ar   12  PHE12      -0.0042
     20  CE1       75.2990   12.5190  205.3570 C.ar   12  PHE12      -0.0003
     21  CE2       75.2960   14.8780  205.6730 C.ar   12  PHE12      -0.0003
     22  CZ        74.6120   13.6850  205.5890 C.ar   12  PHE12      -0.0000
     23  N         81.6180    9.0920  206.0950 N.3    16  TYR16      -0.1241
     24  CA        81.8440    8.6150  204.7390 C.3    16  TYR16       0.1605
     25  C         83.2770    8.2380  204.4780 C.2    16  TYR16       0.2264
     26  O         83.5500    7.5220  203.5080 O.2    16  TYR16      -0.2867
     27  CB        81.3200    9.6160  203.6950 C.3    16  TYR16       0.0534
     28  CG        79.8170    9.5810  203.4800 C.ar   16  TYR16      -0.0201
     29  CD1       78.9830    8.8690  204.3420 C.ar   16  TYR16      -0.0009
     30  CD2       79.2250   10.2720  202.4240 C.ar   16  TYR16      -0.0009
     31  CE1       77.6050    8.8370  204.1530 C.ar   16  TYR16       0.0417
     32  CE2       77.8460   10.2250  202.2120 C.ar   16  TYR16       0.0417
     33  CZ        77.0430    9.4900  203.0710 C.ar   16  TYR16       0.1957
     34  OH        75.6860    9.4150  202.8920 O.3    16  TYR16      -0.2866
     35  N         78.0620    2.8970  194.5890 N.3    57  PHE57      -0.1241
     36  CA        77.9700    3.9520  195.5890 C.3    57  PHE57       0.1605
     37  C         79.3140    4.3320  196.0970 C.2    57  PHE57       0.2264
     38  O         79.6390    5.5050  196.0220 O.2    57  PHE57      -0.2867
     39  CB        77.0750    3.6010  196.7780 C.3    57  PHE57       0.0534
     40  CG        76.8650    4.7530  197.7460 C.ar   57  PHE57      -0.0203
     41  CD1       76.3470    5.9710  197.3080 C.ar   57  PHE57      -0.0042
     42  CD2       77.1790    4.6180  199.0920 C.ar   57  PHE57      -0.0042
     43  CE1       76.1680    7.0370  198.1960 C.ar   57  PHE57      -0.0003
     44  CE2       76.9740    5.6770  199.9850 C.ar   57  PHE57      -0.0003
     45  CZ        76.4740    6.8820  199.5290 C.ar   57  PHE57      -0.0000
     46  N         81.4940   13.1500  197.7180 N.3    64  TRP64      -0.1241
     47  CA        80.6650   13.6480  198.8210 C.3    64  TRP64       0.1605
     48  C         81.4930   14.1730  199.9650 C.2    64  TRP64       0.2264
     49  O         81.0670   15.1210  200.6220 O.2    64  TRP64      -0.2867
     50  CB        79.6370   12.6090  199.3060 C.3    64  TRP64       0.0550
     51  CG        78.5360   12.3930  198.3160 C.ar   64  TRP64       0.0003
     52  CD1       78.2530   11.2400  197.6480 C.ar   64  TRP64       0.0946
     53  CD2       77.6370   13.3890  197.7990 C.ar   64  TRP64       0.0152
     54  NE1       77.2010   11.4380  196.7840 N.ar   64  TRP64      -0.2442
     55  CE2       76.8250   12.7570  196.8300 C.ar   64  TRP64       0.0810
     56  CE3       77.4340   14.7590  198.0650 C.ar   64  TRP64       0.0012
     57  CZ2       75.8280   13.4440  196.1220 C.ar   64  TRP64       0.0191
     58  CZ3       76.4510   15.4410  197.3620 C.ar   64  TRP64       0.0001
     59  CH2       75.6550   14.7840  196.4110 C.ar   64  TRP64       0.0015
     60  N         82.6960   17.5280  198.7570 N.3    67  TYR67      -0.1227
     61  CA        81.5340   18.4230  198.7470 C.3    67  TYR67       0.1736
     62  C         81.2500   18.9380  200.1590 C.2    67  TYR67       0.2595
     63  O         81.0290   20.1310  200.3330 O.2    67  TYR67      -0.2718
     64  CB        80.3040   17.7110  198.1460 C.3    67  TYR67       0.0548
     65  CG        78.9910   18.4670  198.2540 C.ar   67  TYR67      -0.0200
     66  CD1       78.6690   19.4790  197.3520 C.ar   67  TYR67      -0.0009
     67  CD2       78.0460   18.1310  199.2210 C.ar   67  TYR67      -0.0009
     68  CE1       77.4580   20.1670  197.4390 C.ar   67  TYR67       0.0417
     69  CE2       76.8440   18.8290  199.3320 C.ar   67  TYR67       0.0417
     70  CZ        76.5520   19.8390  198.4320 C.ar   67  TYR67       0.1957
     71  OH        75.3590   20.5010  198.5100 O.3    67  TYR67      -0.2866
     72  N         81.3090   18.0540  201.1610 N.am   68  TYR68      -0.1976
     73  CA        81.0360   18.4350  202.5350 C.3    68  TYR68       0.1639
     74  C         82.2170   19.1110  203.2190 C.2    68  TYR68       0.2290
     75  O         81.9890   19.9560  204.0880 O.2    68  TYR68      -0.2864
     76  CB        80.4900   17.2530  203.3390 C.3    68  TYR68       0.0560
     77  CG        79.0090   17.0240  203.0950 C.ar   68  TYR68      -0.0198
     78  CD1       78.0580   17.9370  203.5420 C.ar   68  TYR68      -0.0009
     79  CD2       78.5610   15.9060  202.3930 C.ar   68  TYR68      -0.0009
     80  CE1       76.7000   17.7440  203.3000 C.ar   68  TYR68       0.0417
     81  CE2       77.1990   15.6930  202.1600 C.ar   68  TYR68       0.0417
     82  CZ        76.2720   16.6170  202.6130 C.ar   68  TYR68       0.1957
     83  OH        74.9220   16.4130  202.4250 O.3    68  TYR68      -0.2866
     84  N         74.1490   11.4750  192.3600 N.3    85  GLY85      -0.1225
     85  CA        72.7910   11.3330  192.8700 C.3    85  GLY85       0.1811
     86  C         72.1120   10.0960  192.3340 C.2    85  GLY85       0.2280
     87  O         71.4580    9.3590  193.0890 O.2    85  GLY85      -0.2866
     88  N         73.4580    6.9050  193.9170 N.3    88  PHE88      -0.1227
     89  CA        72.9850    6.8040  195.2980 C.3    88  PHE88       0.1736
     90  C         71.6270    6.0480  195.2280 C.2    88  PHE88       0.2595
     91  O         71.4600    5.0080  195.8870 O.2    88  PHE88      -0.2718
     92  CB        72.8320    8.2100  195.9030 C.3    88  PHE88       0.0547
     93  CG        72.1450    8.3340  197.2390 C.ar   88  PHE88      -0.0202
     94  CD1       72.6020    7.6240  198.3460 C.ar   88  PHE88      -0.0042
     95  CD2       71.0890    9.2230  197.4160 C.ar   88  PHE88      -0.0042
     96  CE1       71.9790    7.7550  199.5920 C.ar   88  PHE88      -0.0003
     97  CE2       70.4730    9.3680  198.6670 C.ar   88  PHE88      -0.0003
     98  CZ        70.9300    8.6380  199.7480 C.ar   88  PHE88      -0.0000
     99  N         70.7100    6.5160  194.3340 N.am   89  PHE89      -0.1976
    100  CA        69.4180    5.8770  194.1050 C.3    89  PHE89       0.1639
    101  C         69.5760    4.3940  193.6900 C.2    89  PHE89       0.2290
    102  O         68.7880    3.5490  194.1390 O.2    89  PHE89      -0.2864
    103  CB        68.6210    6.6570  193.0660 C.3    89  PHE89       0.0560
    104  CG        67.2210    6.1360  192.8530 C.ar   89  PHE89      -0.0200
    105  CD1       66.9740    5.0980  191.9610 C.ar   89  PHE89      -0.0042
    106  CD2       66.1460    6.6890  193.5310 C.ar   89  PHE89      -0.0042
    107  CE1       65.6810    4.6200  191.7560 C.ar   89  PHE89      -0.0003
    108  CE2       64.8480    6.2180  193.3160 C.ar   89  PHE89      -0.0003
    109  CZ        64.6270    5.1840  192.4300 C.ar   89  PHE89      -0.0000
    110  N         70.8310    2.2600  196.8570 N.3    92  THR92      -0.1203
    111  CA        69.7260    2.0810  197.7960 C.3    92  THR92       0.1994
    112  C         68.7140    1.0550  197.3440 C.2    92  THR92       0.2617
    113  O         68.4080    0.1490  198.1230 O.2    92  THR92      -0.2717
    114  CB        68.9960    3.4120  198.0930 C.3    92  THR92       0.1784
    115  OG1       69.9310    4.4410  198.4310 O.3    92  THR92      -0.2211
    116  CG2       67.9570    3.2660  199.1870 C.3    92  THR92       0.0376
    117  N         68.1690    1.1930  196.1150 N.am   93  TYR93      -0.1975
    118  CA        67.0680    0.3150  195.7370 C.3    93  TYR93       0.1639
    119  C         67.4970   -1.0050  195.1510 C.2    93  TYR93       0.2290
    120  O         66.7500   -1.9590  195.3270 O.2    93  TYR93      -0.2864
    121  CB        66.0270    1.0450  194.9000 C.3    93  TYR93       0.0560
    122  CG        65.4230    2.1430  195.7520 C.ar   93  TYR93      -0.0198
    123  CD1       64.7620    1.8410  196.9440 C.ar   93  TYR93      -0.0009
    124  CD2       65.6980    3.4820  195.4900 C.ar   93  TYR93      -0.0009
    125  CE1       64.3180    2.8430  197.8040 C.ar   93  TYR93       0.0417
    126  CE2       65.2320    4.4960  196.3290 C.ar   93  TYR93       0.0417
    127  CZ        64.5490    4.1680  197.4880 C.ar   93  TYR93       0.1957
    128  OH        64.0920    5.1520  198.3110 O.3    93  TYR93      -0.2866
    129  N         67.5290   11.0620  187.3280 N.3   140  PHE140     -0.1241
    130  CA        68.4600   11.9200  188.0500 C.3   140  PHE140      0.1605
    131  C         69.4690   12.5500  187.1090 C.2   140  PHE140      0.2264
    132  O         70.1040   13.5370  187.4840 O.2   140  PHE140     -0.2867
    133  CB        69.1900   11.1190  189.1220 C.3   140  PHE140      0.0534
    134  CG        68.3660   10.8840  190.3590 C.ar  140  PHE140     -0.0203
    135  CD1       67.4800    9.8200  190.4310 C.ar  140  PHE140     -0.0042
    136  CD2       68.4880   11.7190  191.4630 C.ar  140  PHE140     -0.0042
    137  CE1       66.7090    9.6160  191.5720 C.ar  140  PHE140     -0.0003
    138  CE2       67.7270   11.5030  192.6090 C.ar  140  PHE140     -0.0003
    139  CZ        66.8380   10.4600  192.6530 C.ar  140  PHE140     -0.0000
    140  N         67.7080   15.8990  185.3430 N.3   143  LEU143     -0.1245
    141  CA        67.3740   16.9650  186.2930 C.3   143  LEU143      0.1561
    142  C         68.4600   18.0180  186.3680 C.2   143  LEU143      0.2260
    143  O         69.5970   17.7560  185.9820 O.2   143  LEU143     -0.2867
    144  CB        67.2380   16.3660  187.7080 C.3   143  LEU143      0.0270
    145  CG        66.1240   15.3790  187.9970 C.3   143  LEU143      0.0019
    146  CD1       66.1450   14.9750  189.4550 C.3   143  LEU143      0.0001
    147  CD2       64.7610   15.9450  187.6170 C.3   143  LEU143      0.0001
    148  N         74.2040   20.4240  195.7420 N.3   161  CYS161     -0.1221
    149  CA        73.9790   19.2600  194.8670 C.3   161  CYS161      0.1808
    150  C         72.8040   18.4260  195.4250 C.2   161  CYS161      0.2601
    151  O         72.8990   17.8750  196.5260 O.2   161  CYS161     -0.2717
    152  CB        75.2630   18.4390  194.7170 C.3   161  CYS161      0.0970
    153  SG        75.0790   16.8590  193.8360 S.3   161  CYS161     -0.0800
    154  N         71.6770   18.3980  194.6700 N.am  162  PHE162     -0.1962
    155  CA        70.4220   17.6760  194.9590 C.3   162  PHE162      0.1771
    156  C         69.8460   18.0150  196.3590 C.2   162  PHE162      0.2619
    157  O         69.3270   17.1430  197.0720 O.2   162  PHE162     -0.2715
    158  CB        70.5550   16.1410  194.7220 C.3   162  PHE162      0.0574
    159  CG        70.5950   15.6790  193.2710 C.ar  162  PHE162     -0.0200
    160  CD1       69.5170   15.9060  192.4170 C.ar  162  PHE162     -0.0042
    161  CD2       71.6860   14.9710  192.7770 C.ar  162  PHE162     -0.0042
    162  CE1       69.5440   15.4670  191.0900 C.ar  162  PHE162     -0.0003
    163  CE2       71.7080   14.5290  191.4500 C.ar  162  PHE162     -0.0003
    164  CZ        70.6380   14.7840  190.6150 C.ar  162  PHE162     -0.0000
    165  N         69.9050   19.3200  196.7070 N.am  163  GLU163     -0.1963
    166  CA        69.3990   19.8930  197.9570 C.3   163  GLU163      0.1733
    167  C         68.1980   20.7890  197.6770 C.2   163  GLU163      0.2616
    168  O         67.3150   20.9260  198.5260 O.2   163  GLU163     -0.2715
    169  CB        70.4940   20.6910  198.6730 C.3   163  GLU163      0.0429
    170  CG        71.7630   19.8950  198.9510 C.3   163  GLU163      0.1163
    171  CD        72.5990   20.3110  200.1480 C.2   163  GLU163      0.3649
    172  OE1       72.2100   21.2740  200.8480 O.co2 163  GLU163     -0.2457
    173  OE2       73.6370   19.6580  200.4000 O.co2 163  GLU163     -0.2457
    174  N         68.1670   21.3790  196.4710 N.am  164  HIS164     -0.1959
    175  CA        67.1290   22.2810  195.9770 C.3   164  HIS164      0.1787
    176  C         65.8830   21.5350  195.5470 C.2   164  HIS164      0.2620
    177  O         65.9540   20.6170  194.7320 O.2   164  HIS164     -0.2715
    178  CB        67.6820   23.1020  194.7930 C.3   164  HIS164      0.0785
    179  CG        66.7310   24.0930  194.1770 C.ar  164  HIS164      0.0821
    180  ND1       66.3080   25.2280  194.8680 N.ar  164  HIS164     -0.2267
    181  CD2       66.2170   24.1280  192.9210 C.ar  164  HIS164      0.1154
    182  CE1       65.5200   25.8840  194.0280 C.ar  164  HIS164      0.1986
    183  NE2       65.4380   25.2650  192.8410 N.ar  164  HIS164     -0.2212
    184  N         64.7430   21.9510  196.0860 N.am  165  TYR165     -0.1974
    185  CA        63.4210   21.4350  195.7530 C.3   165  TYR165      0.1639
    186  C         62.6340   22.6840  195.4720 C.2   165  TYR165      0.2290
    187  O         62.5490   23.5360  196.3590 O.2   165  TYR165     -0.2864
    188  CB        62.7760   20.6880  196.9490 C.3   165  TYR165      0.0560
    189  CG        63.2680   19.2740  197.1910 C.ar  165  TYR165     -0.0198
    190  CD1       64.4680   19.0350  197.8600 C.ar  165  TYR165     -0.0009
    191  CD2       62.4890   18.1760  196.8440 C.ar  165  TYR165     -0.0009
    192  CE1       64.9200   17.7360  198.1010 C.ar  165  TYR165      0.0417
    193  CE2       62.9170   16.8720  197.1010 C.ar  165  TYR165      0.0417
    194  CZ        64.1370   16.6570  197.7240 C.ar  165  TYR165      0.1957
    195  OH        64.5670   15.3780  197.9870 O.3   165  TYR165     -0.2866
    196  N         57.4260   15.8540  192.8480 N.3   172  VAL172     -0.1245
    197  CA        58.3100   15.4900  193.9490 C.3   172  VAL172      0.1561
    198  C         57.5140   14.7730  195.0420 C.2   172  VAL172      0.2260
    199  O         57.9140   13.6800  195.4380 O.2   172  VAL172     -0.2867
    200  CB        59.0880   16.7220  194.4850 C.3   172  VAL172      0.0252
    201  CG1       59.4740   16.5740  195.9550 C.3   172  VAL172      0.0019
    202  CG2       60.3120   17.0140  193.6360 C.3   172  VAL172      0.0019
    203  N         56.1450   11.2720  193.7480 N.3   175  ILE175     -0.1231
    204  CA        57.3120   10.3910  193.5820 C.3   175  ILE175      0.1692
    205  C         57.8160    9.8740  194.9290 C.2   175  ILE175      0.2592
    206  O         58.0150    8.6750  195.0880 O.2   175  ILE175     -0.2718
    207  CB        58.4160   11.0720  192.7310 C.3   175  ILE175      0.0266
    208  CG1       57.9640   11.1550  191.2520 C.3   175  ILE175      0.0019
    209  CG2       59.7600   10.3300  192.8470 C.3   175  ILE175      0.0020
    210  CD1       58.6090   12.2080  190.4240 C.3   175  ILE175      0.0001
    211  N         57.9800   10.7720  195.8920 N.am  176  HIS176     -0.1976
    212  CA        58.4130   10.4520  197.2450 C.3   176  HIS176      0.1656
    213  C         57.3530    9.6770  198.0110 C.2   176  HIS176      0.2291
    214  O         57.7150    8.9330  198.9230 O.2   176  HIS176     -0.2864
    215  CB        58.7860   11.7220  198.0160 C.3   176  HIS176      0.0771
    216  CG        60.1710   12.2040  197.7360 C.ar  176  HIS176      0.0820
    217  ND1       61.2600   11.6820  198.4020 N.ar  176  HIS176     -0.2267
    218  CD2       60.5960   13.1640  196.8840 C.ar  176  HIS176      0.1154
    219  CE1       62.3090   12.3340  197.9320 C.ar  176  HIS176      0.1986
    220  NE2       61.9560   13.2240  197.0040 N.ar  176  HIS176     -0.2212
    221  N         57.4860    5.9120  196.3530 N.3   179  ILE179     -0.1245
    222  CA        58.7060    5.2330  196.7950 C.3   179  ILE179      0.1561
    223  C         58.6230    4.7280  198.2370 C.2   179  ILE179      0.2260
    224  O         58.9970    3.5870  198.4910 O.2   179  ILE179     -0.2867
    225  CB        59.9230    6.1430  196.5430 C.3   179  ILE179      0.0252
    226  CG1       60.2980    6.0790  195.0520 C.3   179  ILE179      0.0019
    227  CG2       61.1220    5.7940  197.4570 C.3   179  ILE179      0.0019
    228  CD1       61.0900    7.1790  194.5750 C.3   179  ILE179      0.0001
    229  N         65.8400    5.8820  207.3520 N.3   347  HIS347     -0.1241
    230  CA        65.8110    6.7660  206.1880 C.3   347  HIS347      0.1621
    231  C         64.4240    6.8930  205.5680 C.2   347  HIS347      0.2264
    232  O         64.0090    8.0000  205.2170 O.2   347  HIS347     -0.2867
    233  CB        66.8390    6.3220  205.1380 C.3   347  HIS347      0.0745
    234  CG        66.8360    7.1540  203.8800 C.ar  347  HIS347      0.0817
    235  ND1       66.2640    6.6840  202.6980 N.ar  347  HIS347     -0.2268
    236  CD2       67.3360    8.3950  203.6570 C.ar  347  HIS347      0.1154
    237  CE1       66.4430    7.6440  201.8030 C.ar  347  HIS347      0.1986
    238  NE2       67.0870    8.6920  202.3280 N.ar  347  HIS347     -0.2212
    239  N         62.0630   10.2160  205.5160 N.3   351  GLN351     -0.1245
    240  CA        61.9390   10.7250  204.1430 C.3   351  GLN351      0.1566
    241  C         60.6880   11.6000  203.8550 C.2   351  GLN351      0.2260
    242  O         60.8820   12.7330  203.4140 O.2   351  GLN351     -0.2867
    243  CB        62.0570    9.5950  203.0880 C.3   351  GLN351      0.0367
    244  CG        62.5800   10.0490  201.6970 C.3   351  GLN351      0.0905
    245  CD        63.9180   10.7940  201.6680 C.2   351  GLN351      0.2608
    246  OE1       64.7590   10.7120  202.5790 O.2   351  GLN351     -0.2717
    247  NE2       64.1550   11.5320  200.5910 N.am  351  GLN351     -0.0878
    248  N         60.5350   15.0200  205.8990 N.3   354  TRP354     -0.1241
    249  CA        61.6570   15.8460  205.4550 C.3   354  TRP354      0.1605
    250  C         61.4140   16.4780  204.0780 C.2   354  TRP354      0.2264
    251  O         61.8490   17.6010  203.8610 O.2   354  TRP354     -0.2867
    252  CB        62.9770   15.0540  205.4760 C.3   354  TRP354      0.0550
    253  CG        64.1540   15.8100  204.9400 C.ar  354  TRP354      0.0003
    254  CD1       64.8620   16.7810  205.5770 C.ar  354  TRP354      0.0946
    255  CD2       64.7240   15.6860  203.6380 C.ar  354  TRP354      0.0152
    256  NE1       65.8450   17.2690  204.7520 N.ar  354  TRP354     -0.2442
    257  CE2       65.7860   16.6110  203.5550 C.ar  354  TRP354      0.0810
    258  CE3       64.4490   14.8700  202.5290 C.ar  354  TRP354      0.0012
    259  CZ2       66.5550   16.7650  202.3990 C.ar  354  TRP354      0.0191
    260  CZ3       65.2400   14.9900  201.3950 C.ar  354  TRP354      0.0001
    261  CH2       66.2770   15.9300  201.3370 C.ar  354  TRP354      0.0015
    262  N         67.5030   13.6330  209.1700 N.3   374  HIS374     -0.1241
    263  CA        67.8190   13.2670  207.7890 C.3   374  HIS374      0.1621
    264  C         69.3000   13.0100  207.5330 C.2   374  HIS374      0.2264
    265  O         69.6220   12.0820  206.8080 O.2   374  HIS374     -0.2867
    266  CB        67.2740   14.3000  206.8020 C.3   374  HIS374      0.0745
    267  CG        67.5600   13.9620  205.3760 C.ar  374  HIS374      0.0817
    268  ND1       68.4240   14.7310  204.6160 N.ar  374  HIS374     -0.2268
    269  CD2       67.1380   12.9080  204.6340 C.ar  374  HIS374      0.1154
    270  CE1       68.4900   14.1360  203.4350 C.ar  374  HIS374      0.1986
    271  NE2       67.7250   13.0390  203.3930 N.ar  374  HIS374     -0.2212
    272  N         70.8040    9.2410  206.3740 N.3   378  LEU378     -0.1245
    273  CA        71.6250    9.2520  205.1560 C.3   378  LEU378      0.1561
    274  C         72.9570    8.5490  205.4120 C.2   378  LEU378      0.2260
    275  O         73.5600    8.0200  204.4750 O.2   378  LEU378     -0.2867
    276  CB        71.8970   10.7090  204.7510 C.3   378  LEU378      0.0270
    277  CG        71.7830   11.0980  203.2900 C.3   378  LEU378      0.0019
    278  CD1       70.4180   10.7330  202.7120 C.3   378  LEU378      0.0001
    279  CD2       71.9800   12.5750  203.1520 C.3   378  LEU378      0.0001
@<TRIPOS>BOND
     1   140   141    1
     2   143   142    2
     3   141   142    1
     4   141   144    1
     5   131   132    2
     6   131   130    1
     7   129   130    1
     8   147   145    1
     9   144   145    1
    10   145   146    1
    11   130   133    1
    12   133   134    1
    13   134   135   ar
    14   134   136   ar
    15   210   208    1
    16   135   137   ar
    17   164   162   ar
    18   164   163   ar
    19   162   160   ar
    20   208   207    1
    21   163   161   ar
    22   136   138   ar
    23   137   139   ar
    24   107   105   ar
    25   107   109   ar
    26   105   104   ar
    27    86    85    1
    28    86    87    2
    29    84    85    1
    30   160   159   ar
    31   109   108   ar
    32   138   139   ar
    33   207   209    1
    34   207   204    1
    35   161   159   ar
    36   183   181   ar
    37   183   182   ar
    38   196   197    1
    39   104   103    1
    40   104   106   ar
    41   181   179   ar
    42   103   100    1
    43   159   158    1
    44   108   106   ar
    45   204   203    1
    46   204   205    1
    47   202   200    1
    48   101   100    1
    49   101   102    2
    50   153   152    1
    51    88    89    1
    52   197   200    1
    53   197   198    1
    54   182   180   ar
    55   100    99    1
    56   179   178    1
    57   179   180   ar
    58    99    90   am
    59   200   201    1
    60   228   226    1
    61    35    36    1
    62   154   155    1
    63   154   150   am
    64   152   149    1
    65   158   155    1
    66   177   176    2
    67   178   175    1
    68   149   150    1
    69   149   148    1
    70   121   118    1
    71   121   122    1
    72   205   206    2
    73   205   211   am
    74   155   156    1
    75   198   199    2
    76   226   225    1
    77   119   120    2
    78   119   118    1
    79    90    89    1
    80    90    91    2
    81    89    92    1
    82   150   151    2
    83   186   185    1
    84   186   187    2
    85   124   122   ar
    86   124   126   ar
    87   176   175    1
    88   176   184   am
    89    36    37    1
    90    36    39    1
    91   118   117    1
    92   122   123   ar
    93   185   184    1
    94   185   188    1
    95   211   212    1
    96    92    93    1
    97   175   174    1
    98    38    37    2
    99   117   112   am
   100    57    59   ar
   101    57    55   ar
   102   126   127   ar
   103   221   222    1
   104   156   165   am
   105   156   157    2
   106    59    58   ar
   107   174   167   am
   108   225   222    1
   109   225   227    1
   110   165   166    1
   111    39    40    1
   112    54    55   ar
   113    54    52   ar
   114   222   223    1
   115    55    53   ar
   116   191   193   ar
   117   191   189   ar
   118   110   111    1
   119   218   220   ar
   120   218   216   ar
   121   123   125   ar
   122   188   189    1
   123   220   219   ar
   124   193   194   ar
   125   189   190   ar
   126    93    95   ar
   127    93    94   ar
   128   212   213    1
   129   212   215    1
   130    41    40   ar
   131    41    43   ar
   132   112   111    1
   133   112   113    2
   134    66    68   ar
   135    66    65   ar
   136    58    56   ar
   137    95    97   ar
   138    68    70   ar
   139   127   125   ar
   140   127   128    1
   141    52    51   ar
   142   167   166    1
   143   167   168    2
   144    46    47    1
   145   194   195    1
   146   194   192   ar
   147   216   215    1
   148   216   217   ar
   149    40    42   ar
   150   111   114    1
   151    53    56   ar
   152    53    51   ar
   153   190   192   ar
   154   219   217   ar
   155   166   169    1
   156   213   214    2
   157   114   115    1
   158   114   116    1
   159    64    65    1
   160    64    61    1
   161    43    45   ar
   162   223   224    2
   163    65    67   ar
   164    51    50    1
   165    94    96   ar
   166    70    71    1
   167    70    69   ar
   168    97    98   ar
   169   169   170    1
   170    61    60    1
   171    61    62    1
   172    47    50    1
   173    47    48    1
   174   170   171    1
   175    42    44   ar
   176    67    69   ar
   177    45    44   ar
   178    96    98   ar
   179    48    49    2
   180   171   173   ar
   181   171   172   ar
   182    62    63    2
   183    62    72   am
   184   247   245   am
   185    72    73    1
   186   261   260   ar
   187   261   259   ar
   188   260   258   ar
   189   245   244    1
   190   245   246    2
   191   244   243    1
   192   237   238   ar
   193   237   235   ar
   194    81    79   ar
   195    81    82   ar
   196    32    30   ar
   197    32    33   ar
   198   238   236   ar
   199    79    77   ar
   200   259   257   ar
   201    30    28   ar
   202    83    82    1
   203   258   255   ar
   204    73    74    1
   205    73    76    1
   206    82    80   ar
   207   235   234   ar
   208   278   277    1
   209    10     9    1
   210    34    33    1
   211    33    31   ar
   212   243   240    1
   213    77    76    1
   214    77    78   ar
   215   279   277    1
   216    74    75    2
   217    11     9    1
   218   277   276    1
   219    80    78   ar
   220   271   270   ar
   221   271   269   ar
   222   242   241    2
   223   270   268   ar
   224    28    27    1
   225    28    29   ar
   226    26    25    2
   227   257   255   ar
   228   257   256   ar
   229   255   253   ar
   230   236   234   ar
   231     9     8    2
   232    27    24    1
   233   241   240    1
   234   251   250    2
   235   234   233    1
   236   250   249    1
   237   240   239    1
   238    31    29   ar
   239   275   274    2
   240    25    24    1
   241   268   267   ar
   242   269   267   ar
   243    24    23    1
   244   276   273    1
   245   256   254   ar
   246   253   252    1
   247   253   254   ar
   248     8     7    1
   249    16    17    1
   250    16    13    1
   251   233   230    1
   252   273   274    1
   253   273   272    1
   254    18    17   ar
   255    18    20   ar
   256   232   231    2
   257    17    19   ar
   258    20    22   ar
   259   267   266    1
   260   249   252    1
   261   249   248    1
   262    19    21   ar
   263   231   230    1
   264    22    21   ar
   265    15    14    2
   266     7     6    1
   267    14    13    1
   268   230   229    1
   269    13    12    1
   270     6     5    1
   271   266   263    1
   272   265   264    2
   273     4     3    2
   274     5     2    1
   275   264   263    1
   276     3     2    1
   277   263   262    1
   278     2     1    1
