@<TRIPOS>MOLECULE
tmp/5zkqA01.pdb
 113 110 0 0 0
SMALL
GASTEIGER

@<TRIPOS>ATOM
      1  N         43.0160   -0.9310  225.3060 N.3    90  PHE90      -0.1241
      2  CA        43.8310   -0.4540  224.1880 C.3    90  PHE90       0.1605
      3  C         43.5900    1.0490  223.9790 C.2    90  PHE90       0.2264
      4  O         44.5600    1.8080  223.8210 O.2    90  PHE90      -0.2867
      5  CB        43.5490   -1.2680  222.9130 C.3    90  PHE90       0.0534
      6  CG        44.2600   -0.8100  221.6600 C.ar   90  PHE90      -0.0203
      7  CD1       43.7230    0.1950  220.8620 C.ar   90  PHE90      -0.0042
      8  CD2       45.4390   -1.4160  221.2500 C.ar   90  PHE90      -0.0042
      9  CE1       44.3750    0.6140  219.7020 C.ar   90  PHE90      -0.0003
     10  CE2       46.0860   -1.0040  220.0790 C.ar   90  PHE90      -0.0003
     11  CZ        45.5530    0.0140  219.3170 C.ar   90  PHE90      -0.0000
     12  N         41.3210    1.2190  215.5690 N.3   136  ALA136     -0.1245
     13  CA        42.1920    0.0720  215.7840 C.3   136  ALA136      0.1562
     14  C         41.6560   -0.7550  216.9430 C.2   136  ALA136      0.2260
     15  O         41.6950   -1.9740  216.8770 O.2   136  ALA136     -0.2867
     16  CB        43.6090    0.5380  216.0810 C.3   136  ALA136      0.0290
     17  N         38.9660   -3.7030  216.4180 N.3   139  TYR139     -0.1227
     18  CA        39.3570   -5.0700  216.0430 C.3   139  TYR139      0.1736
     19  C         39.2840   -6.0480  217.2190 C.2   139  TYR139      0.2595
     20  O         39.2120   -7.2500  216.9990 O.2   139  TYR139     -0.2718
     21  CB        40.7570   -5.1180  215.4220 C.3   139  TYR139      0.0548
     22  CG        40.8480   -4.4700  214.0640 C.ar  139  TYR139     -0.0200
     23  CD1       40.4130   -5.1340  212.9230 C.ar  139  TYR139     -0.0009
     24  CD2       41.4030   -3.2080  213.9120 C.ar  139  TYR139     -0.0009
     25  CE1       40.5050   -4.5430  211.6620 C.ar  139  TYR139      0.0417
     26  CE2       41.5110   -2.6120  212.6610 C.ar  139  TYR139      0.0417
     27  CZ        41.0620   -3.2820  211.5360 C.ar  139  TYR139      0.1957
     28  OH        41.1980   -2.7000  210.3020 O.3   139  TYR139     -0.2866
     29  N         39.2730   -5.5410  218.4580 N.am  140  PHE140     -0.1976
     30  CA        39.1550   -6.3840  219.6380 C.3   140  PHE140      0.1639
     31  C         37.7370   -6.9150  219.7890 C.2   140  PHE140      0.2290
     32  O         37.5210   -7.9270  220.4450 O.2   140  PHE140     -0.2864
     33  CB        39.5900   -5.6170  220.8840 C.3   140  PHE140      0.0560
     34  CG        41.0880   -5.4760  221.0240 C.ar  140  PHE140     -0.0200
     35  CD1       41.7570   -4.3920  220.4670 C.ar  140  PHE140     -0.0042
     36  CD2       41.8300   -6.4170  221.7340 C.ar  140  PHE140     -0.0042
     37  CE1       43.1410   -4.2560  220.6080 C.ar  140  PHE140     -0.0003
     38  CE2       43.2130   -6.2780  221.8720 C.ar  140  PHE140     -0.0003
     39  CZ        43.8590   -5.2010  221.3020 C.ar  140  PHE140     -0.0000
     40  N         37.1780  -10.3860  217.5640 N.3   143  LEU143     -0.1245
     41  CA        38.0270  -11.5200  217.9270 C.3   143  LEU143      0.1561
     42  C         37.2480  -12.5200  218.7850 C.2   143  LEU143      0.2260
     43  O         36.1240  -12.2460  219.2160 O.2   143  LEU143     -0.2867
     44  CB        39.2760  -11.0360  218.7080 C.3   143  LEU143      0.0270
     45  CG        40.2330  -10.0540  218.0260 C.3   143  LEU143      0.0019
     46  CD1       41.2690   -9.5390  218.9850 C.3   143  LEU143      0.0001
     47  CD2       40.9360  -10.6740  216.8640 C.3   143  LEU143      0.0001
     48  N         48.0290  -17.9520  219.1290 N.3   166  GLU166     -0.1245
     49  CA        48.2890  -19.0330  218.1620 C.3   166  GLU166      0.1567
     50  C         49.7830  -19.2490  218.0580 C.2   166  GLU166      0.2260
     51  O         50.5010  -18.2890  217.7740 O.2   166  GLU166     -0.2867
     52  CB        47.7460  -18.6780  216.7650 C.3   166  GLU166      0.0388
     53  CG        46.2870  -19.0330  216.5210 C.3   166  GLU166      0.1160
     54  CD        45.7520  -18.6020  215.1620 C.2   166  GLU166      0.3649
     55  OE1       46.4040  -18.9000  214.1320 O.co2 166  GLU166     -0.2457
     56  OE2       44.6680  -17.9730  215.1270 O.co2 166  GLU166     -0.2457
     57  N         52.6580  -17.4480  215.4790 N.3   169  SER169     -0.1217
     58  CA        51.9460  -16.5330  214.5950 C.3   169  SER169      0.1889
     59  C         52.8540  -15.3770  214.1890 C.2   169  SER169      0.2288
     60  O         53.3590  -14.6500  215.0440 O.2   169  SER169     -0.2866
     61  CB        50.6610  -16.0440  215.2490 C.3   169  SER169      0.2089
     62  OG        49.8500  -15.3890  214.2940 O.3   169  SER169     -0.2183
     63  N         51.8410  -12.8790  211.8360 N.3   171  PRO171     -0.2102
     64  CA        51.0740  -11.6220  211.7990 C.3   171  PRO171      0.1504
     65  C         50.7980  -11.0330  213.1830 C.2   171  PRO171      0.2575
     66  O         50.8250   -9.8100  213.3240 O.2   171  PRO171     -0.2718
     67  CB        49.7830  -12.0230  211.0850 C.3   171  PRO171      0.0282
     68  CG        50.1060  -13.2550  210.3670 C.3   171  PRO171      0.0208
     69  CD        51.0140  -13.9750  211.2970 C.3   171  PRO171      0.0893
     70  N         50.5860  -11.8830  214.2110 N.am  172  VAL172     -0.1980
     71  CA        50.3990  -11.3780  215.5730 C.3   172  VAL172      0.1595
     72  C         51.6860  -10.6510  215.9300 C.2   172  VAL172      0.2287
     73  O         51.6370   -9.5090  216.3580 O.2   172  VAL172     -0.2864
     74  CB        50.0450  -12.4930  216.6050 C.3   172  VAL172      0.0276
     75  CG1       50.2230  -12.0110  218.0480 C.3   172  VAL172      0.0022
     76  CG2       48.6290  -13.0060  216.3960 C.3   172  VAL172      0.0022
     77  N         52.1110   -7.1690  214.1130 N.3   175  ILE175     -0.1231
     78  CA        51.2610   -6.1450  214.7650 C.3   175  ILE175      0.1692
     79  C         51.9790   -5.5560  215.9840 C.2   175  ILE175      0.2592
     80  O         52.0470   -4.3280  216.1180 O.2   175  ILE175     -0.2718
     81  CB        49.8430   -6.6840  215.1310 C.3   175  ILE175      0.0266
     82  CG1       48.9890   -6.9560  213.8720 C.3   175  ILE175      0.0019
     83  CG2       49.1100   -5.7410  216.0950 C.3   175  ILE175      0.0020
     84  CD1       47.8850   -8.0180  214.0810 C.3   175  ILE175      0.0001
     85  N         52.5360   -6.4330  216.8420 N.am  176  HIS176     -0.1976
     86  CA        53.2540   -6.0240  218.0430 C.3   176  HIS176      0.1656
     87  C         54.5370   -5.3080  217.7270 C.2   176  HIS176      0.2291
     88  O         54.8910   -4.3960  218.4650 O.2   176  HIS176     -0.2864
     89  CB        53.4740   -7.1860  219.0060 C.3   176  HIS176      0.0771
     90  CG        52.2050   -7.6870  219.6130 C.ar  176  HIS176      0.0820
     91  ND1       51.5950   -7.0190  220.6560 N.ar  176  HIS176     -0.2267
     92  CD2       51.4630   -8.7720  219.2950 C.ar  176  HIS176      0.1154
     93  CE1       50.5160   -7.7280  220.9540 C.ar  176  HIS176      0.1986
     94  NE2       50.3860   -8.7830  220.1500 N.ar  176  HIS176     -0.2212
     95  N         54.9170   -3.4020  214.9840 N.3   178  PHE178     -0.1227
     96  CA        54.3650   -2.1260  214.5480 C.3   178  PHE178      0.1736
     97  C         54.0710   -1.2070  215.7700 C.2   178  PHE178      0.2595
     98  O         54.6320   -0.1140  215.8550 O.2   178  PHE178     -0.2718
     99  CB        53.1180   -2.3380  213.6580 C.3   178  PHE178      0.0547
    100  CG        52.2730   -1.0870  213.4850 C.ar  178  PHE178     -0.0202
    101  CD1       52.6610   -0.0760  212.6000 C.ar  178  PHE178     -0.0042
    102  CD2       51.1230   -0.8860  214.2570 C.ar  178  PHE178     -0.0042
    103  CE1       51.9080    1.1080  212.4800 C.ar  178  PHE178     -0.0003
    104  CE2       50.3770    0.3040  214.1440 C.ar  178  PHE178     -0.0003
    105  CZ        50.7710    1.2860  213.2500 C.ar  178  PHE178     -0.0000
    106  N         53.2400   -1.6800  216.7250 N.am  179  ILE179     -0.1980
    107  CA        52.8510   -0.9420  217.9360 C.3   179  ILE179      0.1595
    108  C         54.0530   -0.5710  218.8480 C.2   179  ILE179      0.2287
    109  O         54.1000    0.5570  219.3250 O.2   179  ILE179     -0.2864
    110  CB        51.7370   -1.7130  218.6850 C.3   179  ILE179      0.0276
    111  CG1       50.3870   -1.4490  217.9990 C.3   179  ILE179      0.0022
    112  CG2       51.6790   -1.3590  220.1770 C.3   179  ILE179      0.0022
    113  CD1       49.4200   -2.5820  218.0580 C.3   179  ILE179      0.0001
@<TRIPOS>BOND
     1    28    27    1
     2    68    67    1
     3    68    69    1
     4    67    64    1
     5    69    63    1
     6    27    25   ar
     7    27    26   ar
     8    25    23   ar
     9    64    63    1
    10    64    65    1
    11   103   101   ar
    12   103   105   ar
    13   101   100   ar
    14    26    24   ar
    15    23    22   ar
    16    65    66    2
    17    65    70   am
    18   105   104   ar
    19   100    99    1
    20   100   102   ar
    21    99    96    1
    22    82    84    1
    23    82    81    1
    24    24    22   ar
    25    22    21    1
    26    77    78    1
    27    55    54   ar
    28   104   102   ar
    29    59    58    1
    30    59    60    2
    31    70    71    1
    32    62    61    1
    33    96    95    1
    34    96    97    1
    35    58    61    1
    36    58    57    1
    37    78    81    1
    38    78    79    1
    39    56    54   ar
    40    81    83    1
    41    54    53    1
    42    21    18    1
    43    12    13    1
    44    71    72    1
    45    71    74    1
    46    97    98    2
    47    97   106   am
    48    13    16    1
    49    13    14    1
    50    72    73    2
    51    79    80    2
    52    79    85   am
    53    18    17    1
    54    18    19    1
    55    76    74    1
    56    53    52    1
    57    74    75    1
    58   106   107    1
    59    52    49    1
    60    85    86    1
    61    47    45    1
    62    15    14    2
    63    20    19    2
    64    19    29   am
    65    40    41    1
    66    87    86    1
    67    87    88    2
    68    51    50    2
    69    41    44    1
    70    41    42    1
    71   107   110    1
    72   107   108    1
    73   111   113    1
    74   111   110    1
    75    45    44    1
    76    45    46    1
    77    86    89    1
    78    50    49    1
    79    49    48    1
    80    29    30    1
    81   110   112    1
    82    42    43    2
    83   108   109    2
    84    89    90    1
    85    92    90   ar
    86    92    94   ar
    87    11     9   ar
    88    11    10   ar
    89    90    91   ar
    90    30    31    1
    91    30    33    1
    92     9     7   ar
    93    31    32    2
    94    10     8   ar
    95    94    93   ar
    96    35    37   ar
    97    35    34   ar
    98    37    39   ar
    99    91    93   ar
   100     7     6   ar
   101    33    34    1
   102    34    36   ar
   103     8     6   ar
   104    39    38   ar
   105     6     5    1
   106    36    38   ar
   107     5     2    1
   108     4     3    2
   109     3     2    1
   110     2     1    1
