@<TRIPOS>MOLECULE
tmp/5zkqA03.pdb
 142 136 0 0 0
SMALL
GASTEIGER

@<TRIPOS>ATOM
      1  N         43.0160   -0.9310  225.3060 N.3    90  PHE90      -0.1241
      2  CA        43.8310   -0.4540  224.1880 C.3    90  PHE90       0.1605
      3  C         43.5900    1.0490  223.9790 C.2    90  PHE90       0.2264
      4  O         44.5600    1.8080  223.8210 O.2    90  PHE90      -0.2867
      5  CB        43.5490   -1.2680  222.9130 C.3    90  PHE90       0.0534
      6  CG        44.2600   -0.8100  221.6600 C.ar   90  PHE90      -0.0203
      7  CD1       43.7230    0.1950  220.8620 C.ar   90  PHE90      -0.0042
      8  CD2       45.4390   -1.4160  221.2500 C.ar   90  PHE90      -0.0042
      9  CE1       44.3750    0.6140  219.7020 C.ar   90  PHE90      -0.0003
     10  CE2       46.0860   -1.0040  220.0790 C.ar   90  PHE90      -0.0003
     11  CZ        45.5530    0.0140  219.3170 C.ar   90  PHE90      -0.0000
     12  N         46.5650    4.0190  224.3030 N.3    94  TYR94      -0.1241
     13  CA        47.0300    4.8430  223.1900 C.3    94  TYR94       0.1605
     14  C         46.3520    6.2110  223.0660 C.2    94  TYR94       0.2264
     15  O         46.9540    7.0920  222.4640 O.2    94  TYR94      -0.2867
     16  CB        47.0060    4.0320  221.8970 C.3    94  TYR94       0.0534
     17  CG        47.9040    2.8230  222.0770 C.ar   94  TYR94      -0.0201
     18  CD1       49.2850    2.9720  222.2250 C.ar   94  TYR94      -0.0009
     19  CD2       47.3650    1.5570  222.2940 C.ar   94  TYR94      -0.0009
     20  CE1       50.1050    1.8870  222.5260 C.ar   94  TYR94       0.0417
     21  CE2       48.1790    0.4630  222.5840 C.ar   94  TYR94       0.0417
     22  CZ        49.5480    0.6340  222.6960 C.ar   94  TYR94       0.1957
     23  OH        50.3500   -0.4390  222.9800 O.3    94  TYR94      -0.2866
     24  N         48.7700    8.0210  225.5080 N.3    97  VAL97      -0.1231
     25  CA        50.0090    8.2660  224.7480 C.3    97  VAL97       0.1692
     26  C         49.8230    9.4270  223.7230 C.2    97  VAL97       0.2591
     27  O         50.6420   10.3510  223.6930 O.2    97  VAL97      -0.2718
     28  CB        50.5400    6.9580  224.1010 C.3    97  VAL97       0.0266
     29  CG1       51.6120    7.2410  223.0610 C.3    97  VAL97       0.0020
     30  CG2       51.0630    5.9860  225.1530 C.3    97  VAL97       0.0020
     31  N         48.7240    9.4130  222.9470 N.am   98  ALA98      -0.1980
     32  CA        48.4510   10.4600  221.9660 C.3    98  ALA98       0.1597
     33  C         48.1470   11.8260  222.6030 C.2    98  ALA98       0.2287
     34  O         48.8130   12.8030  222.2680 O.2    98  ALA98      -0.2864
     35  CB        47.3230   10.0380  221.0470 C.3    98  ALA98       0.0319
     36  N         41.9020   17.9590  216.2550 N.3   125  LEU125     -0.1245
     37  CA        42.9940   17.0710  216.6360 C.3   125  LEU125      0.1561
     38  C         42.5350   15.9730  217.5810 C.2   125  LEU125      0.2260
     39  O         43.0050   14.8430  217.4570 O.2   125  LEU125     -0.2867
     40  CB        44.0770   17.8940  217.3290 C.3   125  LEU125      0.0270
     41  CG        45.4690   17.6410  216.8660 C.3   125  LEU125      0.0019
     42  CD1       46.3220   18.8480  217.0830 C.3   125  LEU125      0.0001
     43  CD2       46.0670   16.4580  217.5680 C.3   125  LEU125      0.0001
     44  N         40.4850   13.4550  215.7040 N.3   128  VAL128     -0.1231
     45  CA        41.3750   12.6250  214.8730 C.3   128  VAL128      0.1692
     46  C         41.9020   11.4490  215.7360 C.2   128  VAL128      0.2591
     47  O         41.8090   10.2840  215.3230 O.2   128  VAL128     -0.2718
     48  CB        42.5440   13.4250  214.2090 C.3   128  VAL128      0.0266
     49  CG1       43.4860   12.5100  213.4360 C.3   128  VAL128      0.0020
     50  CG2       42.0320   14.5180  213.2950 C.3   128  VAL128      0.0020
     51  N         42.4190   11.7720  216.9480 N.am  129  ILE129     -0.1980
     52  CA        42.9840   10.8110  217.8960 C.3   129  ILE129      0.1595
     53  C         41.9700    9.7210  218.2420 C.2   129  ILE129      0.2287
     54  O         42.2920    8.5380  218.1160 O.2   129  ILE129     -0.2864
     55  CB        43.5940   11.5230  219.1350 C.3   129  ILE129      0.0276
     56  CG1       44.8950   12.2570  218.7360 C.3   129  ILE129      0.0022
     57  CG2       43.8610   10.5350  220.2900 C.3   129  ILE129      0.0022
     58  CD1       45.3090   13.3530  219.6620 C.3   129  ILE129      0.0001
     59  N         39.1850    8.7740  216.5360 N.3   131  VAL131     -0.1231
     60  CA        38.8940    8.0040  215.3160 C.3   131  VAL131      0.1692
     61  C         40.0160    7.0120  215.0050 C.2   131  VAL131      0.2592
     62  O         39.7300    5.8410  214.7420 O.2   131  VAL131     -0.2718
     63  CB        38.5440    8.9060  214.1120 C.3   131  VAL131      0.0266
     64  CG1       38.3230    8.0810  212.8450 C.3   131  VAL131      0.0020
     65  CG2       37.3010    9.7240  214.4120 C.3   131  VAL131      0.0020
     66  N         41.2800    7.4670  215.0600 N.am  132  ALA132     -0.1966
     67  CA        42.4430    6.6170  214.8270 C.3   132  ALA132      0.1728
     68  C         42.5340    5.4540  215.8590 C.2   132  ALA132      0.2616
     69  O         42.6010    4.2800  215.4750 O.2   132  ALA132     -0.2715
     70  CB        43.7110    7.4600  214.8430 C.3   132  ALA132      0.0334
     71  N         42.4700    5.7820  217.1570 N.am  133  ILE133     -0.1977
     72  CA        42.6170    4.7960  218.2130 C.3   133  ILE133      0.1596
     73  C         41.3970    3.8670  218.3060 C.2   133  ILE133      0.2287
     74  O         41.5910    2.6530  218.2710 O.2   133  ILE133     -0.2864
     75  CB        43.0220    5.4560  219.5490 C.3   133  ILE133      0.0276
     76  CG1       44.5400    5.7470  219.5070 C.3   133  ILE133      0.0022
     77  CG2       42.7220    4.5370  220.7270 C.3   133  ILE133      0.0022
     78  CD1       44.9070    7.0780  219.6770 C.3   133  ILE133      0.0001
     79  N         39.3430    3.2050  216.0440 N.3   135  GLY135     -0.1210
     80  CA        39.3590    2.4500  214.7960 C.3   135  GLY135      0.1956
     81  C         40.1490    1.1580  214.9060 C.2   135  GLY135      0.2611
     82  O         39.7210    0.1230  214.3910 O.2   135  GLY135     -0.2717
     83  N         41.3210    1.2190  215.5690 N.am  136  ALA136     -0.1979
     84  CA        42.1920    0.0720  215.7840 C.3   136  ALA136      0.1597
     85  C         41.6560   -0.7550  216.9430 C.2   136  ALA136      0.2287
     86  O         41.6950   -1.9740  216.8770 O.2   136  ALA136     -0.2864
     87  CB        43.6090    0.5380  216.0810 C.3   136  ALA136      0.0319
     88  N         38.9660   -3.7030  216.4180 N.3   139  TYR139     -0.1241
     89  CA        39.3570   -5.0700  216.0430 C.3   139  TYR139      0.1605
     90  C         39.2840   -6.0480  217.2190 C.2   139  TYR139      0.2264
     91  O         39.2120   -7.2500  216.9990 O.2   139  TYR139     -0.2867
     92  CB        40.7570   -5.1180  215.4220 C.3   139  TYR139      0.0534
     93  CG        40.8480   -4.4700  214.0640 C.ar  139  TYR139     -0.0201
     94  CD1       40.4130   -5.1340  212.9230 C.ar  139  TYR139     -0.0009
     95  CD2       41.4030   -3.2080  213.9120 C.ar  139  TYR139     -0.0009
     96  CE1       40.5050   -4.5430  211.6620 C.ar  139  TYR139      0.0417
     97  CE2       41.5110   -2.6120  212.6610 C.ar  139  TYR139      0.0417
     98  CZ        41.0620   -3.2820  211.5360 C.ar  139  TYR139      0.1957
     99  OH        41.1980   -2.7000  210.3020 O.3   139  TYR139     -0.2866
    100  N         54.9170   -3.4020  214.9840 N.3   178  PHE178     -0.1227
    101  CA        54.3650   -2.1260  214.5480 C.3   178  PHE178      0.1736
    102  C         54.0710   -1.2070  215.7700 C.2   178  PHE178      0.2595
    103  O         54.6320   -0.1140  215.8550 O.2   178  PHE178     -0.2718
    104  CB        53.1180   -2.3380  213.6580 C.3   178  PHE178      0.0547
    105  CG        52.2730   -1.0870  213.4850 C.ar  178  PHE178     -0.0202
    106  CD1       52.6610   -0.0760  212.6000 C.ar  178  PHE178     -0.0042
    107  CD2       51.1230   -0.8860  214.2570 C.ar  178  PHE178     -0.0042
    108  CE1       51.9080    1.1080  212.4800 C.ar  178  PHE178     -0.0003
    109  CE2       50.3770    0.3040  214.1440 C.ar  178  PHE178     -0.0003
    110  CZ        50.7710    1.2860  213.2500 C.ar  178  PHE178     -0.0000
    111  N         53.2400   -1.6800  216.7250 N.am  179  ILE179     -0.1980
    112  CA        52.8510   -0.9420  217.9360 C.3   179  ILE179      0.1595
    113  C         54.0530   -0.5710  218.8480 C.2   179  ILE179      0.2287
    114  O         54.1000    0.5570  219.3250 O.2   179  ILE179     -0.2864
    115  CB        51.7370   -1.7130  218.6850 C.3   179  ILE179      0.0276
    116  CG1       50.3870   -1.4490  217.9990 C.3   179  ILE179      0.0022
    117  CG2       51.6790   -1.3590  220.1770 C.3   179  ILE179      0.0022
    118  CD1       49.4200   -2.5820  218.0580 C.3   179  ILE179      0.0001
    119  N         56.1650    2.0690  216.7750 N.3   182  SER182     -0.1202
    120  CA        55.4130    3.3260  216.7360 C.3   182  SER182      0.2020
    121  C         55.4770    4.0100  218.1020 C.2   182  SER182      0.2618
    122  O         55.7670    5.2020  218.1530 O.2   182  SER182     -0.2717
    123  CB        53.9620    3.0980  216.3240 C.3   182  SER182      0.2103
    124  OG        53.8590    2.3780  215.1090 O.3   182  SER182     -0.2182
    125  N         55.2840    3.2510  219.2040 N.am  183  PHE183     -0.1975
    126  CA        55.3770    3.7950  220.5530 C.3   183  PHE183      0.1639
    127  C         56.7230    4.4440  220.7750 C.2   183  PHE183      0.2290
    128  O         56.7500    5.5660  221.2640 O.2   183  PHE183     -0.2864
    129  CB        55.1260    2.7460  221.6590 C.3   183  PHE183      0.0560
    130  CG        55.4190    3.2860  223.0450 C.ar  183  PHE183     -0.0200
    131  CD1       54.4560    4.0030  223.7470 C.ar  183  PHE183     -0.0042
    132  CD2       56.6890    3.1640  223.6050 C.ar  183  PHE183     -0.0042
    133  CE1       54.7490    4.5610  224.9930 C.ar  183  PHE183     -0.0003
    134  CE2       56.9710    3.6990  224.8680 C.ar  183  PHE183     -0.0003
    135  CZ        55.9990    4.3910  225.5520 C.ar  183  PHE183     -0.0000
    136  N         56.9510    7.7460  218.7320 N.3   186  VAL186     -0.1245
    137  CA        56.1140    8.7260  219.4260 C.3   186  VAL186      0.1561
    138  C         56.7910    9.1980  220.7400 C.2   186  VAL186      0.2260
    139  O         56.9450   10.4000  220.9360 O.2   186  VAL186     -0.2867
    140  CB        54.6800    8.1480  219.6140 C.3   186  VAL186      0.0252
    141  CG1       53.8770    8.8990  220.6710 C.3   186  VAL186      0.0019
    142  CG2       53.9310    8.1220  218.2830 C.3   186  VAL186      0.0019
@<TRIPOS>BOND
     1    99    98    1
     2    98    96   ar
     3    98    97   ar
     4    96    94   ar
     5   108   106   ar
     6   108   110   ar
     7   106   105   ar
     8    97    95   ar
     9    64    63    1
    10    94    93   ar
    11   110   109   ar
    12    50    48    1
    13    49    48    1
    14   105   104    1
    15   105   107   ar
    16   104   101    1
    17    95    93   ar
    18    93    92    1
    19    63    65    1
    20    63    60    1
    21   109   107   ar
    22    48    45    1
    23    82    81    2
    24   101   100    1
    25   101   102    1
    26    62    61    2
    27    80    81    1
    28    80    79    1
    29    67    70    1
    30    67    66    1
    31    67    68    1
    32    45    44    1
    33    45    46    1
    34    81    83   am
    35    61    66   am
    36    61    60    1
    37   124   123    1
    38    60    59    1
    39    47    46    2
    40    92    89    1
    41    69    68    2
    42    83    84    1
    43    46    51   am
    44   102   103    2
    45   102   111   am
    46    84    87    1
    47    84    85    1
    48    68    71   am
    49    89    88    1
    50    89    90    1
    51    36    37    1
    52   123   120    1
    53    37    40    1
    54    37    38    1
    55   111   112    1
    56   120   119    1
    57   120   121    1
    58    41    42    1
    59    41    40    1
    60    41    43    1
    61    86    85    2
    62    51    52    1
    63    91    90    2
    64    71    72    1
    65    39    38    2
    66    52    53    1
    67    52    55    1
    68   112   115    1
    69   112   113    1
    70   116   118    1
    71   116   115    1
    72   121   122    2
    73   121   125   am
    74    54    53    2
    75    72    73    1
    76    72    75    1
    77    74    73    2
    78   142   140    1
    79   115   117    1
    80   136   137    1
    81    56    55    1
    82    56    58    1
    83   113   114    2
    84    55    57    1
    85   125   126    1
    86    11     9   ar
    87    11    10   ar
    88   137   140    1
    89   137   138    1
    90    76    75    1
    91    76    78    1
    92    75    77    1
    93   140   141    1
    94     9     7   ar
    95    10     8   ar
    96   126   127    1
    97   126   129    1
    98   138   139    2
    99   127   128    2
   100     7     6   ar
   101    35    32    1
   102     8     6   ar
   103   129   130    1
   104     6     5    1
   105    16    17    1
   106    16    13    1
   107    32    33    1
   108    32    31    1
   109    17    18   ar
   110    17    19   ar
   111    18    20   ar
   112    34    33    2
   113    19    21   ar
   114    15    14    2
   115    20    22   ar
   116    21    22   ar
   117    22    23    1
   118     5     2    1
   119    31    26   am
   120   130   132   ar
   121   130   131   ar
   122    29    28    1
   123    14    13    1
   124    13    12    1
   125   132   134   ar
   126    27    26    2
   127    26    25    1
   128   131   133   ar
   129     4     3    2
   130     3     2    1
   131    28    25    1
   132    28    30    1
   133     2     1    1
   134    25    24    1
   135   134   135   ar
   136   133   135   ar
