@<TRIPOS>MOLECULE
tmp/5zkqB03.pdb
 152 141 0 0 0
SMALL
GASTEIGER

@<TRIPOS>ATOM
      1  N         84.0240  -14.6000  196.4520 N.3    34  PHE34      -0.1241
      2  CA        83.2480  -15.0080  195.2860 C.3    34  PHE34       0.1605
      3  C         84.1270  -15.7070  194.2300 C.2    34  PHE34       0.2264
      4  O         83.7270  -16.7600  193.7310 O.2    34  PHE34      -0.2867
      5  CB        82.4480  -13.8340  194.6850 C.3    34  PHE34       0.0534
      6  CG        82.0970  -13.9840  193.2180 C.ar   34  PHE34      -0.0203
      7  CD1       81.1340  -14.9020  192.8040 C.ar   34  PHE34      -0.0042
      8  CD2       82.7500  -13.2300  192.2490 C.ar   34  PHE34      -0.0042
      9  CE1       80.8170  -15.0470  191.4490 C.ar   34  PHE34      -0.0003
     10  CE2       82.4330  -13.3770  190.8930 C.ar   34  PHE34      -0.0003
     11  CZ        81.4670  -14.2840  190.5030 C.ar   34  PHE34      -0.0000
     12  N         74.4990  -15.2420  192.9610 N.3    45  ILE45      -0.1245
     13  CA        74.3170  -14.2010  191.9380 C.3    45  ILE45       0.1561
     14  C         73.8160  -12.9010  192.5820 C.2    45  ILE45       0.2260
     15  O         74.3800  -11.8250  192.3470 O.2    45  ILE45      -0.2867
     16  CB        73.3970  -14.6780  190.7750 C.3    45  ILE45       0.0252
     17  CG1       74.0770  -15.7450  189.9220 C.3    45  ILE45       0.0019
     18  CG2       72.9480  -13.5260  189.8890 C.3    45  ILE45       0.0019
     19  CD1       73.1510  -16.7930  189.5280 C.3    45  ILE45       0.0001
     20  N         76.5980  -11.1590  194.5310 N.3    48  VAL48      -0.1231
     21  CA        77.5870  -10.5260  193.6510 C.3    48  VAL48       0.1692
     22  C         77.0000   -9.2910  193.0230 C.2    48  VAL48       0.2592
     23  O         77.7040   -8.2900  192.9030 O.2    48  VAL48      -0.2718
     24  CB        78.1270  -11.5010  192.6030 C.3    48  VAL48       0.0266
     25  CG1       79.2210  -10.8530  191.7640 C.3    48  VAL48       0.0020
     26  CG2       78.6620  -12.7450  193.2870 C.3    48  VAL48       0.0020
     27  N         75.6990   -9.3500  192.6580 N.am   49  ASN49      -0.1974
     28  CA        74.9410   -8.2360  192.0880 C.3    49  ASN49       0.1688
     29  C         74.7440   -7.1190  193.1220 C.2    49  ASN49       0.2292
     30  O         74.6890   -5.9550  192.7380 O.2    49  ASN49      -0.2864
     31  CB        73.6020   -8.7220  191.5400 C.3    49  ASN49       0.1181
     32  CG        73.6870   -9.2270  190.1310 C.2    49  ASN49       0.2629
     33  OD1       73.6090   -8.4690  189.1780 O.2    49  ASN49      -0.2716
     34  ND2       73.8860  -10.5100  189.9570 N.am   49  ASN49      -0.0877
     35  N         78.0320   -5.2150  193.3890 N.3    52  MET52      -0.1245
     36  CA        78.1050   -4.3630  192.1990 C.3    52  MET52       0.1570
     37  C         77.3990   -3.0630  192.4700 C.2    52  MET52       0.2261
     38  O         77.8350   -2.0340  191.9710 O.2    52  MET52      -0.2867
     39  CB        77.4360   -5.0290  190.9850 C.3    52  MET52       0.0387
     40  CG        78.1900   -6.2110  190.4260 C.3    52  MET52       0.0595
     41  SD        79.9030   -5.7900  190.0530 S.3    52  MET52      -0.1393
     42  CE        80.7740   -6.9540  191.1410 C.3    52  MET52       0.0692
     43  N         79.2500    0.8430  192.9910 N.3    56  LEU56      -0.1245
     44  CA        78.7010    2.0420  192.3500 C.3    56  LEU56       0.1561
     45  C         78.5780    3.1720  193.3710 C.2    56  LEU56       0.2260
     46  O         78.9860    4.2870  193.0610 O.2    56  LEU56      -0.2867
     47  CB        77.3290    1.7970  191.6800 C.3    56  LEU56       0.0270
     48  CG        77.2460    0.8380  190.4910 C.3    56  LEU56       0.0019
     49  CD1       75.8220    0.4690  190.2200 C.3    56  LEU56       0.0001
     50  CD2       77.8750    1.4120  189.2290 C.3    56  LEU56       0.0001
     51  N         77.2080   17.5800  185.7500 N.3    79  PHE79      -0.1241
     52  CA        76.8500   16.1980  185.4450 C.3    79  PHE79       0.1605
     53  C         77.4520   15.2070  186.4370 C.2    79  PHE79       0.2264
     54  O         76.8260   14.1730  186.6820 O.2    79  PHE79      -0.2867
     55  CB        77.1500   15.8180  183.9830 C.3    79  PHE79       0.0534
     56  CG        76.2390   14.7340  183.4470 C.ar   79  PHE79      -0.0203
     57  CD1       74.9380   15.0280  183.0530 C.ar   79  PHE79      -0.0042
     58  CD2       76.6750   13.4150  183.3600 C.ar   79  PHE79      -0.0042
     59  CE1       74.0910   14.0200  182.5890 C.ar   79  PHE79      -0.0003
     60  CE2       75.8300   12.4110  182.8830 C.ar   79  PHE79      -0.0003
     61  CZ        74.5450   12.7200  182.5030 C.ar   79  PHE79      -0.0000
     62  N         75.2380   12.2040  188.1600 N.3    83  VAL83      -0.1245
     63  CA        75.7580   10.8390  188.2390 C.3    83  VAL83       0.1561
     64  C         75.8370   10.3760  189.6900 C.2    83  VAL83       0.2260
     65  O         75.3840    9.2740  189.9890 O.2    83  VAL83      -0.2867
     66  CB        77.1020   10.7100  187.4740 C.3    83  VAL83       0.0252
     67  CG1       77.7960    9.3870  187.7580 C.3    83  VAL83       0.0019
     68  CG2       76.8930   10.8760  185.9820 C.3    83  VAL83       0.0019
     69  N         72.3050    9.8550  191.0180 N.3    86  CYS86      -0.1221
     70  CA        71.8220    8.7100  190.2540 C.3    86  CYS86       0.1808
     71  C         72.3100    7.4010  190.8770 C.2    86  CYS86       0.2601
     72  O         71.4990    6.5050  191.1070 O.2    86  CYS86      -0.2717
     73  CB        72.2720    8.8440  188.8030 C.3    86  CYS86       0.0970
     74  SG        71.9770    7.3810  187.7810 S.3    86  CYS86      -0.0800
     75  N         73.6300    7.3000  191.1690 N.am   87  LEU87      -0.1979
     76  CA        74.2700    6.1080  191.7400 C.3    87  LEU87       0.1596
     77  C         73.9260    5.8670  193.2120 C.2    87  LEU87       0.2287
     78  O         74.0610    4.7420  193.6930 O.2    87  LEU87      -0.2864
     79  CB        75.7840    6.1200  191.5100 C.3    87  LEU87       0.0297
     80  CG        76.2330    6.1200  190.0480 C.3    87  LEU87       0.0022
     81  CD1       77.7320    6.2710  189.9470 C.3    87  LEU87       0.0001
     82  CD2       75.8100    4.8630  189.3340 C.3    87  LEU87       0.0001
     83  N         70.5920    4.0850  192.8470 N.3    90  ILE90      -0.1245
     84  CA        70.8690    2.7240  192.3820 C.3    90  ILE90       0.1561
     85  C         71.2870    1.8750  193.5700 C.2    90  ILE90       0.2260
     86  O         70.6590    0.8520  193.8180 O.2    90  ILE90      -0.2867
     87  CB        71.8710    2.6460  191.1860 C.3    90  ILE90       0.0252
     88  CG1       71.2930    3.3080  189.9230 C.3    90  ILE90       0.0019
     89  CG2       72.2560    1.2020  190.8890 C.3    90  ILE90       0.0019
     90  CD1       72.2690    3.4990  188.7280 C.3    90  ILE90       0.0001
     91  N         70.6510  -21.0580  188.1650 N.3   119  ARG119     -0.1245
     92  CA        71.6300  -19.9970  187.9100 C.3   119  ARG119      0.1563
     93  C         71.0410  -19.0570  186.8620 C.2   119  ARG119      0.2260
     94  O         71.1010  -17.8420  187.0400 O.2   119  ARG119     -0.2867
     95  CB        72.9510  -20.5960  187.3870 C.3   119  ARG119      0.0307
     96  CG        74.0910  -19.5860  187.3210 C.3   119  ARG119      0.0489
     97  CD        75.2010  -19.9560  186.3500 C.3   119  ARG119      0.2205
     98  NE        75.9890  -18.7810  185.9510 N.pl3 119  ARG119     -0.0865
     99  CZ        77.0330  -18.2990  186.6240 C.cat 119  ARG119      0.5346
    100  NH1       77.4420  -18.8880  187.7440 N.pl3 119  ARG119      0.1354
    101  NH2       77.6730  -17.2220  186.1860 N.pl3 119  ARG119      0.1354
    102  N         70.3620  -14.9220  187.1980 N.3   123  ILE123     -0.1245
    103  CA        70.8180  -13.9600  186.1840 C.3   123  ILE123      0.1561
    104  C         69.6270  -13.2180  185.5630 C.2   123  ILE123      0.2260
    105  O         69.6700  -11.9920  185.4220 O.2   123  ILE123     -0.2867
    106  CB        71.7520  -14.6280  185.1430 C.3   123  ILE123      0.0252
    107  CG1       73.1610  -14.8080  185.7540 C.3   123  ILE123      0.0019
    108  CG2       71.8270  -13.8240  183.8350 C.3   123  ILE123      0.0019
    109  CD1       73.7470  -16.1650  185.6040 C.3   123  ILE123      0.0001
    110  N         68.1980  -10.7530  188.3040 N.3   126  SER126     -0.1202
    111  CA        69.1740   -9.6900  188.5250 C.3   126  SER126      0.2020
    112  C         69.0690   -8.6220  187.4310 C.2   126  SER126      0.2618
    113  O         68.9800   -7.4290  187.7410 O.2   126  SER126     -0.2717
    114  CB        70.5810  -10.2620  188.6380 C.3   126  SER126      0.2103
    115  OG        70.6790  -11.1150  189.7660 O.3   126  SER126     -0.2182
    116  N         68.9560   -9.0580  186.1710 N.am  127  LEU127     -0.1979
    117  CA        68.7680   -8.1550  185.0500 C.3   127  LEU127      0.1596
    118  C         67.4630   -7.3490  185.1620 C.2   127  LEU127      0.2287
    119  O         67.5090   -6.1370  184.9820 O.2   127  LEU127     -0.2864
    120  CB        68.8400   -8.9220  183.7330 C.3   127  LEU127      0.0297
    121  CG        70.2330   -9.4140  183.3580 C.3   127  LEU127      0.0022
    122  CD1       70.1500  -10.5550  182.4050 C.3   127  LEU127      0.0001
    123  CD2       71.1180   -8.2760  182.8290 C.3   127  LEU127      0.0001
    124  N         67.9450   -4.7260  187.7680 N.3   130  TRP130     -0.1241
    125  CA        68.8440   -3.6850  187.2600 C.3   130  TRP130      0.1605
    126  C         68.1460   -2.7440  186.3020 C.2   130  TRP130      0.2264
    127  O         68.2050   -1.5400  186.5130 O.2   130  TRP130     -0.2867
    128  CB        70.0960   -4.2730  186.6440 C.3   130  TRP130      0.0550
    129  CG        71.1160   -4.7000  187.6520 C.ar  130  TRP130      0.0003
    130  CD1       71.4650   -5.9760  187.9620 C.ar  130  TRP130      0.0946
    131  CD2       71.9870   -3.8490  188.4130 C.ar  130  TRP130      0.0152
    132  NE1       72.4800   -5.9810  188.8870 N.ar  130  TRP130     -0.2442
    133  CE2       72.8260   -4.6910  189.1820 C.ar  130  TRP130      0.0810
    134  CE3       72.1580   -2.4530  188.5050 C.ar  130  TRP130      0.0012
    135  CZ2       73.7910   -4.1870  190.0730 C.ar  130  TRP130      0.0191
    136  CZ3       73.1330   -1.9540  189.3640 C.ar  130  TRP130      0.0001
    137  CH2       73.9270   -2.8130  190.1470 C.ar  130  TRP130      0.0015
    138  N         67.9520    1.0040  187.4710 N.3   134  VAL134     -0.1245
    139  CA        68.7690    1.8810  186.6000 C.3   134  VAL134      0.1561
    140  C         67.8660    2.7410  185.7050 C.2   134  VAL134      0.2260
    141  O         68.1740    3.9040  185.4600 O.2   134  VAL134     -0.2867
    142  CB        69.8800    1.1420  185.8110 C.3   134  VAL134      0.0252
    143  CG1       70.6050    2.0780  184.8420 C.3   134  VAL134      0.0019
    144  CG2       70.8840    0.5070  186.7690 C.3   134  VAL134      0.0019
    145  N         69.6270   11.9700  185.8980 N.3   141  LEU141     -0.1245
    146  CA        70.5580   12.4300  184.8720 C.3   141  LEU141      0.1561
    147  C         69.9320   13.4620  183.9310 C.2   141  LEU141      0.2260
    148  O         70.6480   14.0500  183.1300 O.2   141  LEU141     -0.2867
    149  CB        71.1560   11.2470  184.0840 C.3   141  LEU141      0.0270
    150  CG        71.8020   10.0860  184.8790 C.3   141  LEU141      0.0019
    151  CD1       72.1290    8.9030  183.9740 C.3   141  LEU141      0.0001
    152  CD2       73.0760   10.5240  185.5900 C.3   141  LEU141      0.0001
@<TRIPOS>BOND
     1   122   121    1
     2    61    59   ar
     3    61    60   ar
     4    59    57   ar
     5   123   121    1
     6    60    58   ar
     7    57    56   ar
     8   148   147    2
     9   121   120    1
    10    58    56   ar
    11    56    55    1
    12   120   117    1
    13   108   106    1
    14   147   146    1
    15   151   150    1
    16    55    52    1
    17   149   146    1
    18   149   150    1
    19   143   142    1
    20   146   145    1
    21   150   152    1
    22   119   118    2
    23   117   118    1
    24   117   116    1
    25   106   107    1
    26   106   103    1
    27   105   104    2
    28    52    51    1
    29    52    53    1
    30   141   140    2
    31   104   103    1
    32   109   107    1
    33   140   139    1
    34   142   139    1
    35   142   144    1
    36    98    97    1
    37    98    99    2
    38    68    66    1
    39   116   112   am
    40   103   102    1
    41   101    99    1
    42   126   127    2
    43   126   125    1
    44    97    96    1
    45    53    54    2
    46   139   138    1
    47    99   100    1
    48   128   125    1
    49   128   129    1
    50    93    94    2
    51    93    92    1
    52   125   124    1
    53    96    95    1
    54    95    92    1
    55   112   113    2
    56   112   111    1
    57    66    67    1
    58    66    63    1
    59   129   130   ar
    60   129   131   ar
    61    74    73    1
    62    92    91    1
    63   130   132   ar
    64    62    63    1
    65    63    64    1
    66   110   111    1
    67   131   134   ar
    68   131   133   ar
    69   134   136   ar
    70   111   114    1
    71   114   115    1
    72    90    88    1
    73    73    70    1
    74   132   133   ar
    75    33    32    2
    76   133   135   ar
    77    50    48    1
    78    82    80    1
    79   136   137   ar
    80    19    17    1
    81    64    65    2
    82    18    16    1
    83    17    16    1
    84    88    87    1
    85    81    80    1
    86    34    32   am
    87    80    79    1
    88    41    40    1
    89    41    42    1
    90   135   137   ar
    91    32    31    1
    92    49    48    1
    93    70    71    1
    94    70    69    1
    95    40    39    1
    96    48    47    1
    97    11    10   ar
    98    11     9   ar
    99    16    13    1
   100    71    72    2
   101    71    75   am
   102    89    87    1
   103    10     8   ar
   104    39    36    1
   105    75    76    1
   106    87    84    1
   107     9     7   ar
   108    79    76    1
   109    31    28    1
   110    47    44    1
   111    76    77    1
   112    25    24    1
   113    13    14    1
   114    13    12    1
   115    38    37    2
   116    28    27    1
   117    28    29    1
   118    36    37    1
   119    36    35    1
   120     8     6   ar
   121    15    14    2
   122    44    43    1
   123    44    45    1
   124    84    83    1
   125    84    85    1
   126    24    26    1
   127    24    21    1
   128    27    22   am
   129    30    29    2
   130     7     6   ar
   131    23    22    2
   132    22    21    1
   133    46    45    2
   134    77    78    2
   135     6     5    1
   136    85    86    2
   137    21    20    1
   138     4     3    2
   139     3     2    1
   140     5     2    1
   141     2     1    1
