@<TRIPOS>MOLECULE
tmp/5zkuF01.pdb
 166 162 0 0 0
SMALL
GASTEIGER

@<TRIPOS>ATOM
      1  N         76.3930   15.6820   42.9650 N.3    79  PHE79      -0.1241
      2  CA        76.2670   14.5930   42.0110 C.3    79  PHE79       0.1605
      3  C         77.6200   14.1910   41.4390 C.2    79  PHE79       0.2264
      4  O         78.4000   15.0530   41.0170 O.2    79  PHE79      -0.2867
      5  CB        75.3880   15.0010   40.8290 C.3    79  PHE79       0.0534
      6  CG        75.1480   13.8880   39.8500 C.ar   79  PHE79      -0.0203
      7  CD1       74.1810   12.9220   40.1050 C.ar   79  PHE79      -0.0042
      8  CD2       75.8960   13.7890   38.6890 C.ar   79  PHE79      -0.0042
      9  CE1       73.9750   11.8700   39.2100 C.ar   79  PHE79      -0.0003
     10  CE2       75.6880   12.7530   37.7910 C.ar   79  PHE79      -0.0003
     11  CZ        74.7320   11.7820   38.0540 C.ar   79  PHE79      -0.0000
     12  N         78.6610   10.6810   38.6870 N.3    81  SER81      -0.1217
     13  CA        78.1080    9.5480   37.9900 C.3    81  SER81       0.1889
     14  C         78.5670    8.2610   38.6200 C.2    81  SER81       0.2288
     15  O         79.5990    7.7040   38.2540 O.2    81  SER81      -0.2866
     16  CB        78.5140    9.5750   36.5390 C.3    81  SER81       0.2089
     17  OG        77.7830    8.5820   35.8490 O.3    81  SER81      -0.2183
     18  N         76.9470    5.6260   38.0810 N.3    83  SER83      -0.1202
     19  CA        76.7270    4.6570   37.0180 C.3    83  SER83       0.2020
     20  C         78.0080    4.4010   36.2090 C.2    83  SER83       0.2618
     21  O         78.3160    3.2450   35.8710 O.2    83  SER83      -0.2717
     22  CB        75.5950    5.1030   36.0930 C.3    83  SER83       0.2103
     23  OG        75.3790    4.1420   35.0660 O.3    83  SER83      -0.2182
     24  N         78.7470    5.4730   35.9100 N.am   84  ILE84      -0.1979
     25  CA        80.0270    5.3430   35.2090 C.3    84  ILE84       0.1595
     26  C         81.0040    4.5540   36.0790 C.2    84  ILE84       0.2287
     27  O         81.6030    3.5770   35.6300 O.2    84  ILE84      -0.2864
     28  CB        80.6040    6.7200   34.7910 C.3    84  ILE84       0.0276
     29  CG1       79.7970    7.2670   33.5990 C.3    84  ILE84       0.0022
     30  CG2       82.0740    6.6110   34.3910 C.3    84  ILE84       0.0022
     31  CD1       80.0380    8.7270   33.2620 C.3    84  ILE84       0.0001
     32  N         68.5930   -0.2880   38.3210 N.3   162  TYR162     -0.1241
     33  CA        67.7700    0.8150   38.8140 C.3   162  TYR162      0.1605
     34  C         66.7330    0.4000   39.8770 C.2   162  TYR162      0.2264
     35  O         65.6980    1.0670   40.0220 O.2   162  TYR162     -0.2867
     36  CB        67.0920    1.5640   37.6760 C.3   162  TYR162      0.0534
     37  CG        67.9950    2.3920   36.7940 C.ar  162  TYR162     -0.0201
     38  CD1       68.2160    3.7500   37.0600 C.ar  162  TYR162     -0.0009
     39  CD2       68.5720    1.8490   35.6610 C.ar  162  TYR162     -0.0009
     40  CE1       69.0110    4.5280   36.2330 C.ar  162  TYR162      0.0417
     41  CE2       69.3770    2.6110   34.8340 C.ar  162  TYR162      0.0417
     42  CZ        69.5900    3.9560   35.1140 C.ar  162  TYR162      0.1957
     43  OH        70.3720    4.7050   34.2600 O.3   162  TYR162     -0.2866
     44  N         68.8880   18.5870   40.2690 N.3   206  PHE206     -0.1241
     45  CA        69.6300   17.6430   39.4400 C.3   206  PHE206      0.1605
     46  C         69.1990   16.2500   39.8990 C.2   206  PHE206      0.2264
     47  O         69.5420   15.8190   41.0090 O.2   206  PHE206     -0.2867
     48  CB        71.1450   17.8470   39.5650 C.3   206  PHE206      0.0534
     49  CG        71.9270   17.1940   38.4630 C.ar  206  PHE206     -0.0203
     50  CD1       72.1780   15.8230   38.4850 C.ar  206  PHE206     -0.0042
     51  CD2       72.3900   17.9340   37.3970 C.ar  206  PHE206     -0.0042
     52  CE1       72.8760   15.2080   37.4620 C.ar  206  PHE206     -0.0003
     53  CE2       73.0920   17.3320   36.3660 C.ar  206  PHE206     -0.0003
     54  CZ        73.3380   15.9660   36.4000 C.ar  206  PHE206     -0.0000
     55  N         69.1210   12.4820   38.7310 N.3   208  ALA208     -0.1231
     56  CA        69.6740   11.5660   37.7110 C.3   208  ALA208      0.1694
     57  C         70.1630   10.2600   38.2610 C.2   208  ALA208      0.2591
     58  O         70.5090   10.1520   39.4280 O.2   208  ALA208     -0.2718
     59  CB        70.8070   12.2350   36.9510 C.3   208  ALA208      0.0304
     60  N         70.2190    9.2780   37.3680 N.am  209  GLU209     -0.1979
     61  CA        70.5770    7.9150   37.6880 C.3   209  GLU209      0.1602
     62  C         69.6820    7.3650   38.7960 C.2   209  GLU209      0.2287
     63  O         70.1440    6.6870   39.7370 O.2   209  GLU209     -0.2864
     64  CB        72.0660    7.8260   37.9900 C.3   209  GLU209      0.0415
     65  CG        72.8800    8.2220   36.7710 C.3   209  GLU209      0.1163
     66  CD        74.3780    8.2000   36.9810 C.2   209  GLU209      0.3649
     67  OE1       74.8620    7.5820   37.9650 O.co2 209  GLU209     -0.2457
     68  OE2       75.0710    8.7940   36.1220 O.co2 209  GLU209     -0.2457
     69  N         67.3520   12.5700   34.3920 N.3   231  GLY231     -0.1210
     70  CA        67.5790   11.3170   33.6580 C.3   231  GLY231      0.1956
     71  C         67.2230   10.1070   34.4950 C.2   231  GLY231      0.2611
     72  O         67.8120    9.8760   35.5530 O.2   231  GLY231     -0.2717
     73  N         66.2560    9.3220   34.0340 N.am  232  ALA232     -0.1979
     74  CA        65.7560    8.1870   34.8230 C.3   232  ALA232      0.1597
     75  C         66.3020    6.8420   34.2830 C.2   232  ALA232      0.2287
     76  O         67.3060    6.8230   33.5500 O.2   232  ALA232     -0.2864
     77  CB        64.2340    8.2110   34.8580 C.3   232  ALA232      0.0319
     78  N         67.2440   14.0750   29.8950 N.3   255  PHE255     -0.1228
     79  CA        68.1530   13.2300   29.1150 C.3   255  PHE255      0.1721
     80  C         67.8440   11.7640   29.4690 C.2   255  PHE255      0.2437
     81  O         67.0560   11.5160   30.3860 O.2   255  PHE255     -0.2733
     82  CB        69.6260   13.6380   29.3540 C.3   255  PHE255      0.0547
     83  CG        69.9940   13.8520   30.8050 C.ar  255  PHE255     -0.0202
     84  CD1       70.2420   12.7820   31.6350 C.ar  255  PHE255     -0.0042
     85  CD2       70.1170   15.1440   31.3310 C.ar  255  PHE255     -0.0042
     86  CE1       70.6060   12.9730   32.9590 C.ar  255  PHE255     -0.0003
     87  CE2       70.4670   15.3370   32.6630 C.ar  255  PHE255     -0.0003
     88  CZ        70.7060   14.2480   33.4780 C.ar  255  PHE255     -0.0000
     89  N         68.4270   10.7960   28.7370 N.am  256  PRO256     -0.2718
     90  CA        68.0850    9.3870   28.9850 C.3   256  PRO256      0.1535
     91  C         68.4190    8.9300   30.4250 C.2   256  PRO256      0.2598
     92  O         69.1600    9.6470   31.1310 O.2   256  PRO256     -0.2715
     93  CB        68.9260    8.6430   27.9330 C.3   256  PRO256      0.0310
     94  CG        69.0800    9.6290   26.8260 C.3   256  PRO256      0.0237
     95  CD        69.3070   10.9220   27.5530 C.3   256  PRO256      0.0939
     96  N         67.9100    7.7750   30.8800 N.am  257  ARG257     -0.1978
     97  CA        67.2550    6.7440   30.0630 C.3   257  ARG257      0.1597
     98  C         65.9350    6.2390   30.6680 C.2   257  ARG257      0.2287
     99  O         65.7430    5.0420   30.8320 O.2   257  ARG257     -0.2864
    100  CB        68.2420    5.5610   29.8030 C.3   257  ARG257      0.0334
    101  CG        68.8290    4.8720   31.0330 C.3   257  ARG257      0.0492
    102  CD        69.7530    3.6960   30.6880 C.3   257  ARG257      0.2205
    103  NE        70.9390    4.0960   29.9250 N.pl3 257  ARG257     -0.0865
    104  CZ        71.9980    4.7280   30.4350 C.cat 257  ARG257      0.5346
    105  NH1       72.0540    5.0600   31.7220 N.pl3 257  ARG257      0.1354
    106  NH2       73.0140    5.0580   29.6440 N.pl3 257  ARG257      0.1354
    107  N         66.4280    7.4070   24.4020 N.3   280  PHE280     -0.1241
    108  CA        66.9040    6.3030   23.5910 C.3   280  PHE280      0.1605
    109  C         65.7820    5.3440   23.1820 C.2   280  PHE280      0.2264
    110  O         66.0570    4.3340   22.5150 O.2   280  PHE280     -0.2867
    111  CB        68.0360    5.5410   24.3030 C.3   280  PHE280      0.0534
    112  CG        69.2720    6.3720   24.5760 C.ar  280  PHE280     -0.0203
    113  CD1       69.7500    7.2930   23.6480 C.ar  280  PHE280     -0.0042
    114  CD2       69.9720    6.2040   25.7540 C.ar  280  PHE280     -0.0042
    115  CE1       70.8920    8.0360   23.9010 C.ar  280  PHE280     -0.0003
    116  CE2       71.1090    6.9410   26.0100 C.ar  280  PHE280     -0.0003
    117  CZ        71.5770    7.8480   25.0760 C.ar  280  PHE280     -0.0000
    118  N         70.8370    4.2550   22.2180 N.3   306  GLU306     -0.1245
    119  CA        71.8080    4.2400   23.3100 C.3   306  GLU306      0.1567
    120  C         73.2300    4.0240   22.7270 C.2   306  GLU306      0.2260
    121  O         73.4180    3.1310   21.9100 O.2   306  GLU306     -0.2867
    122  CB        71.3860    3.1180   24.2750 C.3   306  GLU306      0.0388
    123  CG        72.3600    2.7010   25.3610 C.3   306  GLU306      0.1160
    124  CD        72.4800    3.7040   26.4840 C.2   306  GLU306      0.3649
    125  OE1       71.5200    3.8550   27.2770 O.co2 306  GLU306     -0.2457
    126  OE2       73.5550    4.3270   26.5960 O.co2 306  GLU306     -0.2457
    127  N         76.1150    3.7510   24.8320 N.3   308  TRP308     -0.1241
    128  CA        76.9770    3.1980   25.8830 C.3   308  TRP308      0.1605
    129  C         76.7290    1.6890   26.0880 C.2   308  TRP308      0.2264
    130  O         75.6150    1.2780   26.4330 O.2   308  TRP308     -0.2867
    131  CB        76.7470    3.9730   27.1870 C.3   308  TRP308      0.0550
    132  CG        77.7630    3.7440   28.2790 C.ar  308  TRP308      0.0003
    133  CD1       79.1050    3.5470   28.1350 C.ar  308  TRP308      0.0946
    134  CD2       77.5060    3.7350   29.6800 C.ar  308  TRP308      0.0152
    135  NE1       79.6970    3.3880   29.3620 N.ar  308  TRP308     -0.2442
    136  CE2       78.7370    3.5040   30.3310 C.ar  308  TRP308      0.0810
    137  CE3       76.3500    3.8980   30.4540 C.ar  308  TRP308      0.0012
    138  CZ2       78.8470    3.4330   31.7200 C.ar  308  TRP308      0.0191
    139  CZ3       76.4560    3.8230   31.8340 C.ar  308  TRP308      0.0001
    140  CH2       77.6980    3.5880   32.4540 C.ar  308  TRP308      0.0015
    141  N         82.0120    6.2650   28.1910 N.3   386  CYS386     -0.1221
    142  CA        80.6150    6.7250   28.3320 C.3   386  CYS386      0.1808
    143  C         80.3540    8.1340   27.7690 C.2   386  CYS386      0.2601
    144  O         79.6180    8.2720   26.7750 O.2   386  CYS386     -0.2717
    145  CB        80.1370    6.6460   29.7920 C.3   386  CYS386      0.0970
    146  SG        78.3610    7.0010   30.0070 S.3   386  CYS386     -0.0800
    147  N         80.9460    9.1620   28.3880 N.am  387  PHE387     -0.1976
    148  CA        80.6890   10.5450   27.9510 C.3   387  PHE387      0.1639
    149  C         81.2530   10.8670   26.5480 C.2   387  PHE387      0.2290
    150  O         80.7240   11.7580   25.8690 O.2   387  PHE387     -0.2864
    151  CB        81.0970   11.5960   29.0290 C.3   387  PHE387      0.0560
    152  CG        82.5910   11.8220   29.1760 C.ar  387  PHE387     -0.0200
    153  CD1       83.2570   12.7640   28.3770 C.ar  387  PHE387     -0.0042
    154  CD2       83.3230   11.1340   30.1500 C.ar  387  PHE387     -0.0042
    155  CE1       84.6250   12.9790   28.5180 C.ar  387  PHE387     -0.0003
    156  CE2       84.6890   11.3500   30.2930 C.ar  387  PHE387     -0.0003
    157  CZ        85.3410   12.2770   29.4790 C.ar  387  PHE387     -0.0000
    158  N         78.5590    9.3900   24.1690 N.3   390  GLN390     -0.1245
    159  CA        77.3770   10.2930   24.2940 C.3   390  GLN390      0.1566
    160  C         77.5100   11.5570   23.4430 C.2   390  GLN390      0.2260
    161  O         76.6320   11.8730   22.6410 O.2   390  GLN390     -0.2867
    162  CB        77.1170   10.6950   25.7680 C.3   390  GLN390      0.0367
    163  CG        76.2770    9.7060   26.5820 C.3   390  GLN390      0.0905
    164  CD        76.4770    9.8040   28.0910 C.2   390  GLN390      0.2608
    165  OE1       77.1700   10.6990   28.6090 O.2   390  GLN390     -0.2717
    166  NE2       75.8560    8.8740   28.8130 N.am  390  GLN390     -0.0878
@<TRIPOS>BOND
     1   121   120    2
     2   118   119    1
     3   110   109    2
     4   161   160    2
     5   120   119    1
     6   109   108    1
     7   119   122    1
     8   160   159    1
     9   108   111    1
    10   108   107    1
    11   113   115   ar
    12   113   112   ar
    13   115   117   ar
    14   158   159    1
    15   122   123    1
    16   159   162    1
    17   111   112    1
    18   112   114   ar
    19   127   128    1
    20   117   116   ar
    21   123   124    1
    22   114   116   ar
    23   162   163    1
    24   150   149    2
    25   128   129    1
    26   128   131    1
    27   129   130    2
    28   124   126   ar
    29   124   125   ar
    30   149   148    1
    31   163   164    1
    32   144   143    2
    33    94    95    1
    34    94    93    1
    35   131   132    1
    36    95    89    1
    37   143   142    1
    38   143   147   am
    39    93    90    1
    40   148   147    1
    41   148   151    1
    42   164   165    2
    43   164   166   am
    44   133   132   ar
    45   133   135   ar
    46   141   142    1
    47   132   134   ar
    48   142   145    1
    49   153   155   ar
    50   153   152   ar
    51   155   157   ar
    52    89    90    1
    53    89    80   am
    54    90    91    1
    55   151   152    1
    56    79    82    1
    57    79    80    1
    58    79    78    1
    59   152   154   ar
    60    82    83    1
    61   135   136   ar
    62    80    81    2
    63   157   156   ar
    64   106   104    1
    65   134   136   ar
    66   134   137   ar
    67   145   146    1
    68   100    97    1
    69   100   101    1
    70   103   104    2
    71   103   102    1
    72    97    98    1
    73    97    96    1
    74   154   156   ar
    75   136   138   ar
    76    91    96   am
    77    91    92    2
    78   104   105    1
    79   137   139   ar
    80    98    99    2
    81   102   101    1
    82    83    85   ar
    83    83    84   ar
    84    85    87   ar
    85    84    86   ar
    86   138   140   ar
    87   139   140   ar
    88    87    88   ar
    89    86    88   ar
    90    31    29    1
    91    76    75    2
    92    29    28    1
    93    70    69    1
    94    70    71    1
    95    73    71   am
    96    73    74    1
    97    43    42    1
    98    75    74    1
    99    30    28    1
   100    71    72    2
   101    28    25    1
   102    74    77    1
   103    41    42   ar
   104    41    39   ar
   105    23    22    1
   106    42    40   ar
   107    25    24    1
   108    25    26    1
   109    27    26    2
   110    39    37   ar
   111    17    16    1
   112    21    20    2
   113    24    20   am
   114    22    19    1
   115    68    66   ar
   116    20    19    1
   117    40    38   ar
   118    53    54   ar
   119    53    51   ar
   120    54    52   ar
   121    16    13    1
   122    65    66    1
   123    65    64    1
   124    37    38   ar
   125    37    36    1
   126    59    56    1
   127    66    67   ar
   128    19    18    1
   129    60    61    1
   130    60    57   am
   131    51    49   ar
   132    52    50   ar
   133    36    33    1
   134    61    64    1
   135    61    62    1
   136    56    57    1
   137    56    55    1
   138    10    11   ar
   139    10     8   ar
   140    13    14    1
   141    13    12    1
   142    11     9   ar
   143    15    14    2
   144    57    58    2
   145    32    33    1
   146    49    50   ar
   147    49    48    1
   148     8     6   ar
   149    62    63    2
   150    33    34    1
   151     9     7   ar
   152    45    48    1
   153    45    46    1
   154    45    44    1
   155     6     7   ar
   156     6     5    1
   157    34    35    2
   158    46    47    2
   159     5     2    1
   160     4     3    2
   161     3     2    1
   162     2     1    1
