@<TRIPOS>MOLECULE
tmp/5zkwF00.pdb
 129 126 0 0 0
SMALL
GASTEIGER

@<TRIPOS>ATOM
      1  N         75.4180   16.2120   43.6450 N.3    79  PHE79      -0.1241
      2  CA        75.3120   15.1350   42.6740 C.3    79  PHE79       0.1605
      3  C         76.6670   14.7550   42.1070 C.2    79  PHE79       0.2264
      4  O         77.4610   15.6190   41.7450 O.2    79  PHE79      -0.2867
      5  CB        74.4220   15.5100   41.4890 C.3    79  PHE79       0.0534
      6  CG        74.2530   14.3830   40.4940 C.ar   79  PHE79      -0.0203
      7  CD1       73.2810   13.4160   40.6910 C.ar   79  PHE79      -0.0042
      8  CD2       75.0810   14.2820   39.3790 C.ar   79  PHE79      -0.0042
      9  CE1       73.1180   12.3780   39.7810 C.ar   79  PHE79      -0.0003
     10  CE2       74.9370   13.2390   38.4700 C.ar   79  PHE79      -0.0003
     11  CZ        73.9500   12.2860   38.6760 C.ar   79  PHE79      -0.0000
     12  N         77.7000   11.1400   39.4280 N.3    81  SER81      -0.1217
     13  CA        77.1100    9.9710   38.7780 C.3    81  SER81       0.1889
     14  C         77.5530    8.6710   39.4340 C.2    81  SER81       0.2288
     15  O         78.5680    8.0810   39.0510 O.2    81  SER81      -0.2866
     16  CB        77.4240    9.9190   37.2890 C.3    81  SER81       0.2089
     17  OG        76.8330    8.7490   36.7360 O.3    81  SER81      -0.2183
     18  N         75.9750    6.0120   38.8780 N.3    83  SER83      -0.1202
     19  CA        75.8000    5.0490   37.7820 C.3    83  SER83       0.2020
     20  C         77.1320    4.8080   37.0390 C.2    83  SER83       0.2618
     21  O         77.5520    3.6550   36.8460 O.2    83  SER83      -0.2717
     22  CB        74.7340    5.5430   36.8070 C.3    83  SER83       0.2103
     23  OG        74.5890    4.6730   35.6920 O.3    83  SER83      -0.2182
     24  N         77.7800    5.8980   36.6380 N.am   84  ILE84      -0.1979
     25  CA        79.0950    5.8000   35.9920 C.3    84  ILE84       0.1595
     26  C         80.0570    5.0560   36.9060 C.2    84  ILE84       0.2287
     27  O         80.6720    4.0670   36.4810 O.2    84  ILE84      -0.2864
     28  CB        79.6380    7.1730   35.5500 C.3    84  ILE84       0.0276
     29  CG1       78.8580    7.6460   34.3240 C.3    84  ILE84       0.0022
     30  CG2       81.1360    7.1110   35.2200 C.3    84  ILE84       0.0022
     31  CD1       79.1290    9.0760   33.9220 C.3    84  ILE84       0.0001
     32  N         67.8210    0.1580   38.9670 N.3   158  TYR158     -0.1241
     33  CA        66.9530    1.2510   39.4320 C.3   158  TYR158      0.1605
     34  C         65.9360    0.8290   40.5190 C.2   158  TYR158      0.2264
     35  O         64.9430    1.5230   40.7590 O.2   158  TYR158     -0.2867
     36  CB        66.2630    1.9570   38.2560 C.3   158  TYR158      0.0534
     37  CG        67.1670    2.7890   37.3660 C.ar  158  TYR158     -0.0201
     38  CD1       67.3280    4.1550   37.5840 C.ar  158  TYR158     -0.0009
     39  CD2       67.8030    2.2320   36.2630 C.ar  158  TYR158     -0.0009
     40  CE1       68.1250    4.9340   36.7530 C.ar  158  TYR158      0.0417
     41  CE2       68.6070    3.0000   35.4270 C.ar  158  TYR158      0.0417
     42  CZ        68.7660    4.3540   35.6760 C.ar  158  TYR158      0.1957
     43  OH        69.5480    5.1270   34.8400 O.3   158  TYR158     -0.2866
     44  N         68.2640   12.8990   39.1750 N.3   204  ALA204     -0.1231
     45  CA        68.9110   12.0280   38.1940 C.3   204  ALA204      0.1694
     46  C         69.3200   10.6820   38.7690 C.2   204  ALA204      0.2591
     47  O         69.5580   10.5340   39.9700 O.2   204  ALA204     -0.2718
     48  CB        70.1220   12.7340   37.5740 C.3   204  ALA204      0.0304
     49  N         69.4050    9.6910   37.8850 N.am  205  GLU205     -0.1979
     50  CA        69.7320    8.3140   38.2660 C.3   205  GLU205      0.1602
     51  C         68.7990    7.7950   39.3610 C.2   205  GLU205      0.2287
     52  O         69.2110    7.1440   40.3280 O.2   205  GLU205     -0.2864
     53  CB        71.2160    8.2080   38.6190 C.3   205  GLU205      0.0415
     54  CG        72.0510    8.7520   37.4740 C.3   205  GLU205      0.1163
     55  CD        73.5470    8.6020   37.6540 C.2   205  GLU205      0.3649
     56  OE1       73.9870    8.0900   38.6940 O.co2 205  GLU205     -0.2457
     57  OE2       74.2690    9.0090   36.7220 O.co2 205  GLU205     -0.2457
     58  N         66.6000   12.9930   34.9570 N.3   227  GLY227     -0.1210
     59  CA        66.9190   11.7440   34.2610 C.3   227  GLY227      0.1956
     60  C         66.5130   10.5410   35.0950 C.2   227  GLY227      0.2611
     61  O         66.9880   10.3640   36.2230 O.2   227  GLY227     -0.2717
     62  N         65.6380    9.7070   34.5450 N.am  228  ALA228     -0.1979
     63  CA        65.0840    8.5720   35.2820 C.3   228  ALA228      0.1597
     64  C         65.5730    7.2240   34.7440 C.2   228  ALA228      0.2287
     65  O         66.6160    7.1550   34.0650 O.2   228  ALA228     -0.2864
     66  CB        63.5510    8.6680   35.3080 C.3   228  ALA228      0.0319
     67  N         66.5840   14.4230   30.2970 N.3   251  PHE251     -0.1228
     68  CA        67.4960   13.5580   29.5680 C.3   251  PHE251      0.1721
     69  C         67.1440   12.1030   29.9210 C.2   251  PHE251      0.2437
     70  O         66.2720   11.8750   30.7640 O.2   251  PHE251     -0.2733
     71  CB        68.9830   13.9450   29.8350 C.3   251  PHE251      0.0547
     72  CG        69.3280   14.1510   31.2770 C.ar  251  PHE251     -0.0202
     73  CD1       69.7530   13.0910   32.0590 C.ar  251  PHE251     -0.0042
     74  CD2       69.2600   15.4230   31.8530 C.ar  251  PHE251     -0.0042
     75  CE1       70.0660   13.2790   33.3960 C.ar  251  PHE251     -0.0003
     76  CE2       69.5870   15.6160   33.1880 C.ar  251  PHE251     -0.0003
     77  CZ        69.9930   14.5450   33.9560 C.ar  251  PHE251     -0.0000
     78  N         67.7560   11.1160   29.2400 N.am  252  PRO252     -0.2718
     79  CA        67.3930    9.7140   29.5020 C.3   252  PRO252      0.1535
     80  C         67.7150    9.2490   30.9360 C.2   252  PRO252      0.2598
     81  O         68.5100    9.9010   31.6170 O.2   252  PRO252     -0.2715
     82  CB        68.2140    8.9500   28.4540 C.3   252  PRO252      0.0310
     83  CG        68.3660    9.9220   27.3400 C.3   252  PRO252      0.0237
     84  CD        68.6400   11.2110   28.0600 C.3   252  PRO252      0.0939
     85  N         67.1780    8.1150   31.3980 N.am  253  ARG253     -0.1978
     86  CA        66.5650    7.0760   30.5690 C.3   253  ARG253      0.1597
     87  C         65.2390    6.5870   31.1280 C.2   253  ARG253      0.2287
     88  O         65.0080    5.3730   31.2240 O.2   253  ARG253     -0.2864
     89  CB        67.5480    5.9080   30.3830 C.3   253  ARG253      0.0334
     90  CG        68.0520    5.2470   31.6600 C.3   253  ARG253      0.0492
     91  CD        68.9490    4.0480   31.3690 C.3   253  ARG253      0.2205
     92  NE        70.1520    4.4300   30.6230 N.pl3 253  ARG253     -0.0865
     93  CZ        71.2360    5.0150   31.1470 C.cat 253  ARG253      0.5346
     94  NH1       71.3200    5.3020   32.4460 N.pl3 253  ARG253      0.1354
     95  NH2       72.2600    5.3180   30.3570 N.pl3 253  ARG253      0.1354
     96  N         65.7680    7.7210   24.8310 N.3   276  PHE276     -0.1241
     97  CA        66.3140    6.6100   24.0530 C.3   276  PHE276      0.1605
     98  C         65.2310    5.6260   23.5860 C.2   276  PHE276      0.2264
     99  O         65.5550    4.6330   22.9110 O.2   276  PHE276     -0.2867
    100  CB        67.3570    5.8360   24.8700 C.3   276  PHE276      0.0534
    101  CG        68.6260    6.6060   25.1860 C.ar  276  PHE276     -0.0203
    102  CD1       69.1750    7.5210   24.2940 C.ar  276  PHE276     -0.0042
    103  CD2       69.3000    6.3590   26.3780 C.ar  276  PHE276     -0.0042
    104  CE1       70.3600    8.1940   24.5930 C.ar  276  PHE276     -0.0003
    105  CE2       70.4840    7.0300   26.6860 C.ar  276  PHE276     -0.0003
    106  CZ        71.0080    7.9490   25.7930 C.ar  276  PHE276     -0.0000
    107  N         70.3910    4.5010   22.7930 N.3   302  GLU302     -0.1245
    108  CA        71.2980    4.3920   23.9370 C.3   302  GLU302      0.1567
    109  C         72.7220    4.1130   23.4400 C.2   302  GLU302      0.2260
    110  O         72.9260    3.1150   22.7280 O.2   302  GLU302     -0.2867
    111  CB        70.8310    3.2550   24.8510 C.3   302  GLU302      0.0388
    112  CG        71.7920    2.8650   25.9750 C.3   302  GLU302      0.1160
    113  CD        71.9050    3.9250   27.0540 C.2   302  GLU302      0.3649
    114  OE1       70.9960    4.0030   27.9080 O.co2 302  GLU302     -0.2457
    115  OE2       72.9070    4.6730   27.0660 O.co2 302  GLU302     -0.2457
    116  N         75.5610    3.8890   25.6010 N.3   304  TRP304     -0.1241
    117  CA        76.4520    3.3880   26.6480 C.3   304  TRP304      0.1605
    118  C         76.2300    1.8910   26.8750 C.2   304  TRP304      0.2264
    119  O         75.1050    1.4560   27.1110 O.2   304  TRP304     -0.2867
    120  CB        76.2360    4.2100   27.9250 C.3   304  TRP304      0.0550
    121  CG        77.2240    3.9920   29.0070 C.ar  304  TRP304      0.0003
    122  CD1       78.5640    3.7620   28.8730 C.ar  304  TRP304      0.0946
    123  CD2       76.9590    4.0110   30.4130 C.ar  304  TRP304      0.0152
    124  NE1       79.1440    3.6160   30.1060 N.ar  304  TRP304     -0.2442
    125  CE2       78.1820    3.7710   31.0710 C.ar  304  TRP304      0.0810
    126  CE3       75.8000    4.1980   31.1810 C.ar  304  TRP304      0.0012
    127  CZ2       78.2820    3.7040   32.4660 C.ar  304  TRP304      0.0191
    128  CZ3       75.8990    4.1390   32.5680 C.ar  304  TRP304      0.0001
    129  CH2       77.1300    3.8900   33.1950 C.ar  304  TRP304      0.0015
@<TRIPOS>BOND
     1   110   109    2
     2   107   108    1
     3    99    98    2
     4   109   108    1
     5    98    97    1
     6   108   111    1
     7    97    96    1
     8    97   100    1
     9   102   104   ar
    10   102   101   ar
    11   104   106   ar
    12   111   112    1
    13   100   101    1
    14   101   103   ar
    15   116   117    1
    16   106   105   ar
    17   112   113    1
    18   103   105   ar
    19   117   118    1
    20   117   120    1
    21   118   119    2
    22   113   115   ar
    23   113   114   ar
    24    83    84    1
    25    83    82    1
    26   120   121    1
    27    84    78    1
    28    82    79    1
    29   122   121   ar
    30   122   124   ar
    31   121   123   ar
    32    78    79    1
    33    78    69   am
    34    79    80    1
    35    68    71    1
    36    68    69    1
    37    68    67    1
    38    71    72    1
    39    69    70    2
    40   124   125   ar
    41    95    93    1
    42    89    86    1
    43    89    90    1
    44   123   125   ar
    45   123   126   ar
    46    86    87    1
    47    86    85    1
    48    92    93    2
    49    92    91    1
    50    80    85   am
    51    80    81    2
    52   125   127   ar
    53    87    88    2
    54    93    94    1
    55   126   128   ar
    56    72    74   ar
    57    72    73   ar
    58    91    90    1
    59    74    76   ar
    60    73    75   ar
    61   127   129   ar
    62   128   129   ar
    63    76    77   ar
    64    75    77   ar
    65    31    29    1
    66    65    64    2
    67    59    58    1
    68    59    60    1
    69    29    28    1
    70    62    60   am
    71    62    63    1
    72    64    63    1
    73    43    42    1
    74    60    61    2
    75    30    28    1
    76    63    66    1
    77    41    42   ar
    78    41    39   ar
    79    28    25    1
    80    42    40   ar
    81    23    22    1
    82    25    24    1
    83    25    26    1
    84    39    37   ar
    85    27    26    2
    86    24    20   am
    87    57    55   ar
    88    17    16    1
    89    40    38   ar
    90    22    19    1
    91    21    20    2
    92    20    19    1
    93    16    13    1
    94    37    38   ar
    95    37    36    1
    96    54    55    1
    97    54    53    1
    98    48    45    1
    99    55    56   ar
   100    19    18    1
   101    49    50    1
   102    49    46   am
   103    45    46    1
   104    45    44    1
   105    36    33    1
   106    50    53    1
   107    50    51    1
   108    10    11   ar
   109    10     8   ar
   110    11     9   ar
   111    46    47    2
   112    13    12    1
   113    13    14    1
   114    32    33    1
   115    15    14    2
   116    51    52    2
   117     8     6   ar
   118    33    34    1
   119     9     7   ar
   120     6     7   ar
   121     6     5    1
   122    34    35    2
   123     5     2    1
   124     4     3    2
   125     3     2    1
   126     2     1    1
