@<TRIPOS>MOLECULE
tmp/5zl4A00.pdb
 157 155 0 0 0
SMALL
GASTEIGER

@<TRIPOS>ATOM
      1  N         30.2100   26.9410    8.7040 N.3    78  PHE78      -0.1241
      2  CA        31.1620   28.0060    8.3900 C.3    78  PHE78       0.1605
      3  C         32.4190   27.4540    7.7120 C.2    78  PHE78       0.2264
      4  O         33.0390   26.5180    8.2120 O.2    78  PHE78      -0.2867
      5  CB        31.5670   28.7820    9.6540 C.3    78  PHE78       0.0534
      6  CG        32.5780   29.8670    9.3930 C.ar   78  PHE78      -0.0203
      7  CD1       33.9400   29.5890    9.4230 C.ar   78  PHE78      -0.0042
      8  CD2       32.1710   31.1560    9.0890 C.ar   78  PHE78      -0.0042
      9  CE1       34.8760   30.5770    9.1660 C.ar   78  PHE78      -0.0003
     10  CE2       33.0990   32.1470    8.8310 C.ar   78  PHE78      -0.0003
     11  CZ        34.4540   31.8580    8.8720 C.ar   78  PHE78      -0.0000
     12  N         35.7840   29.7260    5.6580 N.3    80  SER80      -0.1217
     13  CA        36.2460   31.1180    5.4640 C.3    80  SER80       0.1889
     14  C         36.1820   31.5760    4.0050 C.2    80  SER80       0.2288
     15  O         37.1560   31.4290    3.2590 O.2    80  SER80      -0.2866
     16  CB        37.6750   31.3020    5.9960 C.3    80  SER80       0.2089
     17  OG        38.1990   32.5680    5.6310 O.3    80  SER80      -0.2183
     18  N         36.2810   34.6030    3.0560 N.3    82  SER82      -0.1202
     19  CA        37.3180   35.6210    2.9420 C.3    82  SER82       0.2020
     20  C         38.6270   35.0360    2.4260 C.2    82  SER82       0.2618
     21  O         39.1990   35.5620    1.4760 O.2    82  SER82      -0.2717
     22  CB        37.5540   36.3120    4.2850 C.3    82  SER82       0.2103
     23  OG        38.5710   37.2900    4.1750 O.3    82  SER82      -0.2182
     24  N         39.0920   33.9500    3.0400 N.am   83  ILE83      -0.1979
     25  CA        40.3340   33.3070    2.6000 C.3    83  ILE83       0.1595
     26  C         40.2310   32.8830    1.1400 C.2    83  ILE83       0.2287
     27  O         41.0910   33.2450    0.3360 O.2    83  ILE83      -0.2864
     28  CB        40.7650   32.1390    3.5300 C.3    83  ILE83       0.0276
     29  CG1       41.4890   32.7260    4.7500 C.3    83  ILE83       0.0022
     30  CG2       41.6810   31.1460    2.8130 C.3    83  ILE83       0.0022
     31  CD1       41.6090   31.8040    5.9410 C.3    83  ILE83       0.0001
     32  N         33.3740   44.2050    3.0690 N.3   161  TYR161     -0.1241
     33  CA        32.3890   43.9110    4.1200 C.3   161  TYR161      0.1605
     34  C         31.0680   44.6670    3.8790 C.2   161  TYR161      0.2264
     35  O         30.4350   45.1570    4.8200 O.2   161  TYR161     -0.2867
     36  CB        32.9520   44.1980    5.5230 C.3   161  TYR161      0.0534
     37  CG        34.0030   43.2360    6.0450 C.ar  161  TYR161     -0.0201
     38  CD1       33.6330   42.0790    6.7270 C.ar  161  TYR161     -0.0009
     39  CD2       35.3670   43.5130    5.9210 C.ar  161  TYR161     -0.0009
     40  CE1       34.5850   41.2090    7.2460 C.ar  161  TYR161      0.0417
     41  CE2       36.3300   42.6490    6.4370 C.ar  161  TYR161      0.0417
     42  CZ        35.9360   41.4960    7.1000 C.ar  161  TYR161      0.1957
     43  OH        36.8800   40.6310    7.6210 O.3   161  TYR161     -0.2866
     44  N         31.3010   35.2300   12.0600 N.3   207  ALA207     -0.1231
     45  CA        32.5700   35.6940   11.4990 C.3   207  ALA207      0.1694
     46  C         32.4500   36.1610   10.0620 C.2   207  ALA207      0.2591
     47  O         31.5290   35.7640    9.3460 O.2   207  ALA207     -0.2718
     48  CB        33.6120   34.5970   11.5950 C.3   207  ALA207      0.0304
     49  N         33.4150   36.9900    9.6570 N.am  208  GLU208     -0.1979
     50  CA        33.4920   37.5590    8.3090 C.3   208  GLU208      0.1602
     51  C         32.1780   38.2400    7.9150 C.2   208  GLU208      0.2287
     52  O         31.6380   38.0370    6.8220 O.2   208  GLU208     -0.2864
     53  CB        33.9590   36.5040    7.3060 C.3   208  GLU208      0.0415
     54  CG        35.4030   36.0820    7.5520 C.3   208  GLU208      0.1163
     55  CD        35.8010   34.8090    6.8260 C.2   208  GLU208      0.3649
     56  OE1       35.1290   34.4550    5.8260 O.co2 208  GLU208     -0.2457
     57  OE2       36.7970   34.1700    7.2550 O.co2 208  GLU208     -0.2457
     58  N         34.0980   37.6350   14.8500 N.3   230  GLY230     -0.1210
     59  CA        35.0490   38.3780   14.0260 C.3   230  GLY230      0.1956
     60  C         34.2840   39.2520   13.0560 C.2   230  GLY230      0.2611
     61  O         33.4320   38.7590   12.3180 O.2   230  GLY230     -0.2717
     62  N         34.5810   40.5470   13.0570 N.am  231  ALA231     -0.1979
     63  CA        33.8620   41.5040   12.2230 C.3   231  ALA231      0.1597
     64  C         34.7930   42.1810   11.2000 C.2   231  ALA231      0.2287
     65  O         35.9260   41.7220   10.9910 O.2   231  ALA231     -0.2864
     66  CB        33.1640   42.5230   13.1130 C.3   231  ALA231      0.0319
     67  N         37.8720   37.8030   17.8980 N.3   254  PHE254     -0.1228
     68  CA        39.0780   37.9750   17.0770 C.3   254  PHE254      0.1721
     69  C         38.8580   39.1490   16.1000 C.2   254  PHE254      0.2437
     70  O         37.7600   39.7230   16.0570 O.2   254  PHE254     -0.2733
     71  CB        39.5020   36.6520   16.3830 C.3   254  PHE254      0.0547
     72  CG        38.3760   35.8720   15.7490 C.ar  254  PHE254     -0.0202
     73  CD1       38.0240   36.0810   14.4260 C.ar  254  PHE254     -0.0042
     74  CD2       37.7020   34.8920   16.4650 C.ar  254  PHE254     -0.0042
     75  CE1       37.0060   35.3460   13.8340 C.ar  254  PHE254     -0.0003
     76  CE2       36.6790   34.1600   15.8820 C.ar  254  PHE254     -0.0003
     77  CZ        36.3280   34.3890   14.5660 C.ar  254  PHE254     -0.0000
     78  N         39.9060   39.5550   15.3520 N.am  255  PRO255     -0.2718
     79  CA        39.7330   40.6590   14.3960 C.3   255  PRO255      0.1535
     80  C         38.7010   40.3510   13.2890 C.2   255  PRO255      0.2598
     81  O         38.2970   39.2000   13.1530 O.2   255  PRO255     -0.2715
     82  CB        41.1460   40.8390   13.8250 C.3   255  PRO255      0.0310
     83  CG        42.0440   40.3610   14.9100 C.3   255  PRO255      0.0237
     84  CD        41.3280   39.1870   15.4880 C.3   255  PRO255      0.0939
     85  N         38.2750   41.3270   12.4880 N.am  256  ARG256     -0.1978
     86  CA        38.8590   42.6650   12.4010 C.3   256  ARG256      0.1597
     87  C         37.7910   43.7420   12.4760 C.2   256  ARG256      0.2287
     88  O         37.7310   44.6340   11.6390 O.2   256  ARG256     -0.2864
     89  CB        39.6930   42.7880   11.1140 C.3   256  ARG256      0.0334
     90  CG        38.9730   42.4230    9.8150 C.3   256  ARG256      0.0492
     91  CD        39.8850   42.6340    8.6200 C.3   256  ARG256      0.2205
     92  NE        41.0640   41.7700    8.6920 N.pl3 256  ARG256     -0.0865
     93  CZ        41.1160   40.4950    8.3040 C.cat 256  ARG256      0.5346
     94  NH1       40.0460   39.8850    7.7830 N.pl3 256  ARG256      0.1354
     95  NH2       42.2600   39.8160    8.4360 N.pl3 256  ARG256      0.1354
     96  N         38.1530   36.7380   25.8000 N.3   275  ARG275     -0.1245
     97  CA        39.4010   36.9090   25.0790 C.3   275  ARG275      0.1563
     98  C         39.1250   37.8810   23.9440 C.2   275  ARG275      0.2260
     99  O         38.2770   37.6120   23.0950 O.2   275  ARG275     -0.2867
    100  CB        39.9050   35.5720   24.5370 C.3   275  ARG275      0.0307
    101  CG        41.2680   35.6500   23.8570 C.3   275  ARG275      0.0489
    102  CD        41.1620   35.7300   22.3440 C.3   275  ARG275      0.2205
    103  NE        42.4660   35.9410   21.7280 N.pl3 275  ARG275     -0.0865
    104  CZ        42.7580   35.7380   20.4410 C.cat 275  ARG275      0.5346
    105  NH1       41.8440   35.3060   19.5660 N.pl3 275  ARG275      0.1354
    106  NH2       44.0000   35.9590   20.0270 N.pl3 275  ARG275      0.1354
    107  N         40.8360   40.2350   20.8260 N.3   277  HIS277     -0.1241
    108  CA        41.9730   40.4510   19.9290 C.3   277  HIS277      0.1621
    109  C         41.5450   41.3560   18.7660 C.2   277  HIS277      0.2264
    110  O         40.6070   41.0300   18.0300 O.2   277  HIS277     -0.2867
    111  CB        42.5040   39.0930   19.4360 C.3   277  HIS277      0.0745
    112  CG        43.6170   39.1810   18.4320 C.ar  277  HIS277      0.0817
    113  ND1       43.8860   38.1650   17.5370 N.ar  277  HIS277     -0.2268
    114  CD2       44.5200   40.1560   18.1730 C.ar  277  HIS277      0.1154
    115  CE1       44.9100   38.5080   16.7770 C.ar  277  HIS277      0.1986
    116  NE2       45.3100   39.7130   17.1400 N.ar  277  HIS277     -0.2212
    117  N         43.3000   44.2410   15.6210 N.3   279  PHE279     -0.1241
    118  CA        44.4640   44.7970   14.9470 C.3   279  PHE279      0.1605
    119  C         44.5060   46.3300   15.0400 C.2   279  PHE279      0.2264
    120  O         45.4350   46.9410   14.5210 O.2   279  PHE279     -0.2867
    121  CB        44.4970   44.3610   13.4720 C.3   279  PHE279      0.0534
    122  CG        44.6600   42.8710   13.2560 C.ar  279  PHE279     -0.0203
    123  CD1       45.5800   42.1250   13.9900 C.ar  279  PHE279     -0.0042
    124  CD2       43.9210   42.2190   12.2640 C.ar  279  PHE279     -0.0042
    125  CE1       45.7350   40.7600   13.7630 C.ar  279  PHE279     -0.0003
    126  CE2       44.0710   40.8530   12.0320 C.ar  279  PHE279     -0.0003
    127  CZ        44.9830   40.1210   12.7790 C.ar  279  PHE279     -0.0000
    128  N         47.9940   43.7120   11.9670 N.3   305  GLU305     -0.1231
    129  CA        47.4790   42.7670   10.9540 C.3   305  GLU305      0.1684
    130  C         48.6350   42.1000   10.1980 C.2   305  GLU305      0.2434
    131  O         49.4670   42.8130    9.6440 O.2   305  GLU305     -0.2733
    132  CB        46.6110   43.5350    9.9490 C.3   305  GLU305      0.0402
    133  CG        46.2070   42.7710    8.6970 C.3   305  GLU305      0.1161
    134  CD        44.9820   41.9210    8.9090 C.2   305  GLU305      0.3649
    135  OE1       43.8820   42.5140    8.9450 O.co2 305  GLU305     -0.2457
    136  OE2       45.1090   40.6720    9.0230 O.co2 305  GLU305     -0.2457
    137  N         48.6930   40.7490   10.1630 N.am  306  PRO306     -0.2718
    138  CA        49.7490   40.0530    9.4060 C.3   306  PRO306      0.1535
    139  C         49.3500   39.6000    8.0040 C.2   306  PRO306      0.2598
    140  O         50.2330   39.2920    7.1920 O.2   306  PRO306     -0.2715
    141  CB        50.0240   38.8270   10.2700 C.3   306  PRO306      0.0310
    142  CG        48.6830   38.4910   10.8230 C.3   306  PRO306      0.0237
    143  CD        47.9260   39.7940   10.9830 C.3   306  PRO306      0.0939
    144  N         48.0440   39.5440    7.7310 N.am  307  TRP307     -0.1974
    145  CA        47.5370   39.0110    6.4760 C.3   307  TRP307      0.1640
    146  C         47.6010   40.0870    5.4000 C.2   307  TRP307      0.2290
    147  O         46.9410   41.1170    5.5120 O.2   307  TRP307     -0.2864
    148  CB        46.1030   38.5010    6.6570 C.3   307  TRP307      0.0576
    149  CG        45.6460   37.5900    5.5560 C.ar  307  TRP307      0.0006
    150  CD1       46.3990   36.6690    4.8880 C.ar  307  TRP307      0.0946
    151  CD2       44.3300   37.5020    5.0030 C.ar  307  TRP307      0.0152
    152  NE1       45.6430   36.0290    3.9460 N.ar  307  TRP307     -0.2442
    153  CE2       44.3660   36.5120    3.9970 C.ar  307  TRP307      0.0810
    154  CE3       43.1250   38.1640    5.2580 C.ar  307  TRP307      0.0012
    155  CZ2       43.2450   36.1630    3.2450 C.ar  307  TRP307      0.0191
    156  CZ3       42.0060   37.8210    4.5070 C.ar  307  TRP307      0.0001
    157  CH2       42.0770   36.8250    3.5100 C.ar  307  TRP307      0.0015
@<TRIPOS>BOND
     1    27    26    2
     2    26    25    1
     3    21    20    2
     4    20    19    1
     5    20    24   am
     6    25    24    1
     7    25    28    1
     8    30    28    1
     9    19    18    1
    10    19    22    1
    11    32    33    1
    12   155   157   ar
    13   155   153   ar
    14    15    14    2
    15   157   156   ar
    16    28    29    1
    17    34    33    1
    18    34    35    2
    19   152   153   ar
    20   152   150   ar
    21   153   151   ar
    22    14    13    1
    23    33    36    1
    24    23    22    1
    25   156   154   ar
    26    29    31    1
    27   150   149   ar
    28   151   154   ar
    29   151   149   ar
    30   146   147    2
    31   146   145    1
    32    13    12    1
    33    13    16    1
    34    36    37    1
    35   149   148    1
    36    17    16    1
    37    56    55   ar
    38    39    37   ar
    39    39    41   ar
    40    37    38   ar
    41    41    42   ar
    42   145   148    1
    43   145   144    1
    44    38    40   ar
    45    52    51    2
    46    55    57   ar
    47    55    54    1
    48    42    40   ar
    49    42    43    1
    50   140   139    2
    51    53    54    1
    52    53    50    1
    53     3     4    2
    54     3     2    1
    55   144   139   am
    56    94    93    1
    57    51    50    1
    58   139   138    1
    59    93    95    1
    60    93    92    2
    61    50    49    1
    62     2     1    1
    63     2     5    1
    64    91    92    1
    65    91    90    1
    66   133   134    1
    67   133   132    1
    68    10    11   ar
    69    10     8   ar
    70    11     9   ar
    71   134   135   ar
    72   134   136   ar
    73     8     6   ar
    74     9     7   ar
    75    47    46    2
    76     6     7   ar
    77     6     5    1
    78   138   137    1
    79   138   141    1
    80   131   130    2
    81    49    46   am
    82    90    89    1
    83   132   129    1
    84    46    45    1
    85   137   130   am
    86   137   143    1
    87   130   129    1
    88   141   142    1
    89   142   143    1
    90   129   128    1
    91    65    64    2
    92    89    86    1
    93    64    63    1
    94    45    48    1
    95    45    44    1
    96    88    87    2
    97   126   124   ar
    98   126   127   ar
    99    63    62    1
   100    63    66    1
   101   124   122   ar
   102    61    60    2
   103    86    87    1
   104    86    85    1
   105    85    80   am
   106   127   125   ar
   107    60    62   am
   108    60    59    1
   109    81    80    2
   110   122   121    1
   111   122   123   ar
   112    80    79    1
   113   121   118    1
   114   125   123   ar
   115    82    79    1
   116    82    83    1
   117    75    73   ar
   118    75    77   ar
   119    59    58    1
   120    79    78    1
   121    73    72   ar
   122   120   119    2
   123    77    76   ar
   124    83    84    1
   125   118   119    1
   126   118   117    1
   127    78    84    1
   128    78    69   am
   129    72    71    1
   130    72    74   ar
   131    76    74   ar
   132    70    69    2
   133    69    68    1
   134    71    68    1
   135   115   116   ar
   136   115   113   ar
   137    68    67    1
   138   116   114   ar
   139   113   112   ar
   140   110   109    2
   141   114   112   ar
   142   112   111    1
   143   109   108    1
   144   111   108    1
   145   105   104    1
   146   108   107    1
   147   106   104    1
   148   104   103    2
   149   103   102    1
   150   102   101    1
   151    99    98    2
   152   101   100    1
   153    98    97    1
   154   100    97    1
   155    97    96    1
