@<TRIPOS>MOLECULE
tmp/5zl6C00.pdb
 120 113 0 0 0
SMALL
GASTEIGER

@<TRIPOS>ATOM
      1  N         27.3090   -8.5620   38.5240 N.3    37  VAL37      -0.1245
      2  CA        25.9420   -9.0590   38.6110 C.3    37  VAL37       0.1561
      3  C         24.9630   -7.9160   38.3810 C.2    37  VAL37       0.2260
      4  O         24.8580   -7.0040   39.2000 O.2    37  VAL37      -0.2867
      5  CB        25.6640   -9.7290   39.9630 C.3    37  VAL37       0.0252
      6  CG1       24.1910  -10.0840   40.0830 C.3    37  VAL37       0.0019
      7  CG2       26.5310  -10.9720   40.1150 C.3    37  VAL37       0.0019
      8  N         21.4860   -8.1210   37.3620 N.3    39  LYS39      -0.1245
      9  CA        20.0850   -8.5060   37.2990 C.3    39  LYS39       0.1561
     10  C         19.1540   -7.3390   37.6400 C.2    39  LYS39       0.2260
     11  O         19.5570   -6.3700   38.2850 O.2    39  LYS39      -0.2867
     12  CB        19.8230   -9.6720   38.2500 C.3    39  LYS39       0.0271
     13  CG        19.9830   -9.2950   39.7060 C.3    39  LYS39       0.0035
     14  CD        20.3780  -10.4880   40.5640 C.3    39  LYS39       0.0206
     15  CE        20.6120  -10.0460   42.0050 C.3    39  LYS39       0.1093
     16  NZ        20.9520  -11.1800   42.9000 N.3    39  LYS39      -0.1314
     17  N         20.0440   -3.6070   38.9040 N.3    43  PHE43      -0.1241
     18  CA        19.5860   -3.0770   40.1850 C.3    43  PHE43       0.1605
     19  C         18.7740   -1.7990   39.9590 C.2    43  PHE43       0.2264
     20  O         18.7760   -0.8790   40.7790 O.2    43  PHE43      -0.2867
     21  CB        20.7740   -2.8280   41.1240 C.3    43  PHE43       0.0534
     22  CG        21.3200   -4.0860   41.7680 C.ar   43  PHE43      -0.0203
     23  CD1       21.9240   -5.0750   41.0020 C.ar   43  PHE43      -0.0042
     24  CD2       21.2310   -4.2750   43.1420 C.ar   43  PHE43      -0.0042
     25  CE1       22.4290   -6.2240   41.5920 C.ar   43  PHE43      -0.0003
     26  CE2       21.7320   -5.4260   43.7380 C.ar   43  PHE43      -0.0003
     27  CZ        22.3320   -6.4020   42.9620 C.ar   43  PHE43      -0.0000
     28  N         21.8630  -17.1510   36.9530 N.3    85  LEU85      -0.1245
     29  CA        21.9630  -17.6810   38.3100 C.3    85  LEU85       0.1561
     30  C         20.6110  -18.1140   38.8640 C.2    85  LEU85       0.2260
     31  O         20.5380  -18.7650   39.9060 O.2    85  LEU85      -0.2867
     32  CB        22.6050  -16.6460   39.2290 C.3    85  LEU85       0.0270
     33  CG        24.0420  -16.2880   38.8500 C.3    85  LEU85       0.0019
     34  CD1       24.3580  -14.8710   39.2850 C.3    85  LEU85       0.0001
     35  CD2       25.0220  -17.2670   39.4720 C.3    85  LEU85       0.0001
     36  N         17.1900  -21.0520   48.9920 N.3   137  ARG137     -0.1245
     37  CA        16.4770  -20.4780   47.8660 C.3   137  ARG137      0.1563
     38  C         16.3750  -21.5360   46.7720 C.2   137  ARG137      0.2260
     39  O         15.3200  -22.1410   46.5830 O.2   137  ARG137     -0.2867
     40  CB        17.1880  -19.2280   47.3600 C.3   137  ARG137      0.0307
     41  CG        16.4580  -18.4980   46.2460 C.3   137  ARG137      0.0489
     42  CD        17.0810  -17.1390   46.0090 C.3   137  ARG137      0.2205
     43  NE        18.4450  -17.2390   45.4940 N.pl3 137  ARG137     -0.0865
     44  CZ        19.2110  -16.1880   45.2140 C.cat 137  ARG137      0.5346
     45  NH1       18.7470  -14.9580   45.4030 N.pl3 137  ARG137      0.1354
     46  NH2       20.4400  -16.3630   44.7460 N.pl3 137  ARG137      0.1354
     47  N         28.5230  -23.7020   42.4880 N.3   165  TRP165     -0.1241
     48  CA        28.5670  -22.5170   43.3310 C.3   165  TRP165      0.1605
     49  C         27.4950  -22.5570   44.4070 C.2   165  TRP165      0.2264
     50  O         26.5670  -23.3610   44.3450 O.2   165  TRP165     -0.2867
     51  CB        28.4020  -21.2530   42.4860 C.3   165  TRP165      0.0550
     52  CG        27.1610  -21.2440   41.6410 C.ar  165  TRP165      0.0003
     53  CD1       27.0160  -21.7760   40.3930 C.ar  165  TRP165      0.0946
     54  CD2       25.8910  -20.6710   41.9820 C.ar  165  TRP165      0.0152
     55  NE1       25.7380  -21.5690   39.9350 N.ar  165  TRP165     -0.2442
     56  CE2       25.0270  -20.8940   40.8920 C.ar  165  TRP165      0.0810
     57  CE3       25.4010  -19.9940   43.1050 C.ar  165  TRP165      0.0012
     58  CZ2       23.7020  -20.4650   40.8890 C.ar  165  TRP165      0.0191
     59  CZ3       24.0850  -19.5670   43.0990 C.ar  165  TRP165      0.0001
     60  CH2       23.2530  -19.7990   41.9960 C.ar  165  TRP165      0.0015
     61  N         25.5100  -19.6340   47.5160 N.3   167  HIS167     -0.1241
     62  CA        25.2380  -18.2290   47.8250 C.3   167  HIS167      0.1621
     63  C         24.9560  -18.0260   49.3210 C.2   167  HIS167      0.2264
     64  O         24.1430  -18.7370   49.9130 O.2   167  HIS167     -0.2867
     65  CB        24.0550  -17.7310   46.9830 C.3   167  HIS167      0.0745
     66  CG        23.8950  -16.2420   46.9720 C.ar  167  HIS167      0.0817
     67  ND1       24.9370  -15.3800   46.7000 N.ar  167  HIS167     -0.2268
     68  CD2       22.8090  -15.4620   47.1830 C.ar  167  HIS167      0.1154
     69  CE1       24.5000  -14.1350   46.7520 C.ar  167  HIS167      0.1986
     70  NE2       23.2110  -14.1560   47.0420 N.ar  167  HIS167     -0.2212
     71  N         26.5200  -10.0650   54.4420 N.3   172  ASP172     -0.1239
     72  CA        26.4760   -8.6110   54.6240 C.3   172  ASP172      0.1674
     73  C         25.9170   -8.2980   56.0020 C.2   172  ASP172      0.2266
     74  O         25.0760   -7.4150   56.1730 O.2   172  ASP172     -0.2867
     75  CB        25.6570   -7.9210   53.5200 C.3   172  ASP172      0.1410
     76  CG        24.3260   -8.6040   53.2470 C.2   172  ASP172      0.3668
     77  OD1       24.3280   -9.7310   52.7030 O.co2 172  ASP172     -0.2456
     78  OD2       23.2740   -7.9950   53.5380 O.co2 172  ASP172     -0.2456
     79  N         29.7830  -13.0770   47.0690 N.3   204  ASN204     -0.1225
     80  CA        29.0260  -11.8900   46.7010 C.3   204  ASN204      0.1785
     81  C         29.7310  -10.6680   47.2880 C.2   204  ASN204      0.2598
     82  O         30.8290  -10.7900   47.8360 O.2   204  ASN204     -0.2718
     83  CB        27.5780  -11.9770   47.1960 C.3   204  ASN204      0.1169
     84  CG        27.4820  -12.1930   48.6980 C.2   204  ASN204      0.2627
     85  OD1       28.4900  -12.1910   49.4030 O.2   204  ASN204     -0.2716
     86  ND2       26.2640  -12.3820   49.1930 N.am  204  ASN204     -0.0877
     87  N         29.1110   -9.4960   47.1760 N.am  205  THR205     -0.1939
     88  CA        29.6970   -8.2690   47.7250 C.3   205  THR205      0.2028
     89  C         30.0430   -8.4130   49.2120 C.2   205  THR205      0.2642
     90  O         31.1300   -8.0270   49.6450 O.2   205  THR205     -0.2714
     91  CB        28.7560   -7.0650   47.5520 C.3   205  THR205      0.1808
     92  OG1       28.5120   -6.8350   46.1590 O.3   205  THR205     -0.2208
     93  CG2       29.3750   -5.8120   48.1620 C.3   205  THR205      0.0379
     94  N         29.1190   -8.9700   49.9890 N.am  206  GLY206     -0.1954
     95  CA        29.3280   -9.1510   51.4170 C.3   206  GLY206      0.1869
     96  C         30.6060   -9.9020   51.7500 C.2   206  GLY206      0.2309
     97  O         31.4390   -9.4250   52.5200 O.2   206  GLY206     -0.2863
     98  N         31.2060  -12.6400   42.5020 N.3   221  ARG221     -0.1245
     99  CA        29.9520  -12.2270   41.8920 C.3   221  ARG221      0.1563
    100  C         29.5210  -10.9370   42.5610 C.2   221  ARG221      0.2260
    101  O         28.8930  -10.9470   43.6180 O.2   221  ARG221     -0.2867
    102  CB        28.8850  -13.3130   42.0310 C.3   221  ARG221      0.0307
    103  CG        29.3590  -14.6840   41.5620 C.3   221  ARG221      0.0489
    104  CD        28.2270  -15.6950   41.5430 C.3   221  ARG221      0.2205
    105  NE        27.5570  -15.7770   42.8360 N.pl3 221  ARG221     -0.0865
    106  CZ        27.7700  -16.7240   43.7460 C.cat 221  ARG221      0.5346
    107  NH1       28.6430  -17.6940   43.5100 N.pl3 221  ARG221      0.1354
    108  NH2       27.1020  -16.7010   44.8940 N.pl3 221  ARG221      0.1354
    109  N         27.4910   -7.6690   42.9890 N.3   223  GLY223     -0.1210
    110  CA        26.2630   -6.9710   42.6820 C.3   223  GLY223      0.1956
    111  C         26.2430   -5.6010   43.3210 C.2   223  GLY223      0.2611
    112  O         26.7440   -4.6320   42.7540 O.2   223  GLY223     -0.2717
    113  N         25.6840   -5.5380   44.5240 N.am  224  ILE224     -0.1979
    114  CA        25.3610   -4.2750   45.1760 C.3   224  ILE224      0.1595
    115  C         26.5670   -3.3440   45.3570 C.2   224  ILE224      0.2287
    116  O         26.4270   -2.1300   45.2340 O.2   224  ILE224     -0.2864
    117  CB        24.6780   -4.5340   46.5510 C.3   224  ILE224      0.0276
    118  CG1       24.1230   -3.2370   47.1370 C.3   224  ILE224      0.0022
    119  CG2       25.6220   -5.2050   47.5370 C.3   224  ILE224      0.0022
    120  CD1       23.3920   -3.4380   48.4570 C.3   224  ILE224      0.0001
@<TRIPOS>BOND
     1    28    29    1
     2     9     8    1
     3     9    10    1
     4     9    12    1
     5    10    11    2
     6    12    13    1
     7    29    30    1
     8    29    32    1
     9     3     2    1
    10     3     4    2
    11     1     2    1
    12     2     5    1
    13    33    32    1
    14    33    34    1
    15    33    35    1
    16    30    31    2
    17    17    18    1
    18    13    14    1
    19    55    53   ar
    20    55    56   ar
    21    19    18    1
    22    19    20    2
    23     5     6    1
    24     5     7    1
    25    18    21    1
    26    53    52   ar
    27    14    15    1
    28    58    56   ar
    29    58    60   ar
    30    56    54   ar
    31    23    25   ar
    32    23    22   ar
    33    21    22    1
    34   104   103    1
    35   104   105    1
    36   103   102    1
    37    25    27   ar
    38    52    54   ar
    39    52    51    1
    40    22    24   ar
    41    99   102    1
    42    99    98    1
    43    99   100    1
    44    54    57   ar
    45    60    59   ar
    46    15    16    1
    47    51    48    1
    48    47    48    1
    49   100   101    2
    50   110   109    1
    51   110   111    1
    52   112   111    2
    53   105   106    2
    54    27    26   ar
    55    59    57   ar
    56    24    26   ar
    57   111   113   am
    58    48    49    1
    59   107   106    1
    60   106   108    1
    61    50    49    2
    62   113   114    1
    63    46    44    1
    64   114   115    1
    65   114   117    1
    66    44    45    1
    67    44    43    2
    68   116   115    2
    69    43    42    1
    70    42    41    1
    71    92    91    1
    72    41    40    1
    73   117   118    1
    74   117   119    1
    75    39    38    2
    76    67    69   ar
    77    67    66   ar
    78    80    79    1
    79    80    83    1
    80    80    81    1
    81    69    70   ar
    82    38    37    1
    83    66    65    1
    84    66    68   ar
    85    65    62    1
    86    70    68   ar
    87   118   120    1
    88    87    81   am
    89    87    88    1
    90    83    84    1
    91    81    82    2
    92    40    37    1
    93    61    62    1
    94    91    88    1
    95    91    93    1
    96    88    89    1
    97    62    63    1
    98    37    36    1
    99    84    86   am
   100    84    85    2
   101    89    90    2
   102    89    94   am
   103    63    64    2
   104    94    95    1
   105    95    96    1
   106    96    97    2
   107    77    76   ar
   108    76    75    1
   109    76    78   ar
   110    75    72    1
   111    71    72    1
   112    72    73    1
   113    73    74    2
