@<TRIPOS>MOLECULE
tmp/5zleA01.pdb
 216 205 0 0 0
SMALL
GASTEIGER

@<TRIPOS>ATOM
      1  N         17.8860   38.7140    6.2620 N.3    57  GLN57      -0.1245
      2  CA        17.3350   39.5430    7.3290 C.3    57  GLN57       0.1566
      3  C         18.4150   40.4010    7.9690 C.2    57  GLN57       0.2260
      4  O         18.1400   41.5330    8.3880 O.2    57  GLN57      -0.2867
      5  CB        16.6450   38.6710    8.3870 C.3    57  GLN57       0.0367
      6  CG        16.0270   39.4400    9.5530 C.3    57  GLN57       0.0905
      7  CD        15.6680   38.5420   10.7590 C.2    57  GLN57       0.2608
      8  OE1       15.2850   39.0310   11.8200 O.2    57  GLN57      -0.2717
      9  NE2       15.7900   37.2310   10.5860 N.am   57  GLN57      -0.0878
     10  N         18.1220   44.6430    7.8610 N.3    61  ILE61      -0.1245
     11  CA        18.1230   45.4180    9.0980 C.3    61  ILE61       0.1561
     12  C         19.0640   46.6150    9.0010 C.2    61  ILE61       0.2260
     13  O         18.8540   47.6320    9.6710 O.2    61  ILE61      -0.2867
     14  CB        18.4630   44.4780   10.2740 C.3    61  ILE61       0.0252
     15  CG1       17.2030   43.7230   10.6830 C.3    61  ILE61       0.0019
     16  CG2       19.1020   45.2230   11.4290 C.3    61  ILE61       0.0019
     17  CD1       17.4570   42.3910   11.3700 C.3    61  ILE61       0.0001
     18  N         19.0080   50.7680    5.7280 N.3    64  TYR64      -0.1227
     19  CA        18.8600   52.2210    5.8030 C.3    64  TYR64       0.1736
     20  C         20.1610   52.9350    6.1450 C.2    64  TYR64       0.2595
     21  O         20.2530   54.1490    5.9420 O.2    64  TYR64      -0.2718
     22  CB        17.8270   52.6150    6.8440 C.3    64  TYR64       0.0548
     23  CG        16.3820   52.2640    6.5500 C.ar   64  TYR64      -0.0200
     24  CD1       15.6710   52.9400    5.5740 C.ar   64  TYR64      -0.0009
     25  CD2       15.7040   51.3110    7.3070 C.ar   64  TYR64      -0.0009
     26  CE1       14.3400   52.6480    5.3230 C.ar   64  TYR64       0.0417
     27  CE2       14.3660   51.0160    7.0640 C.ar   64  TYR64       0.0417
     28  CZ        13.6890   51.6890    6.0710 C.ar   64  TYR64       0.1957
     29  OH        12.3630   51.4060    5.8050 O.3    64  TYR64      -0.2866
     30  N         21.1590   52.2210    6.6600 N.am   65  ARG65      -0.1980
     31  CA        22.4160   52.8140    7.0960 C.3    65  ARG65       0.1597
     32  C         23.5110   52.7920    6.0270 C.2    65  ARG65       0.2287
     33  O         24.6250   53.2530    6.2990 O.2    65  ARG65      -0.2864
     34  CB        22.9110   52.1070    8.3630 C.3    65  ARG65       0.0334
     35  CG        21.8670   52.1260    9.4700 C.3    65  ARG65       0.0492
     36  CD        22.2390   51.4050   10.7610 C.3    65  ARG65       0.2205
     37  NE        21.3060   51.9060   11.7570 N.pl3  65  ARG65      -0.0865
     38  CZ        21.6440   52.6060   12.8300 C.cat  65  ARG65       0.5346
     39  NH1       22.9160   52.8360   13.1110 N.pl3  65  ARG65       0.1354
     40  NH2       20.6950   53.0540   13.6270 N.pl3  65  ARG65       0.1354
     41  N         13.3720   58.0550    0.5890 N.3    74  LYS74      -0.1245
     42  CA        13.0010   57.3110    1.7890 C.3    74  LYS74       0.1561
     43  C         11.9270   56.2740    1.4830 C.2    74  LYS74       0.2260
     44  O         11.9460   55.1660    2.0400 O.2    74  LYS74      -0.2867
     45  CB        12.5300   58.2730    2.8720 C.3    74  LYS74       0.0271
     46  CG        11.7390   57.6310    4.0090 C.3    74  LYS74       0.0035
     47  CD        12.6060   56.7060    4.8470 C.3    74  LYS74       0.0206
     48  CE        12.2820   56.8220    6.3160 C.3    74  LYS74       0.1093
     49  NZ        13.3800   56.2430    7.1200 N.3    74  LYS74      -0.1314
     50  N         12.5360   52.4860    2.1660 N.3    78  LYS78      -0.1245
     51  CA        11.4840   51.6890    2.7890 C.3    78  LYS78       0.1561
     52  C         11.1290   50.4850    1.9290 C.2    78  LYS78       0.2260
     53  O         10.7920   49.4180    2.4550 O.2    78  LYS78      -0.2867
     54  CB        10.2350   52.5420    3.0360 C.3    78  LYS78       0.0271
     55  CG        10.3000   53.5000    4.2310 C.3    78  LYS78       0.0035
     56  CD         9.1140   54.4660    4.1830 C.3    78  LYS78       0.0206
     57  CE         9.1730   55.5170    5.2700 C.3    78  LYS78       0.1093
     58  NZ         7.9610   56.4010    5.2970 N.3    78  LYS78      -0.1314
     59  N         13.9320   47.7980    2.2250 N.3    81  HIS81      -0.1226
     60  CA        13.7610   47.2140    3.5550 C.3    81  HIS81       0.1752
     61  C         12.5830   46.2420    3.5840 C.2    81  HIS81       0.2595
     62  O         12.7420   45.0460    3.8810 O.2    81  HIS81      -0.2718
     63  CB        13.5650   48.3480    4.5630 C.3    81  HIS81       0.0759
     64  CG        13.4880   47.9140    5.9980 C.ar   81  HIS81       0.0818
     65  ND1       14.6040   47.5930    6.7440 N.ar   81  HIS81      -0.2268
     66  CD2       12.4330   47.8090    6.8370 C.ar   81  HIS81       0.1154
     67  CE1       14.2390   47.2930    7.9760 C.ar   81  HIS81       0.1986
     68  NE2       12.9260   47.4240    8.0620 N.ar   81  HIS81      -0.2212
     69  N         11.3890   46.7490    3.2670 N.am   82  ALA82      -0.1980
     70  CA        10.2130   45.8980    3.1490 C.3    82  ALA82       0.1597
     71  C         10.4890   44.6790    2.2820 C.2    82  ALA82       0.2287
     72  O         10.1800   43.5480    2.6650 O.2    82  ALA82      -0.2864
     73  CB         9.0510   46.7070    2.5750 C.3    82  ALA82       0.0319
     74  N         13.0180   42.0500    3.6530 N.3    85  ASN85      -0.1240
     75  CA        12.3900   41.3060    4.7430 C.3    85  ASN85       0.1653
     76  C         11.3360   40.3440    4.2240 C.2    85  ASN85       0.2266
     77  O         11.1460   39.2650    4.8020 O.2    85  ASN85      -0.2867
     78  CB        11.7510   42.2690    5.7600 C.3    85  ASN85       0.1155
     79  CG        12.7730   42.9410    6.6670 C.2    85  ASN85       0.2627
     80  OD1       13.6140   42.2750    7.2700 O.2    85  ASN85      -0.2716
     81  ND2       12.7060   44.2650    6.7620 N.am   85  ASN85      -0.0877
     82  N          7.8480   37.4890   13.2860 N.3   126  TYR126     -0.1241
     83  CA         8.4120   38.0840   12.0800 C.3   126  TYR126      0.1605
     84  C          7.3130   38.5430   11.1340 C.2   126  TYR126      0.2264
     85  O          7.3130   39.6880   10.6690 O.2   126  TYR126     -0.2867
     86  CB         9.3400   37.0930   11.3850 C.3   126  TYR126      0.0534
     87  CG        10.3010   37.7360   10.4070 C.ar  126  TYR126     -0.0201
     88  CD1       11.5320   38.2150   10.8350 C.ar  126  TYR126     -0.0009
     89  CD2        9.9820   37.8580    9.0630 C.ar  126  TYR126     -0.0009
     90  CE1       12.4110   38.8020    9.9650 C.ar  126  TYR126      0.0417
     91  CE2       10.8630   38.4420    8.1720 C.ar  126  TYR126      0.0417
     92  CZ        12.0780   38.9160    8.6300 C.ar  126  TYR126      0.1957
     93  OH        12.9710   39.5060    7.7540 O.3   126  TYR126     -0.2866
     94  N          5.5800   41.5760   12.5140 N.3   129  GLN129     -0.1231
     95  CA         6.3720   42.7830   12.2980 C.3   129  GLN129      0.1698
     96  C          6.3000   43.2140   10.8420 C.2   129  GLN129      0.2592
     97  O          6.2470   44.4090   10.5430 O.2   129  GLN129     -0.2718
     98  CB         7.8260   42.5720   12.7160 C.3   129  GLN129      0.0381
     99  CG         8.7200   43.7820   12.4260 C.3   129  GLN129      0.0905
    100  CD         9.0280   44.5840   13.6630 C.2   129  GLN129      0.2608
    101  OE1        8.3270   45.5380   13.9970 O.2   129  GLN129     -0.2717
    102  NE2       10.0810   44.1990   14.3600 N.am  129  GLN129     -0.0878
    103  N          6.2670   42.2490    9.9240 N.am  130  LEU130     -0.1980
    104  CA         6.2090   42.5750    8.5040 C.3   130  LEU130      0.1596
    105  C          4.8450   43.1450    8.1150 C.2   130  LEU130      0.2287
    106  O          4.7640   44.1230    7.3590 O.2   130  LEU130     -0.2864
    107  CB         6.5490   41.3250    7.6850 C.3   130  LEU130      0.0297
    108  CG         6.8070   41.4460    6.1850 C.3   130  LEU130      0.0022
    109  CD1        8.1170   42.1660    5.8800 C.3   130  LEU130      0.0001
    110  CD2        6.8140   40.0740    5.5790 C.3   130  LEU130      0.0001
    111  N          4.5410   46.5540    9.9710 N.3   133  GLY133     -0.1210
    112  CA         5.4300   47.5100    9.3350 C.3   133  GLY133      0.1956
    113  C          4.9310   47.9650    7.9800 C.2   133  GLY133      0.2611
    114  O          5.1510   49.1130    7.5810 O.2   133  GLY133     -0.2717
    115  N          4.2300   47.0860    7.2650 N.am  134  PHE134     -0.1976
    116  CA         3.7590   47.4400    5.9330 C.3   134  PHE134      0.1639
    117  C          2.6180   48.4380    6.0080 C.2   134  PHE134      0.2290
    118  O          2.5930   49.4160    5.2530 O.2   134  PHE134     -0.2864
    119  CB         3.3350   46.1850    5.1700 C.3   134  PHE134      0.0560
    120  CG         2.7340   46.4670    3.8210 C.ar  134  PHE134     -0.0200
    121  CD1        3.5350   46.8370    2.7490 C.ar  134  PHE134     -0.0042
    122  CD2        1.3690   46.3460    3.6170 C.ar  134  PHE134     -0.0042
    123  CE1        2.9870   47.0870    1.5020 C.ar  134  PHE134     -0.0003
    124  CE2        0.8180   46.5950    2.3680 C.ar  134  PHE134     -0.0003
    125  CZ         1.6300   46.9660    1.3130 C.ar  134  PHE134     -0.0000
    126  N          4.2210   51.9410    8.1080 N.3   137  PHE137     -0.1227
    127  CA         5.3770   52.7300    7.6830 C.3   137  PHE137      0.1736
    128  C          5.6140   52.8020    6.1740 C.2   137  PHE137      0.2595
    129  O          6.2790   53.7390    5.7180 O.2   137  PHE137     -0.2718
    130  CB         6.6430   52.1990    8.3630 C.3   137  PHE137      0.0547
    131  CG         6.6700   52.4440    9.8370 C.ar  137  PHE137     -0.0202
    132  CD1        6.7670   53.7330   10.3290 C.ar  137  PHE137     -0.0042
    133  CD2        6.6010   51.3910   10.7330 C.ar  137  PHE137     -0.0042
    134  CE1        6.7980   53.9710   11.6920 C.ar  137  PHE137     -0.0003
    135  CE2        6.6280   51.6230   12.1020 C.ar  137  PHE137     -0.0003
    136  CZ         6.7290   52.9140   12.5790 C.ar  137  PHE137     -0.0000
    137  N          5.1180   51.8400    5.3990 N.am  138  LEU138     -0.1980
    138  CA         5.1110   51.9390    3.9350 C.3   138  LEU138      0.1596
    139  C          3.8190   52.6240    3.4880 C.2   138  LEU138      0.2287
    140  O          3.8430   53.7450    2.9800 O.2   138  LEU138     -0.2864
    141  CB         5.2610   50.5490    3.3190 C.3   138  LEU138      0.0297
    142  CG         5.6010   50.4450    1.8280 C.3   138  LEU138      0.0022
    143  CD1        6.7110   51.4160    1.4220 C.3   138  LEU138      0.0001
    144  CD2        6.0030   49.0230    1.5120 C.3   138  LEU138      0.0001
    145  N          7.3370   53.3230   16.2280 N.3   151  MET151     -0.1245
    146  CA         8.7140   53.1940   15.7620 C.3   151  MET151      0.1570
    147  C          9.6730   52.6320   16.8110 C.2   151  MET151      0.2261
    148  O         10.4990   51.7770   16.4450 O.2   151  MET151     -0.2867
    149  CB         9.2170   54.5380   15.2180 C.3   151  MET151      0.0387
    150  CG        10.6930   54.5060   14.7890 C.3   151  MET151      0.0595
    151  SD        11.1300   54.0010   13.0840 S.3   151  MET151     -0.1393
    152  CE        10.5350   52.3250   12.9320 C.3   151  MET151      0.0692
    153  N          9.1400   48.9440   16.9430 N.3   154  HIS154     -0.1226
    154  CA         9.4960   48.2700   15.7010 C.3   154  HIS154      0.1752
    155  C         11.0030   48.0840   15.5890 C.2   154  HIS154      0.2595
    156  O         11.4740   47.0520   15.0910 O.2   154  HIS154     -0.2718
    157  CB         8.9450   49.0650   14.5170 C.3   154  HIS154      0.0759
    158  CG         9.4400   48.5980   13.1820 C.ar  154  HIS154      0.0818
    159  ND1        8.6880   47.7970   12.3510 N.ar  154  HIS154     -0.2268
    160  CD2       10.6070   48.8280   12.5310 C.ar  154  HIS154      0.1154
    161  CE1        9.3730   47.5450   11.2480 C.ar  154  HIS154      0.1986
    162  NE2       10.5430   48.1560   11.3340 N.ar  154  HIS154     -0.2212
    163  N         11.7780   49.0680   16.0420 N.am  155  VAL155     -0.1980
    164  CA        13.2280   48.9320   15.9760 C.3   155  VAL155      0.1595
    165  C         13.6920   47.8940   16.9800 C.2   155  VAL155      0.2287
    166  O         14.4460   46.9720   16.6460 O.2   155  VAL155     -0.2864
    167  CB        13.9020   50.2990   16.1930 C.3   155  VAL155      0.0276
    168  CG1       15.3920   50.1440   16.4580 C.3   155  VAL155      0.0022
    169  CG2       13.6510   51.1790   14.9840 C.3   155  VAL155      0.0022
    170  N         12.6320   44.2590   15.9190 N.3   158  GLY158     -0.1210
    171  CA        13.4420   43.7020   14.8530 C.3   158  GLY158      0.1956
    172  C         14.7860   43.2020   15.3420 C.2   158  GLY158      0.2611
    173  O         15.2590   42.1480   14.9130 O.2   158  GLY158     -0.2717
    174  N         15.4300   43.9550   16.2320 N.am  159  ILE159     -0.1979
    175  CA        16.6880   43.4820   16.7970 C.3   159  ILE159      0.1595
    176  C         16.4470   42.2350   17.6440 C.2   159  ILE159      0.2287
    177  O         17.2290   41.2760   17.5940 O.2   159  ILE159     -0.2864
    178  CB        17.3640   44.6090   17.5980 C.3   159  ILE159      0.0276
    179  CG1       17.6890   45.7900   16.6790 C.3   159  ILE159      0.0022
    180  CG2       18.6390   44.1130   18.2760 C.3   159  ILE159      0.0022
    181  CD1       17.9600   47.1160   17.4250 C.3   159  ILE159      0.0001
    182  N         13.8380   40.0160   17.4610 N.3   161  ILE161     -0.1245
    183  CA        13.5540   38.8690   16.5900 C.3   161  ILE161      0.1561
    184  C         14.8380   38.3460   15.9450 C.2   161  ILE161      0.2260
    185  O         15.0690   37.1320   15.8770 O.2   161  ILE161     -0.2867
    186  CB        12.5270   39.2460   15.5110 C.3   161  ILE161      0.0252
    187  CG1       11.1630   39.5170   16.1300 C.3   161  ILE161      0.0019
    188  CG2       12.4780   38.1570   14.4150 C.3   161  ILE161      0.0019
    189  CD1       10.2860   40.4470   15.3020 C.3   161  ILE161      0.0001
    190  N         24.0970   48.4550   13.4890 N.3   214  VAL214     -0.1245
    191  CA        22.7480   48.9910   13.6690 C.3   214  VAL214      0.1561
    192  C         22.5730   49.8130   14.9400 C.2   214  VAL214      0.2260
    193  O         21.5260   50.4490   15.1080 O.2   214  VAL214     -0.2867
    194  CB        21.7240   47.8430   13.6210 C.3   214  VAL214      0.0252
    195  CG1       21.5640   47.1990   15.0110 C.3   214  VAL214      0.0019
    196  CG2       20.4050   48.3420   13.0320 C.3   214  VAL214      0.0019
    197  N         22.8750   56.1820   11.7430 N.3   220  LYS220     -0.1231
    198  CA        21.4530   56.2920   11.4710 C.3   220  LYS220      0.1693
    199  C         21.2480   57.0630   10.1690 C.2   220  LYS220      0.2591
    200  O         21.9560   58.0350    9.8850 O.2   220  LYS220     -0.2718
    201  CB        20.7720   56.9850   12.6700 C.3   220  LYS220      0.0285
    202  CG        19.2560   56.9930   12.7030 C.3   220  LYS220      0.0035
    203  CD        18.6940   55.5910   12.7280 C.3   220  LYS220      0.0206
    204  CE        17.2170   55.6030   13.0650 C.3   220  LYS220      0.1093
    205  NZ        16.4710   56.4930   12.1360 N.3   220  LYS220     -0.1314
    206  N         20.3280   56.5820    9.3440 N.am  221  ARG221     -0.1980
    207  CA        19.8570   57.3640    8.2160 C.3   221  ARG221      0.1597
    208  C         19.4380   58.7550    8.7050 C.2   221  ARG221      0.2287
    209  O         18.5680   58.8560    9.5860 O.2   221  ARG221     -0.2864
    210  CB        18.6780   56.6640    7.5560 C.3   221  ARG221      0.0334
    211  CG        18.5050   57.0110    6.1280 C.3   221  ARG221      0.0492
    212  CD        17.4210   57.9910    5.8510 C.3   221  ARG221      0.2205
    213  NE        17.4290   58.3460    4.4310 N.pl3 221  ARG221     -0.0865
    214  CZ        16.5350   57.9130    3.5490 C.cat 221  ARG221      0.5346
    215  NH1       15.5510   57.1260    3.9440 N.pl3 221  ARG221      0.1354
    216  NH2       16.6180   58.2710    2.2810 N.pl3 221  ARG221      0.1354
@<TRIPOS>BOND
     1    41    42    1
     2   125   123   ar
     3   125   124   ar
     4   143   142    1
     5    43    42    1
     6    43    44    2
     7   123   121   ar
     8   144   142    1
     9    42    45    1
    10   142   141    1
    11    52    53    2
    12    52    51    1
    13    50    51    1
    14    59    60    1
    15   216   214    1
    16    71    72    2
    17    71    70    1
    18   124   122   ar
    19    73    70    1
    20   121   120   ar
    21    51    54    1
    22    45    46    1
    23   140   139    2
    24    54    55    1
    25    70    69    1
    26    69    61   am
    27   141   138    1
    28   139   138    1
    29   214   215    1
    30   214   213    2
    31    60    61    1
    32    60    63    1
    33    61    62    2
    34   122   120   ar
    35    74    75    1
    36   120   119    1
    37   138   137    1
    38    46    47    1
    39    56    55    1
    40    56    57    1
    41    76    75    1
    42    76    77    2
    43   213   212    1
    44    63    64    1
    45    75    78    1
    46    47    48    1
    47   119   116    1
    48   118   117    2
    49    57    58    1
    50    26    24   ar
    51    26    28   ar
    52   137   128   am
    53    24    23   ar
    54   110   108    1
    55   129   128    2
    56    18    19    1
    57    78    79    1
    58    19    20    1
    59    19    22    1
    60    29    28    1
    61   212   211    1
    62   109   108    1
    63   116   117    1
    64   116   115    1
    65    21    20    2
    66    64    65   ar
    67    64    66   ar
    68    32    33    2
    69    32    31    1
    70    28    27   ar
    71   211   210    1
    72    20    30   am
    73   128   127    1
    74   108   107    1
    75     1     2    1
    76    48    49    1
    77    23    22    1
    78    23    25   ar
    79    30    31    1
    80    79    81   am
    81    79    80    2
    82    65    67   ar
    83    66    68   ar
    84    27    25   ar
    85    31    34    1
    86   115   113   am
    87     2     3    1
    88     2     5    1
    89   106   105    2
    90   210   207    1
    91   114   113    2
    92   127   126    1
    93   127   130    1
    94   107   104    1
    95    93    92    1
    96    10    11    1
    97     3     4    2
    98    67    68   ar
    99   113   112    1
   100   105   104    1
   101    91    92   ar
   102    91    89   ar
   103   207   208    1
   104   207   206    1
   105   130   131    1
   106    34    35    1
   107     5     6    1
   108   104   103    1
   109    92    90   ar
   110   208   209    2
   111    12    11    1
   112    12    13    2
   113    89    87   ar
   114    11    14    1
   115   112   111    1
   116   206   199   am
   117    35    36    1
   118     6     7    1
   119   131   132   ar
   120   131   133   ar
   121   200   199    2
   122   103    96   am
   123    90    88   ar
   124   199   198    1
   125    14    15    1
   126    14    16    1
   127   132   134   ar
   128    87    88   ar
   129    87    86    1
   130    97    96    2
   131     9     7   am
   132    85    84    2
   133    15    17    1
   134   133   135   ar
   135     7     8    2
   136    36    37    1
   137    96    95    1
   138    84    83    1
   139   161   162   ar
   140   161   159   ar
   141   162   160   ar
   142    86    83    1
   143   198   197    1
   144   198   201    1
   145   134   136   ar
   146    37    38    2
   147    83    82    1
   148   135   136   ar
   149   205   204    1
   150    95    94    1
   151    95    98    1
   152   159   158   ar
   153    99    98    1
   154    99   100    1
   155   160   158   ar
   156   201   202    1
   157   202   203    1
   158   203   204    1
   159    38    39    1
   160    38    40    1
   161   152   151    1
   162   196   194    1
   163   151   150    1
   164   158   157    1
   165   190   191    1
   166   194   191    1
   167   194   195    1
   168   100   101    2
   169   100   102   am
   170   191   192    1
   171   188   186    1
   172   157   154    1
   173   150   149    1
   174   171   172    1
   175   171   170    1
   176   173   172    2
   177   192   193    2
   178   169   167    1
   179   156   155    2
   180   149   146    1
   181   189   187    1
   182   172   174   am
   183   186   187    1
   184   186   183    1
   185   155   154    1
   186   155   163   am
   187   154   153    1
   188   146   145    1
   189   146   147    1
   190   185   184    2
   191   184   183    1
   192   164   163    1
   193   164   167    1
   194   164   165    1
   195   167   168    1
   196   174   175    1
   197   148   147    2
   198   183   182    1
   199   166   165    2
   200   179   181    1
   201   179   178    1
   202   175   178    1
   203   175   176    1
   204   177   176    2
   205   178   180    1
