@<TRIPOS>MOLECULE
tmp/5zlgA03.pdb
 88 81 0 0 0
SMALL
GASTEIGER

@<TRIPOS>ATOM
      1  N         13.4080   57.6550    0.7640 N.3    74  LYS74      -0.1245
      2  CA        12.9760   56.8770    1.9210 C.3    74  LYS74       0.1561
      3  C         11.9810   55.8080    1.5110 C.2    74  LYS74       0.2260
      4  O         12.0340   54.6890    2.0260 O.2    74  LYS74      -0.2867
      5  CB        12.3590   57.7800    2.9940 C.3    74  LYS74       0.0271
      6  CG        11.7190   57.0470    4.1880 C.3    74  LYS74       0.0035
      7  CD        12.7700   56.2600    4.9760 C.3    74  LYS74       0.0206
      8  CE        12.2710   55.7850    6.3340 C.3    74  LYS74       0.1093
      9  NZ        13.3480   55.8320    7.3670 N.3    74  LYS74      -0.1314
     10  N         12.5670   51.9120    2.2790 N.3    78  LYS78      -0.1245
     11  CA        11.4860   51.1260    2.8560 C.3    78  LYS78       0.1561
     12  C         11.1330   49.9480    1.9630 C.2    78  LYS78       0.2260
     13  O         10.8730   48.8470    2.4550 O.2    78  LYS78      -0.2867
     14  CB        10.2510   51.9980    3.0750 C.3    78  LYS78       0.0271
     15  CG        10.2720   52.8500    4.3300 C.3    78  LYS78       0.0035
     16  CD         9.1280   53.8330    4.2880 C.3    78  LYS78       0.0206
     17  CE         9.0800   54.6910    5.5250 C.3    78  LYS78       0.1093
     18  NZ         8.2820   55.9450    5.3130 N.3    78  LYS78      -0.1314
     19  N          4.5080   51.4270    8.2840 N.3   137  PHE137     -0.1241
     20  CA         5.6400   52.2080    7.8050 C.3   137  PHE137      0.1605
     21  C          5.7690   52.2800    6.2850 C.2   137  PHE137      0.2264
     22  O          6.3510   53.2460    5.7800 O.2   137  PHE137     -0.2867
     23  CB         6.9290   51.6590    8.4140 C.3   137  PHE137      0.0534
     24  CG         7.0530   51.9230    9.8850 C.ar  137  PHE137     -0.0203
     25  CD1        6.9160   53.2010   10.3820 C.ar  137  PHE137     -0.0042
     26  CD2        7.2880   50.8880   10.7720 C.ar  137  PHE137     -0.0042
     27  CE1        7.0310   53.4400   11.7380 C.ar  137  PHE137     -0.0003
     28  CE2        7.3980   51.1280   12.1350 C.ar  137  PHE137     -0.0003
     29  CZ         7.2690   52.4040   12.6130 C.ar  137  PHE137     -0.0000
     30  N          1.0680   59.8430   11.8000 N.3   144  LEU144     -0.1245
     31  CA         2.4840   59.9990   12.1240 C.3   144  LEU144      0.1561
     32  C          2.7680   59.6990   13.5880 C.2   144  LEU144      0.2260
     33  O          3.8800   59.2830   13.9300 O.2   144  LEU144     -0.2867
     34  CB         2.9390   61.4140   11.7740 C.3   144  LEU144      0.0270
     35  CG         2.5330   61.8900   10.3710 C.3   144  LEU144      0.0019
     36  CD1        2.0080   63.3450   10.3840 C.3   144  LEU144      0.0001
     37  CD2        3.6850   61.7070    9.3610 C.3   144  LEU144      0.0001
     38  N          3.3190   55.9240   13.8820 N.3   147  ARG147     -0.1231
     39  CA         4.7150   55.6420   13.5510 C.3   147  ARG147      0.1694
     40  C          5.6370   56.0450   14.6930 C.2   147  ARG147      0.2591
     41  O          6.6130   55.3440   15.0060 O.2   147  ARG147     -0.2718
     42  CB         5.1180   56.3900   12.2820 C.3   147  ARG147      0.0321
     43  CG         3.9790   56.6720   11.3140 C.3   147  ARG147      0.0489
     44  CD         3.9380   55.6640   10.1710 C.3   147  ARG147      0.2205
     45  NE         2.9440   56.0320    9.1620 N.pl3 147  ARG147     -0.0865
     46  CZ         3.2380   56.4340    7.9300 C.cat 147  ARG147      0.5346
     47  NH1        4.5030   56.5080    7.5400 N.pl3 147  ARG147      0.1354
     48  NH2        2.2650   56.7560    7.0880 N.pl3 147  ARG147      0.1354
     49  N          5.3210   57.1740   15.3330 N.am  148  ALA148     -0.1980
     50  CA         6.1900   57.7600   16.3430 C.3   148  ALA148      0.1597
     51  C          6.3740   56.8300   17.5240 C.2   148  ALA148      0.2287
     52  O          7.4840   56.7110   18.0580 O.2   148  ALA148     -0.2864
     53  CB         5.6280   59.1030   16.8160 C.3   148  ALA148      0.0319
     54  N          7.7390   52.9160   16.3170 N.3   151  MET151     -0.1245
     55  CA         9.1350   52.7820   15.8840 C.3   151  MET151      0.1570
     56  C         10.0920   52.1940   16.9220 C.2   151  MET151      0.2261
     57  O         10.8790   51.3040   16.5540 O.2   151  MET151     -0.2867
     58  CB         9.6560   54.1350   15.3870 C.3   151  MET151      0.0387
     59  CG        11.1770   54.1490   15.1580 C.3   151  MET151      0.0595
     60  SD        11.8390   53.8630   13.4750 S.3   151  MET151     -0.1393
     61  CE        10.7160   52.6360   12.8090 C.3   151  MET151      0.0692
     62  N         23.2820   55.8690   11.6050 N.3   220  LYS220     -0.1245
     63  CA        21.8480   55.8200   11.4070 C.3   220  LYS220      0.1561
     64  C         21.5200   56.6570   10.1710 C.2   220  LYS220      0.2260
     65  O         22.2420   57.5980    9.8290 O.2   220  LYS220     -0.2867
     66  CB        21.1580   56.3100   12.6900 C.3   220  LYS220      0.0271
     67  CG        19.6910   56.6580   12.6080 C.3   220  LYS220      0.0035
     68  CD        18.7920   55.4630   12.6890 C.3   220  LYS220      0.0206
     69  CE        17.3460   55.9000   12.8580 C.3   220  LYS220      0.1093
     70  NZ        16.8980   56.8200   11.7670 N.3   220  LYS220     -0.1314
     71  N         18.0030   61.7580    9.6310 N.3   223  LYS223     -0.1231
     72  CA        16.5570   61.9060    9.7310 C.3   223  LYS223      0.1693
     73  C         16.0010   62.7770    8.6130 C.2   223  LYS223      0.2591
     74  O         16.6040   63.7810    8.2170 O.2   223  LYS223     -0.2718
     75  CB        16.1760   62.4960   11.0890 C.3   223  LYS223      0.0285
     76  CG        14.6740   62.5000   11.3650 C.3   223  LYS223      0.0035
     77  CD        14.3910   62.4990   12.8620 C.3   223  LYS223      0.0206
     78  CE        15.0110   61.2770   13.5280 C.3   223  LYS223      0.1093
     79  NZ        15.0600   61.3990   15.0130 N.3   223  LYS223     -0.1314
     80  N         14.8380   62.3660    8.1080 N.am  224  GLU224     -0.1979
     81  CA        14.1430   63.0810    7.0510 C.3   224  GLU224      0.1602
     82  C         13.7610   64.4900    7.5190 C.2   224  GLU224      0.2287
     83  O         13.4920   64.7080    8.7060 O.2   224  GLU224     -0.2864
     84  CB        12.8970   62.2900    6.6410 C.3   224  GLU224      0.0415
     85  CG        12.4880   62.4270    5.1850 C.3   224  GLU224      0.1163
     86  CD        12.3030   61.0860    4.4970 C.2   224  GLU224      0.3649
     87  OE1       11.9550   60.0990    5.1900 O.co2 224  GLU224     -0.2457
     88  OE2       12.5110   61.0280    3.2610 O.co2 224  GLU224     -0.2457
@<TRIPOS>BOND
     1     1     2    1
     2     3     2    1
     3     3     4    2
     4     2     5    1
     5    12    13    2
     6    12    11    1
     7    10    11    1
     8    11    14    1
     9     5     6    1
    10    14    15    1
    11    88    86   ar
    12     6     7    1
    13    16    15    1
    14    16    17    1
    15    86    85    1
    16    86    87   ar
    17     7     8    1
    18    85    84    1
    19    18    17    1
    20    22    21    2
    21    21    20    1
    22     8     9    1
    23    84    81    1
    24    81    82    1
    25    81    80    1
    26    48    46    1
    27    82    83    2
    28    47    46    1
    29    20    19    1
    30    20    23    1
    31    46    45    2
    32    80    73   am
    33    74    73    2
    34    23    24    1
    35    73    72    1
    36    45    44    1
    37    37    35    1
    38    71    72    1
    39    72    75    1
    40    65    64    2
    41    24    25   ar
    42    24    26   ar
    43    64    63    1
    44    44    43    1
    45    35    36    1
    46    35    34    1
    47    25    27   ar
    48    26    28   ar
    49    75    76    1
    50    43    42    1
    51    76    77    1
    52    63    62    1
    53    63    66    1
    54    27    29   ar
    55    70    69    1
    56    34    31    1
    57    30    31    1
    58    31    32    1
    59    28    29   ar
    60    42    39    1
    61    67    68    1
    62    67    66    1
    63    68    69    1
    64    61    60    1
    65    77    78    1
    66    60    59    1
    67    78    79    1
    68    39    38    1
    69    39    40    1
    70    32    33    2
    71    40    41    2
    72    40    49   am
    73    59    58    1
    74    49    50    1
    75    58    55    1
    76    55    54    1
    77    55    56    1
    78    50    53    1
    79    50    51    1
    80    57    56    2
    81    51    52    2
