@<TRIPOS>MOLECULE
tmp/5zlnB01.pdb
 78 77 0 0 0
SMALL
GASTEIGER

@<TRIPOS>ATOM
      1  N         15.7150   27.4700   24.3250 N.3   151  CYS151     -0.1221
      2  CA        14.2660   27.3040   24.2140 C.3   151  CYS151      0.1808
      3  C         13.8310   26.6560   22.9100 C.2   151  CYS151      0.2601
      4  O         13.3620   27.3340   21.9720 O.2   151  CYS151     -0.2717
      5  CB        13.5110   28.6340   24.4150 C.3   151  CYS151      0.0970
      6  SG        11.7430   28.3080   24.6820 S.3   151  CYS151     -0.0800
      7  N         13.9760   25.3350   22.8840 N.am  152  TYR152     -0.1962
      8  CA        13.6150   24.5200   21.7390 C.3   152  TYR152      0.1771
      9  C         13.2860   23.1020   22.1880 C.2   152  TYR152      0.2619
     10  O         13.3410   22.8030   23.3970 O.2   152  TYR152     -0.2715
     11  CB        14.7200   24.5530   20.6830 C.3   152  TYR152      0.0574
     12  CG        15.9200   23.6850   20.9370 C.ar  152  TYR152     -0.0198
     13  CD1       16.6810   23.8320   22.0810 C.ar  152  TYR152     -0.0009
     14  CD2       16.3460   22.7460   19.9830 C.ar  152  TYR152     -0.0009
     15  CE1       17.8010   23.0320   22.2980 C.ar  152  TYR152      0.0417
     16  CE2       17.4690   21.9540   20.1930 C.ar  152  TYR152      0.0417
     17  CZ        18.1910   22.1020   21.3590 C.ar  152  TYR152      0.1957
     18  OH        19.3070   21.3300   21.5650 O.3   152  TYR152     -0.2866
     19  N         12.9470   22.2280   21.2310 N.am  153  TYR153     -0.1974
     20  CA        12.3550   20.9190   21.5670 C.3   153  TYR153      0.1639
     21  C         13.2230   20.0460   22.4980 C.2   153  TYR153      0.2290
     22  O         12.7020   19.2620   23.2970 O.2   153  TYR153     -0.2864
     23  CB        11.9720   20.1500   20.2960 C.3   153  TYR153      0.0560
     24  CG        13.1620   19.6470   19.5020 C.ar  153  TYR153     -0.0198
     25  CD1       13.7680   20.4360   18.5180 C.ar  153  TYR153     -0.0009
     26  CD2       13.6950   18.4020   19.7570 C.ar  153  TYR153     -0.0009
     27  CE1       14.8610   19.9670   17.7940 C.ar  153  TYR153      0.0417
     28  CE2       14.7950   17.9250   19.0660 C.ar  153  TYR153      0.0417
     29  CZ        15.3730   18.6910   18.0900 C.ar  153  TYR153      0.1957
     30  OH        16.4510   18.1510   17.4440 O.3   153  TYR153     -0.2866
     31  N         13.3440   22.6310   26.3800 N.3   156  PRO156     -0.2102
     32  CA        12.1600   23.4740   26.2300 C.3   156  PRO156      0.1504
     33  C         12.0390   24.5640   27.2650 C.2   156  PRO156      0.2576
     34  O         12.5810   24.4270   28.3590 O.2   156  PRO156     -0.2718
     35  CB        10.9920   22.4920   26.3680 C.3   156  PRO156      0.0282
     36  CG        11.5410   21.2930   27.0630 C.3   156  PRO156      0.0208
     37  CD        13.0200   21.2790   26.8530 C.3   156  PRO156      0.0893
     38  N         11.3570   25.6420   26.8880 N.am  157  CYS157     -0.1957
     39  CA        10.9240   26.6790   27.8360 C.3   157  CYS157      0.1843
     40  C          9.4920   27.0470   27.5200 C.2   157  CYS157      0.2626
     41  O          8.9770   26.6920   26.4540 O.2   157  CYS157     -0.2714
     42  CB        11.8310   27.9180   27.7760 C.3   157  CYS157      0.0997
     43  SG        11.4090   29.1790   26.5440 S.3   157  CYS157     -0.0797
     44  N          8.8650   27.7620   28.4520 N.am  158  THR158     -0.1936
     45  CA         7.4410   28.1020   28.3720 C.3   158  THR158      0.2028
     46  C          7.1190   29.1240   27.2750 C.2   158  THR158      0.2642
     47  O          6.2030   28.9100   26.4620 O.2   158  THR158     -0.2714
     48  CB         6.9320   28.6920   29.7060 C.3   158  THR158      0.1808
     49  OG1        7.2400   27.8060   30.7860 O.3   158  THR158     -0.2208
     50  CG2        5.4100   28.9130   29.6770 C.3   158  THR158      0.0379
     51  N          7.8610   30.2320   27.2750 N.am  159  GLY159     -0.1954
     52  CA         7.6990   31.2440   26.2510 C.3   159  GLY159      0.1869
     53  C          8.8030   31.2760   25.2100 C.2   159  GLY159      0.2309
     54  O          8.7550   30.5810   24.2040 O.2   159  GLY159     -0.2863
     55  N         13.5210   30.3540   20.2500 N.3   183  ASN183     -0.1240
     56  CA        12.1180   30.7940   20.0670 C.3   183  ASN183      0.1653
     57  C         11.9430   32.3240   19.9100 C.2   183  ASN183      0.2266
     58  O         10.8750   32.8840   20.2080 O.2   183  ASN183     -0.2867
     59  CB        11.2160   30.2450   21.1870 C.3   183  ASN183      0.1155
     60  CG        10.1280   29.2910   20.6720 C.2   183  ASN183      0.2627
     61  OD1       10.2790   28.6630   19.6310 O.2   183  ASN183     -0.2716
     62  ND2        9.0200   29.1760   21.4170 N.am  183  ASN183     -0.0877
     63  N         11.8540   31.8480   15.4180 N.3   204  LEU204     -0.1245
     64  CA        10.6130   32.0540   14.6870 C.3   204  LEU204      0.1561
     65  C         10.5730   33.4710   14.1260 C.2   204  LEU204      0.2260
     66  O          9.5310   34.1330   14.1580 O.2   204  LEU204     -0.2867
     67  CB         9.4350   31.8320   15.6090 C.3   204  LEU204      0.0270
     68  CG         9.4020   30.5360   16.4080 C.3   204  LEU204      0.0019
     69  CD1        8.3510   30.6560   17.5210 C.3   204  LEU204      0.0001
     70  CD2        9.1250   29.3790   15.4580 C.3   204  LEU204      0.0001
     71  N          8.8690   23.0730   13.7650 N.3   239  ILE239     -0.1245
     72  CA         7.7360   23.9600   13.9750 C.3   239  ILE239      0.1561
     73  C          7.2660   24.5200   12.6480 C.2   239  ILE239      0.2260
     74  O          8.0290   25.1900   11.9370 O.2   239  ILE239     -0.2867
     75  CB         8.0910   25.1280   14.9000 C.3   239  ILE239      0.0252
     76  CG1        8.4830   24.6150   16.2910 C.3   239  ILE239      0.0019
     77  CG2        6.9090   26.0830   14.9990 C.3   239  ILE239      0.0019
     78  CD1        9.5370   25.4740   16.9670 C.3   239  ILE239      0.0001
@<TRIPOS>BOND
     1    74    73    2
     2    73    72    1
     3    71    72    1
     4    72    75    1
     5    65    66    2
     6    65    64    1
     7    64    63    1
     8    64    67    1
     9    75    77    1
    10    75    76    1
    11    70    68    1
    12    67    68    1
    13    76    78    1
    14    68    69    1
    15    30    29    1
    16    27    29   ar
    17    27    25   ar
    18    29    28   ar
    19    25    24   ar
    20    28    26   ar
    21    24    26   ar
    22    24    23    1
    23    61    60    2
    24    57    56    1
    25    57    58    2
    26    14    16   ar
    27    14    12   ar
    28    56    55    1
    29    56    59    1
    30    16    17   ar
    31    23    20    1
    32    60    59    1
    33    60    62   am
    34    11    12    1
    35    11     8    1
    36    12    13   ar
    37    19    20    1
    38    19     9   am
    39    17    18    1
    40    17    15   ar
    41    20    21    1
    42     8     9    1
    43     8     7    1
    44     4     3    2
    45    13    15   ar
    46     9    10    2
    47    21    22    2
    48     7     3   am
    49     3     2    1
    50    54    53    2
    51     2     1    1
    52     2     5    1
    53     5     6    1
    54     6    43    1
    55    53    52    1
    56    32    35    1
    57    32    31    1
    58    32    33    1
    59    52    51    1
    60    35    36    1
    61    31    37    1
    62    41    40    2
    63    47    46    2
    64    43    42    1
    65    37    36    1
    66    38    33   am
    67    38    39    1
    68    33    34    2
    69    51    46   am
    70    46    45    1
    71    40    39    1
    72    40    44   am
    73    42    39    1
    74    45    44    1
    75    45    48    1
    76    50    48    1
    77    48    49    1
