@<TRIPOS>MOLECULE
tmp/5zlnB06.pdb
 97 89 0 0 0
SMALL
GASTEIGER

@<TRIPOS>ATOM
      1  N         44.9600   -9.6270   13.0340 N.3   605  ARG605     -0.1245
      2  CA        43.9170   -9.1670   13.9670 C.3   605  ARG605      0.1563
      3  C         42.6350   -9.9940   13.8280 C.2   605  ARG605      0.2260
      4  O         42.2710  -10.3960   12.7240 O.2   605  ARG605     -0.2867
      5  CB        43.6460   -7.6460   13.8020 C.3   605  ARG605      0.0307
      6  CG        42.6240   -7.0640   14.7800 C.3   605  ARG605      0.0489
      7  CD        42.2000   -5.5990   14.5990 C.3   605  ARG605      0.2205
      8  NE        43.2760   -4.8270   15.1040 N.pl3 605  ARG605     -0.0865
      9  CZ        43.3620   -4.2040   16.2750 C.cat 605  ARG605      0.5346
     10  NH1       42.3660   -4.0960   17.1170 N.pl3 605  ARG605      0.1354
     11  NH2       44.5110   -3.6270   16.5470 N.pl3 605  ARG605      0.1354
     12  N         51.0330   -5.3530   18.8350 N.3   651  ASP651     -0.1239
     13  CA        49.7260   -5.2010   19.4020 C.3   651  ASP651      0.1674
     14  C         49.2380   -6.6030   19.7360 C.2   651  ASP651      0.2266
     15  O         48.9810   -7.4030   18.8310 O.2   651  ASP651     -0.2867
     16  CB        48.7880   -4.5210   18.3900 C.3   651  ASP651      0.1410
     17  CG        47.4240   -4.1350   19.0010 C.2   651  ASP651      0.3668
     18  OD1       47.0910   -4.6100   20.1200 O.co2 651  ASP651     -0.2456
     19  OD2       46.6890   -3.3410   18.3530 O.co2 651  ASP651     -0.2456
     20  N         46.6960   -6.7610   22.1660 N.3   653  SER653     -0.1202
     21  CA        45.5090   -6.4240   22.9250 C.3   653  SER653      0.2020
     22  C         44.3380   -7.3520   22.6520 C.2   653  SER653      0.2619
     23  O         44.2480   -8.0400   21.6050 O.2   653  SER653     -0.2717
     24  CB        45.1080   -4.9750   22.6590 C.3   653  SER653      0.2103
     25  OG        44.9000   -4.7170   21.2830 O.3   653  SER653     -0.2182
     26  N         43.4290   -7.3630   23.6200 N.am  654  SER654     -0.1951
     27  CA        42.1800   -8.1020   23.5120 C.3   654  SER654      0.1924
     28  C         42.4370   -9.5740   23.2170 C.2   654  SER654      0.2314
     29  O         41.7330  -10.1950   22.4040 O.2   654  SER654     -0.2863
     30  CB        41.2270   -7.4580   22.4740 C.3   654  SER654      0.2116
     31  OG        41.0260   -6.0850   22.7690 O.3   654  SER654     -0.2180
     32  N         56.2840    0.5230   20.5140 N.3   673  GLU673     -0.1245
     33  CA        54.8960    0.4950   20.9810 C.3   673  GLU673      0.1567
     34  C         54.4650   -0.8980   21.3080 C.2   673  GLU673      0.2260
     35  O         54.5460   -1.7730   20.4650 O.2   673  GLU673     -0.2867
     36  CB        53.9430    1.0640   19.9110 C.3   673  GLU673      0.0388
     37  CG        54.3830    2.4040   19.3530 C.3   673  GLU673      0.1160
     38  CD        53.3270    3.1130   18.5070 C.2   673  GLU673      0.3649
     39  OE1       52.1180    2.7390   18.5780 O.co2 673  GLU673     -0.2457
     40  OE2       53.7350    4.0490   17.7690 O.co2 673  GLU673     -0.2457
     41  N         51.0460   -2.8490   22.9620 N.3   675  ASN675     -0.1240
     42  CA        49.6870   -2.7570   23.4560 C.3   675  ASN675      0.1653
     43  C         49.3250   -4.0590   24.1340 C.2   675  ASN675      0.2266
     44  O         49.0990   -5.0600   23.4710 O.2   675  ASN675     -0.2867
     45  CB        48.7120   -2.4430   22.3230 C.3   675  ASN675      0.1155
     46  CG        47.3660   -1.9720   22.8340 C.2   675  ASN675      0.2627
     47  OD1       46.9070   -2.3890   23.9220 O.2   675  ASN675     -0.2716
     48  ND2       46.7070   -1.0950   22.0510 N.am  675  ASN675     -0.0877
     49  N         46.7510   -4.0370   26.3990 N.3   677  SER677     -0.1202
     50  CA        45.4380   -3.7540   27.0050 C.3   677  SER677      0.2020
     51  C         44.4000   -4.8300   26.7490 C.2   677  SER677      0.2618
     52  O         44.5030   -5.6220   25.8150 O.2   677  SER677     -0.2717
     53  CB        44.8880   -2.4210   26.5300 C.3   677  SER677      0.2103
     54  OG        44.5840   -2.4660   25.1480 O.3   677  SER677     -0.2182
     55  N         43.3850   -4.8370   27.6000 N.am  678  HIS678     -0.1975
     56  CA        42.2880   -5.8120   27.5320 C.3   678  HIS678      0.1656
     57  C         42.7950   -7.2610   27.5070 C.2   678  HIS678      0.2291
     58  O         42.4630   -8.0460   26.6200 O.2   678  HIS678     -0.2864
     59  CB        41.3800   -5.5390   26.3310 C.3   678  HIS678      0.0771
     60  CG        40.7970   -4.1750   26.3350 C.ar  678  HIS678      0.0820
     61  ND1       39.5390   -3.9000   26.8420 N.ar  678  HIS678     -0.2267
     62  CD2       41.3020   -2.9960   25.9060 C.ar  678  HIS678      0.1154
     63  CE1       39.2970   -2.6050   26.7210 C.ar  678  HIS678      0.1986
     64  NE2       40.3530   -2.0320   26.1600 N.ar  678  HIS678     -0.2212
     65  N         55.1680    3.9000   23.5910 N.3   698  VAL698     -0.1245
     66  CA        53.8660    3.5700   24.1940 C.3   698  VAL698      0.1561
     67  C         53.8010    2.1730   24.7840 C.2   698  VAL698      0.2260
     68  O         54.1740    1.2200   24.1510 O.2   698  VAL698     -0.2867
     69  CB        52.5990    3.9320   23.3150 C.3   698  VAL698      0.0252
     70  CG1       52.9330    4.5980   22.0020 C.3   698  VAL698      0.0019
     71  CG2       51.6660    2.7520   23.1240 C.3   698  VAL698      0.0019
     72  N         50.7860    0.1060   26.6980 N.3   700  ASP700     -0.1239
     73  CA        49.3930    0.2700   27.0430 C.3   700  ASP700      0.1674
     74  C         48.9450   -0.8770   27.8740 C.2   700  ASP700      0.2266
     75  O         48.9330   -1.9790   27.3950 O.2   700  ASP700     -0.2867
     76  CB        48.5120    0.4130   25.7800 C.3   700  ASP700      0.1410
     77  CG        47.0870    0.9280   26.1070 C.2   700  ASP700      0.3668
     78  OD1       46.6680    0.8690   27.2810 O.co2 700  ASP700     -0.2456
     79  OD2       46.3950    1.4050   25.1850 O.co2 700  ASP700     -0.2456
     80  N         45.9840   -0.6740   30.0840 N.3   702  ARG702     -0.1245
     81  CA        44.6090   -0.5720   30.5680 C.3   702  ARG702      0.1563
     82  C         43.7910   -1.8510   30.3960 C.2   702  ARG702      0.2260
     83  O         44.1020   -2.7340   29.6080 O.2   702  ARG702     -0.2867
     84  CB        43.8040    0.5390   29.8690 C.3   702  ARG702      0.0307
     85  CG        44.3040    1.9770   29.9710 C.3   702  ARG702      0.0489
     86  CD        44.7130    2.3860   28.5730 C.3   702  ARG702      0.2205
     87  NE        44.0760    3.5880   28.1400 N.pl3 702  ARG702     -0.0865
     88  CZ        44.1650    4.0660   26.9100 C.cat 702  ARG702      0.5346
     89  NH1       44.8680    3.4530   25.9810 N.pl3 702  ARG702      0.1354
     90  NH2       43.5410    5.1880   26.6260 N.pl3 702  ARG702      0.1354
     91  N         49.4790    5.5080   28.2040 N.2   726  PRO726     -0.2584
     92  CA        48.2500    6.2510   27.9910 C.3   726  PRO726      0.1895
     93  C         47.2550    5.9310   29.0900 C.2   726  PRO726      0.2359
     94  O         47.1290    4.7770   29.4830 O.2   726  PRO726     -0.2858
     95  CB        47.7340    5.7740   26.6290 C.2   726  PRO726      0.0071
     96  CG        48.5690    4.6110   26.2270 C.2   726  PRO726      0.0180
     97  CD        49.7190    4.4670   27.1870 C.2   726  PRO726      0.0937
@<TRIPOS>BOND
     1     4     3    2
     2     1     2    1
     3     5     2    1
     4     5     6    1
     5     3     2    1
     6     7     6    1
     7     7     8    1
     8     8     9    2
     9     9    11    1
    10     9    10    1
    11    40    38   ar
    12    19    17   ar
    13    16    17    1
    14    16    13    1
    15    38    39   ar
    16    38    37    1
    17    15    14    2
    18    12    13    1
    19    17    18   ar
    20    37    36    1
    21    13    14    1
    22    36    33    1
    23    35    34    2
    24    32    33    1
    25    33    34    1
    26    25    24    1
    27    23    22    2
    28    70    69    1
    29    48    46   am
    30    20    21    1
    31    45    46    1
    32    45    42    1
    33    29    28    2
    34    30    31    1
    35    30    27    1
    36    22    21    1
    37    22    26   am
    38    24    21    1
    39    46    47    2
    40    41    42    1
    41    71    69    1
    42    28    27    1
    43    69    66    1
    44    42    43    1
    45    44    43    2
    46    27    26    1
    47    65    66    1
    48    68    67    2
    49    66    67    1
    50    54    53    1
    51    79    77   ar
    52    76    77    1
    53    76    73    1
    54    52    51    2
    55    62    64   ar
    56    62    60   ar
    57    89    88    1
    58    77    78   ar
    59    64    63   ar
    60    96    95    2
    61    96    97    1
    62    59    60    1
    63    59    56    1
    64    60    61   ar
    65    49    50    1
    66    53    50    1
    67    58    57    2
    68    90    88    1
    69    95    92    1
    70    72    73    1
    71    63    61   ar
    72    51    50    1
    73    51    55   am
    74    88    87    2
    75    73    74    1
    76    97    91    2
    77    75    74    2
    78    57    56    1
    79    56    55    1
    80    92    91    1
    81    92    93    1
    82    87    86    1
    83    86    85    1
    84    93    94    2
    85    83    82    2
    86    84    85    1
    87    84    81    1
    88    80    81    1
    89    82    81    1
