@<TRIPOS>MOLECULE
tmp/5zlpJ00.pdb
 179 167 0 0 0
SMALL
GASTEIGER

@<TRIPOS>ATOM
      1  N        -58.9670   17.2880   24.1300 N.3   134  GLU134     -0.1245
      2  CA       -57.9280   16.3250   24.4790 C.3   134  GLU134      0.1567
      3  C        -58.4200   15.5500   25.6860 C.2   134  GLU134      0.2260
      4  O        -58.4630   16.0900   26.7940 O.2   134  GLU134     -0.2867
      5  CB       -56.6000   16.9990   24.8230 C.3   134  GLU134      0.0388
      6  CG       -56.1660   18.1590   23.9650 C.3   134  GLU134      0.1160
      7  CD       -54.9290   18.8410   24.5310 C.2   134  GLU134      0.3649
      8  OE1      -54.3560   18.3260   25.5140 O.co2 134  GLU134     -0.2457
      9  OE2      -54.5220   19.8900   23.9960 O.co2 134  GLU134     -0.2457
     10  N        -57.4290   12.7950   28.1250 N.3   136  GLU136     -0.1245
     11  CA       -56.4410   11.9120   28.7270 C.3   136  GLU136      0.1567
     12  C        -57.1300   10.8310   29.5380 C.2   136  GLU136      0.2260
     13  O        -58.1910   11.0540   30.1180 O.2   136  GLU136     -0.2867
     14  CB       -55.5010   12.6750   29.6500 C.3   136  GLU136      0.0388
     15  CG       -55.0760   14.0270   29.1170 C.3   136  GLU136      0.1160
     16  CD       -54.0960   14.7170   30.0180 C.2   136  GLU136      0.3649
     17  OE1      -52.9460   14.9310   29.5990 O.co2 136  GLU136     -0.2457
     18  OE2      -54.4590   15.0340   31.1650 O.co2 136  GLU136     -0.2457
     19  N        -43.8470   10.9820   31.3140 N.3   185  TYR185     -0.1241
     20  CA       -43.7320   11.9090   30.1840 C.3   185  TYR185      0.1605
     21  C        -42.2770   12.2440   29.8760 C.2   185  TYR185      0.2264
     22  O        -41.6790   13.0410   30.5980 O.2   185  TYR185     -0.2867
     23  CB       -44.4890   13.2130   30.4960 C.3   185  TYR185      0.0534
     24  CG       -44.7940   14.1320   29.3180 C.ar  185  TYR185     -0.0201
     25  CD1      -45.9350   13.9590   28.5520 C.ar  185  TYR185     -0.0009
     26  CD2      -43.9770   15.1940   28.9980 C.ar  185  TYR185     -0.0009
     27  CE1      -46.2370   14.7990   27.4790 C.ar  185  TYR185      0.0417
     28  CE2      -44.2840   16.0450   27.9140 C.ar  185  TYR185      0.0417
     29  CZ       -45.4150   15.8360   27.1650 C.ar  185  TYR185      0.1957
     30  OH       -45.7330   16.6560   26.0900 O.3   185  TYR185     -0.2866
     31  N        -49.0260   10.1310   22.7840 N.3   216  HIS216     -0.1241
     32  CA       -47.8980    9.9770   23.6840 C.3   216  HIS216      0.1621
     33  C        -48.3270    9.3490   24.9920 C.2   216  HIS216      0.2264
     34  O        -49.5190    9.2150   25.2920 O.2   216  HIS216     -0.2867
     35  CB       -47.2280   11.3190   23.9560 C.3   216  HIS216      0.0745
     36  CG       -48.2020   12.4000   24.2610 C.ar  216  HIS216      0.0817
     37  ND1      -48.6190   12.6840   25.5440 N.ar  216  HIS216     -0.2268
     38  CD2      -48.8570   13.2630   23.4470 C.ar  216  HIS216      0.1154
     39  CE1      -49.4790   13.6840   25.5040 C.ar  216  HIS216      0.1986
     40  NE2      -49.6420   14.0530   24.2460 N.ar  216  HIS216     -0.2212
     41  N        -48.4820   10.1460   28.9140 N.3   218  GLU218     -0.1231
     42  CA       -48.6910   11.3750   29.6660 C.3   218  GLU218      0.1699
     43  C        -48.0990   11.2130   31.0650 C.2   218  GLU218      0.2592
     44  O        -47.6280   10.1390   31.4260 O.2   218  GLU218     -0.2718
     45  CB       -50.1790   11.7260   29.6840 C.3   218  GLU218      0.0402
     46  CG       -50.5220   13.0840   30.2630 C.3   218  GLU218      0.1161
     47  CD       -50.0510   14.2360   29.4130 C.2   218  GLU218      0.3649
     48  OE1      -49.1310   14.9410   29.8570 O.co2 218  GLU218     -0.2457
     49  OE2      -50.6100   14.4620   28.3230 O.co2 218  GLU218     -0.2457
     50  N        -48.1080   12.2910   31.8530 N.am  219  VAL219     -0.1980
     51  CA       -47.2480   12.3720   33.0430 C.3   219  VAL219      0.1595
     52  C        -47.5730   11.3030   34.0800 C.2   219  VAL219      0.2287
     53  O        -46.6660   10.7320   34.6910 O.2   219  VAL219     -0.2864
     54  CB       -47.3300   13.7640   33.6820 C.3   219  VAL219      0.0276
     55  CG1      -46.7780   13.7050   35.0940 C.3   219  VAL219      0.0022
     56  CG2      -46.5740   14.7260   32.8620 C.3   219  VAL219      0.0022
     57  N        -50.7470    6.7090   32.2650 N.3   223  GLN223     -0.1245
     58  CA       -51.6040    7.6360   31.5550 C.3   223  GLN223      0.1566
     59  C        -51.2650    7.7240   30.0550 C.2   223  GLN223      0.2260
     60  O        -50.2290    7.2480   29.5870 O.2   223  GLN223     -0.2867
     61  CB       -51.5290    8.9910   32.2230 C.3   223  GLN223      0.0367
     62  CG       -52.8820    9.5710   32.3990 C.3   223  GLN223      0.0905
     63  CD       -52.8540   11.0350   32.7190 C.2   223  GLN223      0.2608
     64  OE1      -51.8010   11.6850   32.6860 O.2   223  GLN223     -0.2717
     65  NE2      -54.0130   11.5700   33.0550 N.am  223  GLN223     -0.0878
     66  N        -52.6230    9.8130   25.9910 N.3   225  GLU225     -0.1245
     67  CA       -53.3180   10.8740   25.2640 C.3   225  GLU225      0.1567
     68  C        -53.2340   10.6550   23.7540 C.2   225  GLU225      0.2260
     69  O        -52.2090   10.2040   23.2270 O.2   225  GLU225     -0.2867
     70  CB       -52.7520   12.2600   25.6030 C.3   225  GLU225      0.0388
     71  CG       -53.4780   13.3770   24.8780 C.3   225  GLU225      0.1160
     72  CD       -53.2300   14.7550   25.4920 C.2   225  GLU225      0.3649
     73  OE1      -53.7350   15.0210   26.6070 O.co2 225  GLU225     -0.2457
     74  OE2      -52.5280   15.5800   24.8550 O.co2 225  GLU225     -0.2457
     75  N        -50.6530   12.6620   38.5210 N.3   269  ASN269     -0.1225
     76  CA       -51.3790   13.6820   37.7570 C.3   269  ASN269      0.1785
     77  C        -52.8030   13.2400   37.4840 C.2   269  ASN269      0.2597
     78  O        -53.0520   12.0570   37.2400 O.2   269  ASN269     -0.2718
     79  CB       -50.6790   13.9550   36.4230 C.3   269  ASN269      0.1169
     80  CG       -49.5960   15.0020   36.5320 C.2   269  ASN269      0.2627
     81  OD1      -48.9180   15.1180   37.5590 O.2   269  ASN269     -0.2716
     82  ND2      -49.4300   15.7800   35.4740 N.am  269  ASN269     -0.0877
     83  N        -53.7500   14.2080   37.5080 N.am  270  GLY270     -0.1957
     84  CA       -55.1270   13.9290   37.1190 C.3   270  GLY270      0.1869
     85  C        -55.3110   13.8450   35.6000 C.2   270  GLY270      0.2309
     86  O        -54.4140   14.1550   34.8100 O.2   270  GLY270     -0.2863
     87  N        -57.2240   15.3350   32.4570 N.3   272  GLY272     -0.1225
     88  CA       -57.9730   16.4870   32.0100 C.3   272  GLY272      0.1811
     89  C        -58.8460   16.2120   30.7960 C.2   272  GLY272      0.2280
     90  O        -58.9100   15.1050   30.2500 O.2   272  GLY272     -0.2866
     91  N        -58.6410   18.9840   28.0850 N.3   274  HIS274     -0.1241
     92  CA       -58.1740   20.2990   27.6630 C.3   274  HIS274      0.1621
     93  C        -58.9030   20.7550   26.3990 C.2   274  HIS274      0.2264
     94  O        -58.6820   20.2160   25.3070 O.2   274  HIS274     -0.2867
     95  CB       -56.6750   20.2230   27.4580 C.3   274  HIS274      0.0745
     96  CG       -55.9550   19.7790   28.6800 C.ar  274  HIS274      0.0817
     97  ND1      -54.7140   19.1880   28.6470 N.ar  274  HIS274     -0.2268
     98  CD2      -56.3160   19.8340   29.9840 C.ar  274  HIS274      0.1154
     99  CE1      -54.3410   18.9010   29.8820 C.ar  274  HIS274      0.1986
    100  NE2      -55.2920   19.2900   30.7120 N.ar  274  HIS274     -0.2212
    101  N        -59.1180   16.5090   41.3380 N.3   326  ARG326     -0.1245
    102  CA       -58.0770   16.8160   40.3770 C.3   326  ARG326      0.1563
    103  C        -57.5680   18.2530   40.4900 C.2   326  ARG326      0.2260
    104  O        -56.3760   18.4960   40.2520 O.2   326  ARG326     -0.2867
    105  CB       -58.5960   16.5320   38.9720 C.3   326  ARG326      0.0307
    106  CG       -57.7580   17.1530   37.9160 C.3   326  ARG326      0.0489
    107  CD       -58.0550   16.5990   36.5710 C.3   326  ARG326      0.2205
    108  NE       -57.8040   17.6200   35.5720 N.pl3 326  ARG326     -0.0865
    109  CZ       -58.7100   18.5040   35.1700 C.cat 326  ARG326      0.5346
    110  NH1      -59.9420   18.4810   35.6700 N.pl3 326  ARG326      0.1354
    111  NH2      -58.3820   19.4090   34.2680 N.pl3 326  ARG326      0.1354
    112  N        -50.1850   19.3850   39.9750 N.3   331  TYR331     -0.1227
    113  CA       -50.2470   18.3370   38.9520 C.3   331  TYR331      0.1736
    114  C        -50.8050   18.8800   37.6360 C.2   331  TYR331      0.2595
    115  O        -51.6390   18.2440   36.9700 O.2   331  TYR331     -0.2718
    116  CB       -51.0550   17.1410   39.4540 C.3   331  TYR331      0.0548
    117  CG       -50.6030   16.7300   40.8350 C.ar  331  TYR331     -0.0200
    118  CD1      -49.5900   15.8030   41.0020 C.ar  331  TYR331     -0.0009
    119  CD2      -51.1410   17.3240   41.9760 C.ar  331  TYR331     -0.0009
    120  CE1      -49.1390   15.4690   42.2610 C.ar  331  TYR331      0.0417
    121  CE2      -50.6990   16.9840   43.2340 C.ar  331  TYR331      0.0417
    122  CZ       -49.6970   16.0470   43.3750 C.ar  331  TYR331      0.1957
    123  OH       -49.2340   15.6850   44.6270 O.3   331  TYR331     -0.2866
    124  N        -50.3300   20.0620   37.2420 N.am  332  GLU332     -0.1965
    125  CA       -50.7080   20.6790   35.9770 C.3   332  GLU332      0.1733
    126  C        -52.2210   20.7940   35.8290 C.2   332  GLU332      0.2616
    127  O        -52.7570   20.7350   34.7190 O.2   332  GLU332     -0.2715
    128  CB       -50.1120   19.9130   34.8010 C.3   332  GLU332      0.0429
    129  CG       -48.6030   19.9670   34.7510 C.3   332  GLU332      0.1163
    130  CD       -48.0290   18.9920   33.7420 C.2   332  GLU332      0.3649
    131  OE1      -48.3730   17.7930   33.8210 O.co2 332  GLU332     -0.2457
    132  OE2      -47.2420   19.4190   32.8680 O.co2 332  GLU332     -0.2457
    133  N        -52.9240   20.9590   36.9480 N.am  333  ALA333     -0.1977
    134  CA       -54.3510   21.1500   36.8570 C.3   333  ALA333      0.1597
    135  C        -54.7160   22.5220   37.3960 C.2   333  ALA333      0.2287
    136  O        -54.2090   22.9200   38.4420 O.2   333  ALA333     -0.2864
    137  CB       -55.1130   20.0810   37.6330 C.3   333  ALA333      0.0319
    138  N        -49.0970   26.4850   32.1780 N.3   344  ARG344     -0.1245
    139  CA       -49.9430   25.3500   32.5290 C.3   344  ARG344      0.1563
    140  C        -50.4060   25.3720   33.9890 C.2   344  ARG344      0.2260
    141  O        -51.1470   24.4740   34.4050 O.2   344  ARG344     -0.2867
    142  CB       -49.2010   24.0570   32.1860 C.3   344  ARG344      0.0307
    143  CG       -48.8170   24.0200   30.7200 C.3   344  ARG344      0.0489
    144  CD       -48.2720   22.6940   30.3060 C.3   344  ARG344      0.2205
    145  NE       -48.6780   22.3280   28.9490 N.pl3 344  ARG344     -0.0865
    146  CZ       -48.0070   22.6610   27.8500 C.cat 344  ARG344      0.5346
    147  NH1      -46.9000   23.3820   27.9490 N.pl3 344  ARG344      0.1354
    148  NH2      -48.4380   22.2800   26.6530 N.pl3 344  ARG344      0.1354
    149  N        -54.8490   28.6690   28.8900 N.3   349  ARG349     -0.1245
    150  CA       -53.5080   28.7470   28.3380 C.3   349  ARG349      0.1563
    151  C        -53.6060   29.2420   26.9050 C.2   349  ARG349      0.2260
    152  O        -54.4810   28.8040   26.1490 O.2   349  ARG349     -0.2867
    153  CB       -52.8180   27.3840   28.3920 C.3   349  ARG349      0.0307
    154  CG       -51.4290   27.3060   27.7500 C.3   349  ARG349      0.0489
    155  CD       -50.8340   25.8970   27.9400 C.3   349  ARG349      0.2205
    156  NE       -49.7550   25.5810   27.0060 N.pl3 349  ARG349     -0.0865
    157  CZ       -49.9330   24.9470   25.8530 C.cat 349  ARG349      0.5346
    158  NH1      -48.9040   24.6930   25.0720 N.pl3 349  ARG349      0.1354
    159  NH2      -51.1410   24.5630   25.4870 N.pl3 349  ARG349      0.1354
    160  N        -56.9430   27.2350   25.0660 N.3   362  GLU362     -0.1245
    161  CA       -57.1630   25.9870   25.7760 C.3   362  GLU362      0.1567
    162  C        -57.8270   26.3230   27.1090 C.2   362  GLU362      0.2260
    163  O        -57.2870   27.1000   27.9020 O.2   362  GLU362     -0.2867
    164  CB       -55.8310   25.2540   25.9710 C.3   362  GLU362      0.0388
    165  CG       -55.8420   23.9200   26.7390 C.3   362  GLU362      0.1160
    166  CD       -54.4280   23.3770   26.9480 C.2   362  GLU362      0.3649
    167  OE1      -54.0920   22.3180   26.3860 O.co2 362  GLU362     -0.2457
    168  OE2      -53.6280   24.0190   27.6620 O.co2 362  GLU362     -0.2457
    169  N        -58.2490   24.6320   30.4380 N.3   364  ARG364     -0.1245
    170  CA       -57.6530   23.4730   31.0970 C.3   364  ARG364      0.1563
    171  C        -58.4950   22.9110   32.2280 C.2   364  ARG364      0.2260
    172  O        -58.1810   21.8220   32.7060 O.2   364  ARG364     -0.2867
    173  CB       -56.2680   23.7800   31.6720 C.3   364  ARG364      0.0307
    174  CG       -55.2560   24.2690   30.6660 C.3   364  ARG364      0.0489
    175  CD       -53.8540   24.3590   31.2840 C.3   364  ARG364      0.2205
    176  NE       -52.9340   23.6340   30.4170 N.pl3 364  ARG364     -0.0865
    177  CZ       -52.3400   22.4800   30.7110 C.cat 364  ARG364      0.5346
    178  NH1      -52.5000   21.8940   31.8930 N.pl3 364  ARG364      0.1354
    179  NH2      -51.5590   21.9230   29.8040 N.pl3 364  ARG364      0.1354
@<TRIPOS>BOND
     1    31    32    1
     2    69    68    2
     3    38    40   ar
     4    38    36   ar
     5    32    35    1
     6    32    33    1
     7    68    67    1
     8    35    36    1
     9     6     7    1
    10     6     5    1
    11     9     7   ar
    12     1     2    1
    13    40    39   ar
    14    36    37   ar
    15     2     5    1
    16     2     3    1
    17     7     8   ar
    18    74    72   ar
    19    71    72    1
    20    71    70    1
    21    33    34    2
    22   160   161    1
    23   158   157    1
    24    67    70    1
    25    67    66    1
    26    94    93    2
    27   159   157    1
    28    72    73   ar
    29    39    37   ar
    30     3     4    2
    31   161   164    1
    32   161   162    1
    33   157   156    2
    34   164   165    1
    35    30    29    1
    36   152   151    2
    37   167   166   ar
    38    93    92    1
    39   148   146    1
    40   165   166    1
    41   151   150    1
    42   166   168   ar
    43   156   155    1
    44   162   163    2
    45    29    27   ar
    46    29    28   ar
    47    95    92    1
    48    95    96    1
    49    27    25   ar
    50    92    91    1
    51   154   155    1
    52   154   153    1
    53   146   147    1
    54   146   145    2
    55    28    26   ar
    56    10    11    1
    57    49    47   ar
    58   150   153    1
    59   150   149    1
    60    25    24   ar
    61    97    96   ar
    62    97    99   ar
    63    96    98   ar
    64    11    12    1
    65    11    14    1
    66    41    42    1
    67   145   144    1
    68    26    24   ar
    69    15    14    1
    70    15    16    1
    71    24    23    1
    72    47    48   ar
    73    47    46    1
    74    12    13    2
    75    60    59    2
    76    17    16   ar
    77    42    45    1
    78    42    43    1
    79    45    46    1
    80   179   177    1
    81    21    20    1
    82    21    22    2
    83    99   100   ar
    84    98   100   ar
    85    16    18   ar
    86    59    58    1
    87    20    23    1
    88    20    19    1
    89    90    89    2
    90   144   143    1
    91   176   177    2
    92   176   175    1
    93   169   170    1
    94   174   175    1
    95   174   173    1
    96   177   178    1
    97   143   142    1
    98    89    88    1
    99    43    44    2
   100    43    50   am
   101   170   173    1
   102   170   171    1
   103    58    61    1
   104    58    57    1
   105    50    51    1
   106    88    87    1
   107   138   139    1
   108   142   139    1
   109    61    62    1
   110   171   172    2
   111    62    63    1
   112   139   140    1
   113    64    63    2
   114    63    65   am
   115    56    54    1
   116   132   130   ar
   117    51    54    1
   118    51    52    1
   119    54    55    1
   120   130   131   ar
   121   130   129    1
   122   140   141    2
   123    52    53    2
   124   111   109    1
   125   127   126    2
   126   129   128    1
   127   128   125    1
   128    86    85    2
   129   109   108    2
   130   109   110    1
   131    82    80   am
   132   108   107    1
   133    85    84    1
   134   126   125    1
   135   126   133   am
   136   125   124    1
   137    79    80    1
   138    79    76    1
   139    80    81    2
   140   107   106    1
   141   134   133    1
   142   134   135    1
   143   134   137    1
   144   115   114    2
   145    84    83    1
   146    78    77    2
   147   124   114   am
   148   135   136    2
   149    77    83   am
   150    77    76    1
   151   114   113    1
   152    76    75    1
   153   106   105    1
   154   113   116    1
   155   113   112    1
   156   105   102    1
   157   116   117    1
   158   104   103    2
   159   102   103    1
   160   102   101    1
   161   117   118   ar
   162   117   119   ar
   163   118   120   ar
   164   119   121   ar
   165   120   122   ar
   166   121   122   ar
   167   122   123    1
