@<TRIPOS>MOLECULE
tmp/5zlpH01.pdb
 168 157 0 0 0
SMALL
GASTEIGER

@<TRIPOS>ATOM
      1  N        -10.5290  -41.1270   24.3520 N.3   136  GLU136     -0.1245
      2  CA       -11.8470  -41.6910   24.6380 C.3   136  GLU136      0.1567
      3  C        -12.3790  -40.8890   25.8160 C.2   136  GLU136      0.2260
      4  O        -11.9920  -41.1640   26.9550 O.2   136  GLU136     -0.2867
      5  CB       -11.7620  -43.1730   25.0230 C.3   136  GLU136      0.0388
      6  CG       -11.7450  -44.2400   23.9240 C.3   136  GLU136      0.1160
      7  CD       -12.0400  -45.6750   24.4640 C.2   136  GLU136      0.3649
      8  OE1      -12.6890  -46.4700   23.7340 O.co2 136  GLU136     -0.2457
      9  OE2      -11.6310  -46.0110   25.6090 O.co2 136  GLU136     -0.2457
     10  N        -15.0970  -40.4600   28.2390 N.3   138  GLU138     -0.1245
     11  CA       -16.3360  -40.8450   28.9040 C.3   138  GLU138      0.1567
     12  C        -17.0830  -39.5990   29.3780 C.2   138  GLU138      0.2260
     13  O        -16.4840  -38.5590   29.6420 O.2   138  GLU138     -0.2867
     14  CB       -16.0250  -41.7870   30.0730 C.3   138  GLU138      0.0388
     15  CG       -16.3470  -43.2400   29.7480 C.3   138  GLU138      0.1160
     16  CD       -15.3450  -44.2710   30.2780 C.2   138  GLU138      0.3649
     17  OE1      -14.6160  -43.9780   31.2580 O.co2 138  GLU138     -0.2457
     18  OE2      -15.2990  -45.3840   29.6890 O.co2 138  GLU138     -0.2457
     19  N        -23.5510  -51.1900   31.3000 N.3   187  TYR187     -0.1241
     20  CA       -22.8150  -51.7970   30.1890 C.3   187  TYR187      0.1605
     21  C        -23.3390  -53.2130   29.9330 C.2   187  TYR187      0.2264
     22  O        -23.0850  -54.1130   30.7580 O.2   187  TYR187     -0.2867
     23  CB       -21.3260  -51.8270   30.5120 C.3   187  TYR187      0.0534
     24  CG       -20.3640  -52.0290   29.3640 C.ar  187  TYR187     -0.0201
     25  CD1      -20.0180  -53.2930   28.9320 C.ar  187  TYR187     -0.0009
     26  CD2      -19.7390  -50.9440   28.7580 C.ar  187  TYR187     -0.0009
     27  CE1      -19.0980  -53.4670   27.8940 C.ar  187  TYR187      0.0417
     28  CE2      -18.8390  -51.1100   27.7140 C.ar  187  TYR187      0.0417
     29  CZ       -18.5140  -52.3690   27.2870 C.ar  187  TYR187      0.1957
     30  OH       -17.6060  -52.5280   26.2450 O.3   187  TYR187     -0.2866
     31  N        -21.6850  -45.9370   22.6360 N.3   218  HIS218     -0.1241
     32  CA       -22.2190  -46.9300   23.5720 C.3   218  HIS218      0.1621
     33  C        -22.4040  -46.3270   24.9580 C.2   218  HIS218      0.2264
     34  O        -21.6200  -45.4660   25.3770 O.2   218  HIS218     -0.2867
     35  CB       -21.3170  -48.1860   23.6480 C.3   218  HIS218      0.0745
     36  CG       -20.0200  -47.9960   24.3850 C.ar  218  HIS218      0.0817
     37  ND1      -18.7910  -48.1030   23.7650 N.ar  218  HIS218     -0.2268
     38  CD2      -19.7550  -47.7580   25.6950 C.ar  218  HIS218      0.1154
     39  CE1      -17.8300  -47.9120   24.6520 C.ar  218  HIS218      0.1986
     40  NE2      -18.3890  -47.7020   25.8320 N.ar  218  HIS218     -0.2212
     41  N        -22.0020  -46.5250   28.9790 N.3   220  GLU220     -0.1231
     42  CA       -20.8620  -46.9930   29.7710 C.3   220  GLU220      0.1699
     43  C        -21.3360  -47.5310   31.1250 C.2   220  GLU220      0.2592
     44  O        -22.5250  -47.5030   31.4430 O.2   220  GLU220     -0.2718
     45  CB       -19.8330  -45.8750   29.9400 C.3   220  GLU220      0.0402
     46  CG       -18.7120  -45.9050   28.9330 C.3   220  GLU220      0.1161
     47  CD       -17.7220  -47.0240   29.2070 C.2   220  GLU220      0.3649
     48  OE1      -17.5340  -47.3720   30.3990 O.co2 220  GLU220     -0.2457
     49  OE2      -17.1320  -47.5580   28.2410 O.co2 220  GLU220     -0.2457
     50  N        -20.3760  -47.9800   31.9420 N.am  221  VAL221     -0.1980
     51  CA       -20.6830  -48.8080   33.1160 C.3   221  VAL221      0.1595
     52  C        -21.5530  -48.0620   34.1350 C.2   221  VAL221      0.2287
     53  O        -22.4710  -48.6450   34.7350 O.2   221  VAL221     -0.2864
     54  CB       -19.3830  -49.3210   33.7690 C.3   221  VAL221      0.0276
     55  CG1      -19.7010  -50.1880   34.9860 C.3   221  VAL221      0.0022
     56  CG2      -18.5040  -50.0770   32.7640 C.3   221  VAL221      0.0022
     57  N        -23.8750  -42.8640   32.1000 N.3   225  GLN225     -0.1245
     58  CA       -22.6060  -42.6090   31.4460 C.3   225  GLN225      0.1566
     59  C        -22.6520  -42.9910   29.9520 C.2   225  GLN225      0.2260
     60  O        -23.6330  -43.5320   29.4430 O.2   225  GLN225     -0.2867
     61  CB       -21.4930  -43.3370   32.2140 C.3   225  GLN225      0.0367
     62  CG       -20.2230  -42.5070   32.3230 C.3   225  GLN225      0.0905
     63  CD       -19.0550  -43.2430   32.9000 C.2   225  GLN225      0.2608
     64  OE1      -19.0540  -44.4510   33.0210 O.2   225  GLN225     -0.2717
     65  NE2      -18.0460  -42.5060   33.2710 N.am  225  GLN225     -0.0878
     66  N        -20.0920  -42.8750   25.9160 N.3   227  GLU227     -0.1245
     67  CA       -18.8130  -42.8000   25.2280 C.3   227  GLU227      0.1567
     68  C        -19.0050  -42.7480   23.7070 C.2   227  GLU227      0.2260
     69  O        -19.8710  -43.4350   23.1430 O.2   227  GLU227     -0.2867
     70  CB       -17.9490  -43.9960   25.6260 C.3   227  GLU227      0.0388
     71  CG       -16.5060  -43.8500   25.2730 C.3   227  GLU227      0.1160
     72  CD       -15.7210  -45.0800   25.6640 C.2   227  GLU227      0.3649
     73  OE1      -15.1360  -45.7260   24.7570 O.co2 227  GLU227     -0.2457
     74  OE2      -15.7130  -45.4170   26.8810 O.co2 227  GLU227     -0.2457
     75  N        -18.6150  -46.2430   38.4950 N.3   271  ASN271     -0.1225
     76  CA       -17.4730  -45.9830   37.6280 C.3   271  ASN271      0.1785
     77  C        -17.2720  -44.4860   37.4060 C.2   271  ASN271      0.2597
     78  O        -18.2230  -43.7460   37.1610 O.2   271  ASN271     -0.2718
     79  CB       -17.6760  -46.6910   36.2860 C.3   271  ASN271      0.1169
     80  CG       -17.0720  -48.1040   36.2560 C.2   271  ASN271      0.2627
     81  OD1      -16.9700  -48.7980   37.2830 O.2   271  ASN271     -0.2716
     82  ND2      -16.6470  -48.5250   35.0660 N.am  271  ASN271     -0.0877
     83  N        -16.0300  -44.0330   37.4950 N.am  272  GLY272     -0.1957
     84  CA       -15.6950  -42.7090   37.0220 C.3   272  GLY272      0.1869
     85  C        -15.6360  -42.6480   35.4870 C.2   272  GLY272      0.2309
     86  O        -15.8520  -43.6320   34.7760 O.2   272  GLY272     -0.2863
     87  N        -13.0420  -41.8060   32.3670 N.3   274  GLY274     -0.1225
     88  CA       -11.6720  -41.6510   31.9440 C.3   274  GLY274      0.1811
     89  C        -11.5080  -40.8310   30.6650 C.2   274  GLY274      0.2280
     90  O        -12.4480  -40.5980   29.9090 O.2   274  GLY274     -0.2866
     91  N         -9.0900  -42.1940   28.4660 N.3   276  HIS276     -0.1241
     92  CA        -8.2010  -43.1650   27.8430 C.3   276  HIS276      0.1621
     93  C         -7.5890  -42.5720   26.6020 C.2   276  HIS276      0.2264
     94  O         -8.2870  -42.2970   25.6270 O.2   276  HIS276     -0.2867
     95  CB        -8.9560  -44.4310   27.4670 C.3   276  HIS276      0.0745
     96  CG        -9.7340  -45.0210   28.5900 C.ar  276  HIS276      0.0817
     97  ND1      -10.6800  -45.9940   28.3940 N.ar  276  HIS276     -0.2268
     98  CD2       -9.7060  -44.7770   29.9200 C.ar  276  HIS276      0.1154
     99  CE1      -11.2010  -46.3290   29.5570 C.ar  276  HIS276      0.1986
    100  NE2      -10.6270  -45.6060   30.4980 N.ar  276  HIS276     -0.2212
    101  N        -11.5250  -40.8400   41.3700 N.3   328  ARG328     -0.1245
    102  CA       -11.5800  -41.8030   40.2820 C.3   328  ARG328      0.1563
    103  C        -10.5070  -42.8930   40.4000 C.2   328  ARG328      0.2260
    104  O        -10.6520  -43.9700   39.8140 O.2   328  ARG328     -0.2867
    105  CB       -11.4310  -41.0440   38.9790 C.3   328  ARG328      0.0307
    106  CG       -11.8280  -41.8200   37.7650 C.3   328  ARG328      0.0489
    107  CD       -11.2740  -41.1310   36.5490 C.3   328  ARG328      0.2205
    108  NE       -10.9390  -42.0800   35.4990 N.pl3 328  ARG328     -0.0865
    109  CZ        -9.7260  -42.2000   34.9510 C.cat 328  ARG328      0.5346
    110  NH1       -8.7210  -41.4310   35.3430 N.pl3 328  ARG328      0.1354
    111  NH2       -9.5260  -43.0780   33.9930 N.pl3 328  ARG328      0.1354
    112  N        -13.1160  -49.8530   39.8860 N.3   333  TYR333     -0.1227
    113  CA       -13.9090  -49.2440   38.8230 C.3   333  TYR333      0.1736
    114  C        -13.0820  -49.0750   37.5700 C.2   333  TYR333      0.2595
    115  O        -13.1800  -48.0560   36.8740 O.2   333  TYR333     -0.2718
    116  CB       -14.4820  -47.8960   39.2370 C.3   333  TYR333      0.0548
    117  CG       -14.9780  -47.8630   40.6520 C.ar  333  TYR333     -0.0200
    118  CD1      -16.2060  -48.4080   40.9860 C.ar  333  TYR333     -0.0009
    119  CD2      -14.2050  -47.2970   41.6590 C.ar  333  TYR333     -0.0009
    120  CE1      -16.6480  -48.3910   42.2600 C.ar  333  TYR333      0.0417
    121  CE2      -14.6430  -47.2680   42.9380 C.ar  333  TYR333      0.0417
    122  CZ       -15.8740  -47.8170   43.2340 C.ar  333  TYR333      0.1957
    123  OH       -16.3530  -47.7990   44.5190 O.3   333  TYR333     -0.2866
    124  N        -12.2600  -50.0790   37.2660 N.am  334  GLU334     -0.1965
    125  CA       -11.6340  -50.2000   35.9610 C.3   334  GLU334      0.1733
    126  C        -10.8560  -48.9420   35.5980 C.2   334  GLU334      0.2616
    127  O        -10.7880  -48.5560   34.4270 O.2   334  GLU334     -0.2715
    128  CB       -12.6800  -50.5380   34.8940 C.3   334  GLU334      0.0429
    129  CG       -13.7330  -51.5270   35.3940 C.3   334  GLU334      0.1163
    130  CD       -14.6270  -52.0870   34.2850 C.2   334  GLU334      0.3649
    131  OE1      -14.2410  -51.9590   33.0910 O.co2 334  GLU334     -0.2457
    132  OE2      -15.7060  -52.6630   34.6240 O.co2 334  GLU334     -0.2457
    133  N        -10.2860  -48.2910   36.6130 N.am  335  ALA335     -0.1977
    134  CA        -9.3820  -47.1560   36.5040 C.3   335  ALA335      0.1597
    135  C         -8.1000  -47.4580   37.2680 C.2   335  ALA335      0.2287
    136  O         -8.1510  -47.9950   38.3810 O.2   335  ALA335     -0.2864
    137  CB       -10.0170  -45.8750   37.0480 C.3   335  ALA335      0.0319
    138  N         -7.5370  -54.3500   32.3680 N.3   346  ARG346     -0.1245
    139  CA        -8.1140  -53.0450   32.6330 C.3   346  ARG346      0.1563
    140  C         -7.9250  -52.6050   34.0800 C.2   346  ARG346      0.2260
    141  O         -8.5030  -51.5970   34.5020 O.2   346  ARG346     -0.2867
    142  CB        -9.5910  -53.0510   32.2260 C.3   346  ARG346      0.0307
    143  CG        -9.7150  -53.1850   30.7090 C.3   346  ARG346      0.0489
    144  CD       -11.1320  -53.1730   30.2220 C.3   346  ARG346      0.2205
    145  NE       -11.2890  -52.5870   28.8860 N.pl3 346  ARG346     -0.0865
    146  CZ       -11.3980  -53.2990   27.7690 C.cat 346  ARG346      0.5346
    147  NH1      -11.3350  -54.6170   27.8320 N.pl3 346  ARG346      0.1354
    148  NH2      -11.5840  -52.7020   26.5990 N.pl3 346  ARG346      0.1354
    149  N         -2.5850  -47.6880   25.4130 N.3   364  GLU364     -0.1245
    150  CA        -3.7500  -46.9870   25.9480 C.3   364  GLU364      0.1567
    151  C         -3.4600  -46.6120   27.3820 C.2   364  GLU364      0.2260
    152  O         -3.5220  -47.4650   28.2730 O.2   364  GLU364     -0.2867
    153  CB        -4.9880  -47.8440   25.8880 C.3   364  GLU364      0.0388
    154  CG        -6.2320  -47.0910   26.2680 C.3   364  GLU364      0.1160
    155  CD        -7.1980  -47.9650   26.9060 C.2   364  GLU364      0.3649
    156  OE1       -6.7360  -48.8520   27.6400 O.co2 364  GLU364     -0.2457
    157  OE2       -8.4230  -47.8160   26.6690 O.co2 364  GLU364     -0.2457
    158  N         -4.5470  -45.2640   30.6520 N.3   366  ARG366     -0.1245
    159  CA        -5.9120  -45.2030   31.1420 C.3   366  ARG366      0.1563
    160  C         -6.0750  -44.1670   32.2260 C.2   366  ARG366      0.2260
    161  O         -7.1910  -43.6820   32.4410 O.2   366  ARG366     -0.2867
    162  CB        -6.3660  -46.5790   31.6350 C.3   366  ARG366      0.0307
    163  CG        -6.1560  -47.6550   30.5770 C.3   366  ARG366      0.0489
    164  CD        -6.7630  -48.9720   30.9380 C.3   366  ARG366      0.2205
    165  NE        -8.1380  -49.0620   30.4790 N.pl3 366  ARG366     -0.0865
    166  CZ        -9.1490  -49.2060   31.3120 C.cat 366  ARG366      0.5346
    167  NH1       -8.8880  -49.2860   32.6080 N.pl3 366  ARG366      0.1354
    168  NH2      -10.3940  -49.2810   30.8660 N.pl3 366  ARG366      0.1354
@<TRIPOS>BOND
     1    31    32    1
     2    69    68    2
     3    32    35    1
     4    32    33    1
     5    35    36    1
     6    68    67    1
     7     8     7   ar
     8    37    36   ar
     9    37    39   ar
    10     6     7    1
    11     6     5    1
    12     1     2    1
    13    36    38   ar
    14     7     9   ar
    15     2     5    1
    16     2     3    1
    17    39    40   ar
    18    73    72   ar
    19    33    34    2
    20    67    70    1
    21    67    66    1
    22    71    70    1
    23    71    72    1
    24   149   150    1
    25    94    93    2
    26    72    74   ar
    27    38    40   ar
    28     3     4    2
    29   153   150    1
    30   153   154    1
    31   150   151    1
    32    30    29    1
    33   154   155    1
    34   148   146    1
    35    93    92    1
    36   157   155   ar
    37   155   156   ar
    38    29    28   ar
    39    29    27   ar
    40   151   152    2
    41    95    92    1
    42    95    96    1
    43    28    26   ar
    44   146   147    1
    45   146   145    2
    46    92    91    1
    47    27    25   ar
    48    10    11    1
    49    49    47   ar
    50    97    96   ar
    51    97    99   ar
    52    96    98   ar
    53    26    24   ar
    54   145   144    1
    55    11    12    1
    56    11    14    1
    57    25    24   ar
    58    46    47    1
    59    46    45    1
    60    41    42    1
    61    47    48   ar
    62    24    23    1
    63    12    13    2
    64    60    59    2
    65    99   100   ar
    66    18    16   ar
    67    15    14    1
    68    15    16    1
    69    42    45    1
    70    42    43    1
    71    90    89    2
    72    98   100   ar
    73    21    20    1
    74    21    22    2
    75    59    58    1
    76    20    23    1
    77    20    19    1
    78   144   143    1
    79    16    17   ar
    80   165   164    1
    81   165   166    2
    82   163   164    1
    83   163   162    1
    84   158   159    1
    85    89    88    1
    86   143   142    1
    87   168   166    1
    88    43    44    2
    89    43    50   am
    90   159   162    1
    91   159   160    1
    92   166   167    1
    93    58    57    1
    94    58    61    1
    95    50    51    1
    96    88    87    1
    97    61    62    1
    98   142   139    1
    99   160   161    2
   100    62    63    1
   101   138   139    1
   102   139   140    1
   103    56    54    1
   104    63    64    2
   105    63    65   am
   106   131   130   ar
   107    51    54    1
   108    51    52    1
   109    54    55    1
   110   111   109    1
   111   140   141    2
   112    52    53    2
   113   130   132   ar
   114   130   129    1
   115   127   126    2
   116    86    85    2
   117   128   129    1
   118   128   125    1
   119   109   110    1
   120   109   108    2
   121    82    80   am
   122    85    84    1
   123   108   107    1
   124   126   125    1
   125   126   133   am
   126   125   124    1
   127    80    79    1
   128    80    81    2
   129    79    76    1
   130   134   133    1
   131   134   137    1
   132   134   135    1
   133   107   106    1
   134   115   114    2
   135    84    83    1
   136    78    77    2
   137   124   114   am
   138   135   136    2
   139    77    83   am
   140    77    76    1
   141   114   113    1
   142    76    75    1
   143   106   105    1
   144   113   116    1
   145   113   112    1
   146   105   102    1
   147   116   117    1
   148   104   103    2
   149   102   103    1
   150   102   101    1
   151   117   118   ar
   152   117   119   ar
   153   118   120   ar
   154   119   121   ar
   155   120   122   ar
   156   121   122   ar
   157   122   123    1
