@<TRIPOS>MOLECULE
tmp/5zlpH00.pdb
 188 183 0 0 0
SMALL
GASTEIGER

@<TRIPOS>ATOM
      1  N          0.4290  -39.8930   16.9400 N.3   132  TYR132     -0.1241
      2  CA        -1.0050  -40.0130   16.7930 C.3   132  TYR132      0.1605
      3  C         -1.6390  -40.2910   18.1500 C.2   132  TYR132      0.2264
      4  O         -1.2820  -41.2680   18.8230 O.2   132  TYR132     -0.2867
      5  CB        -1.3170  -41.1130   15.7890 C.3   132  TYR132      0.0534
      6  CG        -1.1420  -40.6560   14.3580 C.ar  132  TYR132     -0.0201
      7  CD1       -1.7260  -39.4770   13.9050 C.ar  132  TYR132     -0.0009
      8  CD2       -0.3790  -41.4050   13.4520 C.ar  132  TYR132     -0.0009
      9  CE1       -1.5580  -39.0670   12.5850 C.ar  132  TYR132      0.0417
     10  CE2       -0.2130  -40.9990   12.1190 C.ar  132  TYR132      0.0417
     11  CZ        -0.7990  -39.8330   11.7020 C.ar  132  TYR132      0.1957
     12  OH        -0.6300  -39.4320   10.4020 O.3   132  TYR132     -0.2866
     13  N         -5.1900  -40.8360   20.3880 N.3   134  GLY134     -0.1210
     14  CA        -6.5840  -41.2130   20.3310 C.3   134  GLY134      0.1956
     15  C         -7.2380  -41.1150   21.6920 C.2   134  GLY134      0.2612
     16  O         -6.9080  -41.8900   22.5940 O.2   134  GLY134     -0.2717
     17  N         -8.1750  -40.1800   21.8570 N.am  135  ALA135     -0.1965
     18  CA        -8.8080  -39.9190   23.1440 C.3   135  ALA135      0.1728
     19  C        -10.2060  -40.5270   23.2130 C.2   135  ALA135      0.2616
     20  O        -10.9700  -40.4630   22.2520 O.2   135  ALA135     -0.2715
     21  CB        -8.8760  -38.4180   23.4020 C.3   135  ALA135      0.0334
     22  N        -10.5290  -41.1270   24.3520 N.am  136  GLU136     -0.1977
     23  CA       -11.8470  -41.6910   24.6380 C.3   136  GLU136      0.1602
     24  C        -12.3790  -40.8890   25.8160 C.2   136  GLU136      0.2287
     25  O        -11.9920  -41.1640   26.9550 O.2   136  GLU136     -0.2864
     26  CB       -11.7620  -43.1730   25.0230 C.3   136  GLU136      0.0415
     27  CG       -11.7450  -44.2400   23.9240 C.3   136  GLU136      0.1163
     28  CD       -12.0400  -45.6750   24.4640 C.2   136  GLU136      0.3649
     29  OE1      -12.6890  -46.4700   23.7340 O.co2 136  GLU136     -0.2457
     30  OE2      -11.6310  -46.0110   25.6090 O.co2 136  GLU136     -0.2457
     31  N        -16.5140  -43.8620   15.1470 N.3   215  PHE215     -0.1227
     32  CA       -16.9040  -45.2460   14.8940 C.3   215  PHE215      0.1736
     33  C        -17.9080  -45.7380   15.9330 C.2   215  PHE215      0.2595
     34  O        -19.0570  -46.0040   15.5710 O.2   215  PHE215     -0.2718
     35  CB       -15.6970  -46.1890   14.7570 C.3   215  PHE215      0.0547
     36  CG       -14.7060  -46.0810   15.8540 C.ar  215  PHE215     -0.0202
     37  CD1      -14.7900  -46.9040   16.9720 C.ar  215  PHE215     -0.0042
     38  CD2      -13.6670  -45.1560   15.7740 C.ar  215  PHE215     -0.0042
     39  CE1      -13.8640  -46.7970   18.0280 C.ar  215  PHE215     -0.0003
     40  CE2      -12.7370  -45.0400   16.8110 C.ar  215  PHE215     -0.0003
     41  CZ       -12.8360  -45.8700   17.9560 C.ar  215  PHE215     -0.0000
     42  N        -17.5390  -45.8630   17.2040 N.am  216  VAL216     -0.1980
     43  CA       -18.3630  -46.5830   18.1720 C.3   216  VAL216      0.1595
     44  C        -19.1090  -45.5920   19.0490 C.2   216  VAL216      0.2287
     45  O        -18.5830  -44.5300   19.4030 O.2   216  VAL216     -0.2864
     46  CB       -17.5060  -47.5400   19.0250 C.3   216  VAL216      0.0276
     47  CG1      -16.6190  -46.7520   19.9760 C.3   216  VAL216      0.0022
     48  CG2      -18.3950  -48.5490   19.7840 C.3   216  VAL216      0.0022
     49  N        -13.8040  -41.6510   18.5920 N.3   230  VAL230     -0.1231
     50  CA       -13.3910  -40.6540   17.6170 C.3   230  VAL230      0.1692
     51  C        -12.0710  -41.1040   16.9900 C.2   230  VAL230      0.2592
     52  O        -11.1260  -41.4660   17.7080 O.2   230  VAL230     -0.2718
     53  CB       -13.2550  -39.2760   18.2840 C.3   230  VAL230      0.0266
     54  CG1      -12.9580  -38.2200   17.2250 C.3   230  VAL230      0.0020
     55  CG2      -14.5010  -38.9740   19.0680 C.3   230  VAL230      0.0020
     56  N        -12.0120  -41.0790   15.6590 N.am  231  LYS231     -0.1966
     57  CA       -10.7730  -41.3340   14.9370 C.3   231  LYS231      0.1728
     58  C         -9.6240  -40.5250   15.5270 C.2   231  LYS231      0.2616
     59  O         -9.7960  -39.3680   15.9240 O.2   231  LYS231     -0.2715
     60  CB       -10.9420  -40.9840   13.4560 C.3   231  LYS231      0.0311
     61  CG       -10.1380  -41.8690   12.5230 C.3   231  LYS231      0.0038
     62  CD        -8.6470  -41.5140   12.4950 C.3   231  LYS231      0.0206
     63  CE        -7.8710  -42.4510   11.5640 C.3   231  LYS231      0.1093
     64  NZ        -8.1410  -43.8930   11.8790 N.3   231  LYS231     -0.1314
     65  N         -8.4500  -41.1530   15.5780 N.am  232  PHE232     -0.1974
     66  CA        -7.2810  -40.5400   16.1700 C.3   232  PHE232      0.1639
     67  C         -6.7180  -39.4810   15.2300 C.2   232  PHE232      0.2290
     68  O         -6.7880  -39.6070   14.0040 O.2   232  PHE232     -0.2864
     69  CB        -6.2300  -41.6070   16.4820 C.3   232  PHE232      0.0560
     70  CG        -5.6490  -42.2580   15.2570 C.ar  232  PHE232     -0.0200
     71  CD1       -4.5350  -41.7220   14.6210 C.ar  232  PHE232     -0.0042
     72  CD2       -6.2220  -43.4010   14.7230 C.ar  232  PHE232     -0.0042
     73  CE1       -4.0090  -42.3150   13.4920 C.ar  232  PHE232     -0.0003
     74  CE2       -5.6910  -44.0000   13.5920 C.ar  232  PHE232     -0.0003
     75  CZ        -4.5930  -43.4570   12.9830 C.ar  232  PHE232     -0.0000
     76  N         -5.0170  -43.2980   23.6350 N.3   278  HIS278     -0.1226
     77  CA        -4.2170  -44.1940   22.8010 C.3   278  HIS278      0.1752
     78  C         -3.1430  -43.4000   22.0400 C.2   278  HIS278      0.2596
     79  O         -3.4230  -42.3220   21.5050 O.2   278  HIS278     -0.2718
     80  CB        -5.1270  -44.9650   21.8360 C.3   278  HIS278      0.0759
     81  CG        -6.2070  -45.7530   22.5230 C.ar  278  HIS278      0.0818
     82  ND1       -6.3830  -47.1070   22.3300 N.ar  278  HIS278     -0.2268
     83  CD2       -7.1670  -45.3780   23.4030 C.ar  278  HIS278      0.1154
     84  CE1       -7.4000  -47.5320   23.0600 C.ar  278  HIS278      0.1986
     85  NE2       -7.8990  -46.5000   23.7140 N.ar  278  HIS278     -0.2212
     86  N         -1.9090  -43.9230   22.0040 N.am  279  VAL279     -0.1966
     87  CA        -0.7500  -43.1850   21.4950 C.3   279  VAL279      0.1727
     88  C         -0.0030  -44.0290   20.4670 C.2   279  VAL279      0.2616
     89  O          0.1070  -45.2430   20.6320 O.2   279  VAL279     -0.2715
     90  CB         0.1900  -42.7990   22.6520 C.3   279  VAL279      0.0290
     91  CG1        1.3940  -42.1180   22.1340 C.3   279  VAL279      0.0023
     92  CG2       -0.5060  -41.8930   23.5890 C.3   279  VAL279      0.0023
     93  N          0.5110  -43.4000   19.4090 N.am  280  SER280     -0.1950
     94  CA         1.4500  -44.1000   18.5340 C.3   280  SER280      0.1924
     95  C          2.3280  -43.0920   17.7990 C.2   280  SER280      0.2314
     96  O          1.9170  -41.9750   17.5300 O.2   280  SER280     -0.2863
     97  CB         0.7270  -45.0120   17.5350 C.3   280  SER280      0.2116
     98  OG         0.1400  -44.2750   16.4880 O.3   280  SER280     -0.2180
     99  N          4.8400  -42.2530   14.4750 N.3   282  TRP282     -0.1241
    100  CA         5.0540  -42.6680   13.0990 C.3   282  TRP282      0.1605
    101  C          6.2300  -41.9290   12.4860 C.2   282  TRP282      0.2264
    102  O          6.4640  -40.7670   12.8080 O.2   282  TRP282     -0.2867
    103  CB         3.8170  -42.4030   12.2900 C.3   282  TRP282      0.0550
    104  CG         2.7200  -43.2640   12.7150 C.ar  282  TRP282      0.0003
    105  CD1        2.1720  -43.3570   13.9640 C.ar  282  TRP282      0.0946
    106  CD2        2.0260  -44.1840   11.8990 C.ar  282  TRP282      0.0152
    107  NE1        1.1780  -44.2940   13.9690 N.ar  282  TRP282     -0.2442
    108  CE2        1.0630  -44.8170   12.7120 C.ar  282  TRP282      0.0810
    109  CE3        2.1270  -44.5460   10.5540 C.ar  282  TRP282      0.0012
    110  CZ2        0.1990  -45.7770   12.2250 C.ar  282  TRP282      0.0191
    111  CZ3        1.2580  -45.4990   10.0630 C.ar  282  TRP282      0.0001
    112  CH2        0.3040  -46.1030   10.8960 C.ar  282  TRP282      0.0015
    113  N          4.3860  -47.2340   11.4290 N.3   287  ASN287     -0.1240
    114  CA         4.1400  -47.1260   12.8590 C.3   287  ASN287      0.1653
    115  C          5.3420  -47.6880   13.6180 C.2   287  ASN287      0.2266
    116  O          5.5580  -48.9020   13.6380 O.2   287  ASN287     -0.2867
    117  CB         2.8530  -47.8690   13.1860 C.3   287  ASN287      0.1155
    118  CG         2.4690  -47.7530   14.6240 C.2   287  ASN287      0.2627
    119  OD1        3.2410  -47.2910   15.4460 O.2   287  ASN287     -0.2716
    120  ND2        1.2600  -48.1800   14.9440 N.am  287  ASN287     -0.0877
    121  N         -7.5370  -54.3500   32.3680 N.3   346  ARG346     -0.1245
    122  CA        -8.1140  -53.0450   32.6330 C.3   346  ARG346      0.1563
    123  C         -7.9250  -52.6050   34.0800 C.2   346  ARG346      0.2260
    124  O         -8.5030  -51.5970   34.5020 O.2   346  ARG346     -0.2867
    125  CB        -9.5910  -53.0510   32.2260 C.3   346  ARG346      0.0307
    126  CG        -9.7150  -53.1850   30.7090 C.3   346  ARG346      0.0489
    127  CD       -11.1320  -53.1730   30.2220 C.3   346  ARG346      0.2205
    128  NE       -11.2890  -52.5870   28.8860 N.pl3 346  ARG346     -0.0865
    129  CZ       -11.3980  -53.2990   27.7690 C.cat 346  ARG346      0.5346
    130  NH1      -11.3350  -54.6170   27.8320 N.pl3 346  ARG346      0.1354
    131  NH2      -11.5840  -52.7020   26.5990 N.pl3 346  ARG346      0.1354
    132  N         -2.6870  -50.3570   28.8950 N.3   351  ARG351     -0.1245
    133  CA        -3.2870  -51.5770   28.3890 C.3   351  ARG351      0.1563
    134  C         -2.9510  -51.6950   26.9160 C.2   351  ARG351      0.2260
    135  O         -3.2900  -50.7980   26.1400 O.2   351  ARG351     -0.2867
    136  CB        -4.8020  -51.5790   28.5950 C.3   351  ARG351      0.0307
    137  CG        -5.5810  -52.4500   27.5750 C.3   351  ARG351      0.0489
    138  CD        -7.0840  -52.6370   27.8700 C.3   351  ARG351      0.2205
    139  NE        -7.7650  -53.1910   26.7030 N.pl3 351  ARG351     -0.0865
    140  CZ        -8.4750  -52.4630   25.8480 C.cat 351  ARG351      0.5346
    141  NH1       -8.6280  -51.1540   26.0450 N.pl3 351  ARG351      0.1354
    142  NH2       -9.0420  -53.0420   24.8060 N.pl3 351  ARG351      0.1354
    143  N         -4.0850  -53.2060   23.7470 N.3   353  PRO353     -0.2116
    144  CA        -5.3800  -53.7690   23.3360 C.3   353  PRO353      0.1372
    145  C         -5.2530  -54.8880   22.3110 C.2   353  PRO353      0.2244
    146  O         -4.2740  -55.0010   21.5690 O.2   353  PRO353     -0.2868
    147  CB        -6.1260  -52.5630   22.7540 C.3   353  PRO353      0.0268
    148  CG        -5.0670  -51.5810   22.3960 C.3   353  PRO353      0.0207
    149  CD        -3.9250  -51.7970   23.3530 C.3   353  PRO353      0.0892
    150  N         -0.8750  -51.6180   11.7500 N.3   359  ASN359     -0.1225
    151  CA        -1.4440  -50.2800   11.7800 C.3   359  ASN359      0.1785
    152  C         -1.8710  -49.8440   13.1670 C.2   359  ASN359      0.2598
    153  O         -1.7070  -48.6780   13.5180 O.2   359  ASN359     -0.2718
    154  CB        -2.6390  -50.1990   10.8360 C.3   359  ASN359      0.1169
    155  CG        -2.2570  -49.6530    9.4880 C.2   359  ASN359      0.2627
    156  OD1       -1.3400  -48.8420    9.3810 O.2   359  ASN359     -0.2716
    157  ND2       -2.9490  -50.0970    8.4430 N.am  359  ASN359     -0.0877
    158  N         -2.4040  -50.7490   13.9710 N.am  360  SER360     -0.1938
    159  CA        -3.0170  -50.3310   15.2160 C.3   360  SER360      0.2055
    160  C         -2.0620  -50.3610   16.4040 C.2   360  SER360      0.2643
    161  O         -2.4410  -49.8840   17.4710 O.2   360  SER360     -0.2714
    162  CB        -4.2480  -51.1940   15.4970 C.3   360  SER360      0.2130
    163  OG        -3.9810  -52.5440   15.1760 O.3   360  SER360     -0.2179
    164  N         -0.8360  -50.8630   16.2490 N.am  361  ALA361     -0.1963
    165  CA         0.0770  -50.9760   17.3880 C.3   361  ALA361      0.1728
    166  C          0.1490  -49.6670   18.1810 C.2   361  ALA361      0.2616
    167  O          0.5780  -48.6400   17.6590 O.2   361  ALA361     -0.2715
    168  CB         1.4740  -51.3910   16.8990 C.3   361  ALA361      0.0334
    169  N         -0.3140  -49.6910   19.4280 N.am  362  ARG362     -0.1977
    170  CA        -0.3460  -48.4990   20.2710 C.3   362  ARG362      0.1597
    171  C         -0.2650  -48.9360   21.7220 C.2   362  ARG362      0.2287
    172  O         -0.0850  -50.1150   22.0200 O.2   362  ARG362     -0.2864
    173  CB        -1.5930  -47.6420   20.0130 C.3   362  ARG362      0.0334
    174  CG        -2.9280  -48.2440   20.4490 C.3   362  ARG362      0.0492
    175  CD        -4.0080  -48.0870   19.3430 C.3   362  ARG362      0.2205
    176  NE        -5.3480  -48.4590   19.7910 N.pl3 362  ARG362     -0.0865
    177  CZ        -5.9060  -49.6580   19.6310 C.cat 362  ARG362      0.5346
    178  NH1       -5.2550  -50.6200   19.0100 N.pl3 362  ARG362      0.1354
    179  NH2       -7.1260  -49.8930   20.0950 N.pl3 362  ARG362      0.1354
    180  N         -2.5850  -47.6880   25.4130 N.3   364  GLU364     -0.1245
    181  CA        -3.7500  -46.9870   25.9480 C.3   364  GLU364      0.1567
    182  C         -3.4600  -46.6120   27.3820 C.2   364  GLU364      0.2260
    183  O         -3.5220  -47.4650   28.2730 O.2   364  GLU364     -0.2867
    184  CB        -4.9880  -47.8440   25.8880 C.3   364  GLU364      0.0388
    185  CG        -6.2320  -47.0910   26.2680 C.3   364  GLU364      0.1160
    186  CD        -7.1980  -47.9650   26.9060 C.2   364  GLU364      0.3649
    187  OE1       -6.7360  -48.8520   27.6400 O.co2 364  GLU364     -0.2457
    188  OE2       -8.4230  -47.8160   26.6690 O.co2 364  GLU364     -0.2457
@<TRIPOS>BOND
     1   157   155   am
     2   156   155    2
     3   155   154    1
     4   111   109   ar
     5   111   112   ar
     6    12    11    1
     7   109   106   ar
     8   154   151    1
     9   112   110   ar
    10   113   114    1
    11    63    64    1
    12    63    62    1
    13    11    10   ar
    14    11     9   ar
    15   150   151    1
    16   151   152    1
    17   106   108   ar
    18   106   104   ar
    19    10     8   ar
    20   110   108   ar
    21   103   104    1
    22   103   100    1
    23   101   102    2
    24   101   100    1
    25    62    61    1
    26    61    60    1
    27     9     7   ar
    28   108   107   ar
    29   104   105   ar
    30   114   117    1
    31   114   115    1
    32    75    73   ar
    33    75    74   ar
    34   100    99    1
    35   152   153    2
    36   152   158   am
    37   117   118    1
    38     8     6   ar
    39    60    57    1
    40    73    71   ar
    41    74    72   ar
    42   115   116    2
    43     7     6   ar
    44   105   107   ar
    45   158   159    1
    46    68    67    2
    47     6     5    1
    48    71    70   ar
    49   118   120   am
    50   118   119    2
    51    72    70   ar
    52    35    32    1
    53    35    36    1
    54    32    31    1
    55    32    33    1
    56    57    58    1
    57    57    56    1
    58   163   162    1
    59   159   162    1
    60   159   160    1
    61    67    66    1
    62    70    69    1
    63    58    65   am
    64    58    59    2
    65    34    33    2
    66    65    66    1
    67    56    51   am
    68    38    36   ar
    69    38    40   ar
    70     5     2    1
    71    36    37   ar
    72    33    42   am
    73    66    69    1
    74   164   160   am
    75   164   165    1
    76   160   161    2
    77    98    97    1
    78     2     1    1
    79     2     3    1
    80    40    41   ar
    81   168   165    1
    82    37    39   ar
    83    51    50    1
    84    51    52    2
    85    42    43    1
    86    54    53    1
    87   165   166    1
    88    96    95    2
    89    97    94    1
    90    50    53    1
    91    50    49    1
    92   167   166    2
    93    95    94    1
    94    41    39   ar
    95     3     4    2
    96    43    46    1
    97    43    44    1
    98   166   169   am
    99    53    55    1
   100    94    93    1
   101   178   177    1
   102    46    48    1
   103    46    47    1
   104    44    45    2
   105   175   176    1
   106   175   174    1
   107    93    88   am
   108   169   170    1
   109   177   176    2
   110   177   179    1
   111   173   170    1
   112   173   174    1
   113   170   171    1
   114    14    13    1
   115    14    15    1
   116    88    89    2
   117    88    87    1
   118    87    86    1
   119    87    90    1
   120    79    78    2
   121   146   145    2
   122    15    17   am
   123    15    16    2
   124   171   172    2
   125    80    81    1
   126    80    77    1
   127    17    18    1
   128    86    78   am
   129    78    77    1
   130    91    90    1
   131    20    19    2
   132   145   144    1
   133    82    81   ar
   134    82    84   ar
   135   148   147    1
   136   148   149    1
   137    81    83   ar
   138    90    92    1
   139   147   144    1
   140    77    76    1
   141    84    85   ar
   142    18    19    1
   143    18    21    1
   144    19    22   am
   145   144   143    1
   146   149   143    1
   147    83    85   ar
   148    29    28   ar
   149    27    28    1
   150    27    26    1
   151    22    23    1
   152    28    30   ar
   153    23    26    1
   154    23    24    1
   155   142   140    1
   156   180   181    1
   157    24    25    2
   158   140   141    1
   159   140   139    2
   160   184   181    1
   161   184   185    1
   162   181   182    1
   163   135   134    2
   164   185   186    1
   165   131   129    1
   166   188   186   ar
   167   139   138    1
   168   186   187   ar
   169   134   133    1
   170   182   183    2
   171   137   138    1
   172   137   136    1
   173   129   130    1
   174   129   128    2
   175   133   136    1
   176   133   132    1
   177   128   127    1
   178   127   126    1
   179   126   125    1
   180   125   122    1
   181   121   122    1
   182   122   123    1
   183   123   124    2
