@<TRIPOS>MOLECULE
tmp/5zlpI00.pdb
 254 246 0 0 0
SMALL
GASTEIGER

@<TRIPOS>ATOM
      1  N        -13.5600   12.0560   16.9170 N.3   129  TYR129     -0.1241
      2  CA       -14.1420   10.7250   16.7980 C.3   129  TYR129      0.1605
      3  C        -14.1900   10.0690   18.1710 C.2   129  TYR129      0.2264
      4  O        -13.1690    9.9720   18.8580 O.2   129  TYR129     -0.2867
      5  CB       -13.3600    9.8710   15.8070 C.3   129  TYR129      0.0534
      6  CG       -13.5660   10.3050   14.3860 C.ar  129  TYR129     -0.0201
      7  CD1      -14.8500   10.3510   13.8170 C.ar  129  TYR129     -0.0009
      8  CD2      -12.4930   10.7030   13.6100 C.ar  129  TYR129     -0.0009
      9  CE1      -15.0390   10.7610   12.4960 C.ar  129  TYR129      0.0417
     10  CE2      -12.6690   11.1110   12.2880 C.ar  129  TYR129      0.0417
     11  CZ       -13.9340   11.1350   11.7390 C.ar  129  TYR129      0.1957
     12  OH       -14.0620   11.5400   10.4350 O.3   129  TYR129     -0.2866
     13  N        -15.4250    6.6230   20.3200 N.3   131  GLY131     -0.1210
     14  CA       -15.8150    5.2230   20.2930 C.3   131  GLY131      0.1956
     15  C        -16.1690    4.7970   21.6980 C.2   131  GLY131      0.2612
     16  O        -15.4790    5.1460   22.6540 O.2   131  GLY131     -0.2717
     17  N        -17.2640    4.0480   21.8160 N.am  132  ALA132     -0.1965
     18  CA       -18.0160    3.9440   23.0680 C.3   132  ALA132      0.1728
     19  C        -18.4710    2.5030   23.2860 C.2   132  ALA132      0.2616
     20  O        -19.4550    2.0430   22.6940 O.2   132  ALA132     -0.2715
     21  CB       -19.2090    4.8910   23.0410 C.3   132  ALA132      0.0334
     22  N        -17.7710    1.8010   24.1570 N.am  133  GLU133     -0.1977
     23  CA       -18.2100    0.4940   24.6000 C.3   133  GLU133      0.1602
     24  C        -19.1630    0.7000   25.7620 C.2   133  GLU133      0.2287
     25  O        -18.8400    1.4230   26.7020 O.2   133  GLU133     -0.2864
     26  CB       -17.0360   -0.3480   25.0660 C.3   133  GLU133      0.0415
     27  CG       -15.7790   -0.1740   24.3020 C.3   133  GLU133      0.1163
     28  CD       -14.9700   -1.4050   24.4120 C.2   133  GLU133      0.3649
     29  OE1      -14.4060   -1.6330   25.5040 O.co2 133  GLU133     -0.2457
     30  OE2      -14.9580   -2.1770   23.4270 O.co2 133  GLU133     -0.2457
     31  N        -20.9120   -1.6440   28.3710 N.3   135  GLU135     -0.1245
     32  CA       -21.2120   -2.9240   28.9990 C.3   135  GLU135      0.1567
     33  C        -22.5950   -2.9110   29.6330 C.2   135  GLU135      0.2260
     34  O        -23.1260   -1.8710   30.0240 O.2   135  GLU135     -0.2867
     35  CB       -20.1700   -3.2590   30.0680 C.3   135  GLU135      0.0388
     36  CG       -18.8350   -2.7520   29.6880 C.3   135  GLU135      0.1160
     37  CD       -17.7020   -3.4310   30.3940 C.2   135  GLU135      0.3649
     38  OE1      -17.6100   -3.3080   31.6390 O.co2 135  GLU135     -0.2457
     39  OE2      -16.8840   -4.0690   29.6920 O.co2 135  GLU135     -0.2457
     40  N        -15.6050  -14.2530   31.3290 N.3   184  TYR184     -0.1241
     41  CA       -14.7450  -13.8310   30.2180 C.3   184  TYR184      0.1605
     42  C        -13.7530  -14.9040   29.7690 C.2   184  TYR184      0.2264
     43  O        -12.6860  -15.0310   30.3880 O.2   184  TYR184     -0.2867
     44  CB       -13.9590  -12.5720   30.6180 C.3   184  TYR184      0.0534
     45  CG       -13.2820  -11.8450   29.4700 C.ar  184  TYR184     -0.0201
     46  CD1      -12.0030  -12.1830   29.0390 C.ar  184  TYR184     -0.0009
     47  CD2      -13.9180  -10.8080   28.8250 C.ar  184  TYR184     -0.0009
     48  CE1      -11.3910  -11.5160   27.9950 C.ar  184  TYR184      0.0417
     49  CE2      -13.3210  -10.1400   27.7750 C.ar  184  TYR184      0.0417
     50  CZ       -12.0620  -10.4870   27.3590 C.ar  184  TYR184      0.1957
     51  OH       -11.5010   -9.7780   26.2960 O.3   184  TYR184     -0.2866
     52  N        -18.8790   -4.5570   15.4620 N.3   212  PHE212     -0.1227
     53  CA       -17.7510   -5.4090   15.0800 C.3   212  PHE212      0.1736
     54  C        -17.4000   -6.5330   16.0850 C.2   212  PHE212      0.2595
     55  O        -17.3250   -7.6900   15.6730 O.2   212  PHE212     -0.2718
     56  CB       -16.5330   -4.5330   14.6710 C.3   212  PHE212      0.0547
     57  CG       -15.9780   -3.6590   15.7570 C.ar  212  PHE212     -0.0202
     58  CD1      -14.9880   -4.1410   16.6180 C.ar  212  PHE212     -0.0042
     59  CD2      -16.3870   -2.3420   15.8920 C.ar  212  PHE212     -0.0042
     60  CE1      -14.4520   -3.3520   17.6420 C.ar  212  PHE212     -0.0003
     61  CE2      -15.8530   -1.5310   16.9260 C.ar  212  PHE212     -0.0003
     62  CZ       -14.8880   -2.0490   17.8000 C.ar  212  PHE212     -0.0000
     63  N        -17.2190   -6.2770   17.3780 N.am  213  VAL213     -0.1980
     64  CA       -17.0850   -7.3710   18.3440 C.3   213  VAL213      0.1595
     65  C        -18.4420   -7.6180   18.9880 C.2   213  VAL213      0.2287
     66  O        -19.2390   -6.6960   19.1760 O.2   213  VAL213     -0.2864
     67  CB       -16.0410   -7.0880   19.4530 C.3   213  VAL213      0.0276
     68  CG1      -15.6290   -8.3530   20.1270 C.3   213  VAL213      0.0022
     69  CG2      -14.8520   -6.4300   18.9340 C.3   213  VAL213      0.0022
     70  N        -19.3860  -10.0130   22.5790 N.3   215  HIS215     -0.1241
     71  CA       -18.8690  -11.0050   23.5070 C.3   215  HIS215      0.1621
     72  C        -19.5480  -10.8700   24.8490 C.2   215  HIS215      0.2264
     73  O        -20.2160   -9.8750   25.1410 O.2   215  HIS215     -0.2867
     74  CB       -17.3460  -10.9070   23.6740 C.3   215  HIS215      0.0745
     75  CG       -16.8710   -9.6170   24.2510 C.ar  215  HIS215      0.0817
     76  ND1      -16.7510   -9.4040   25.6120 N.ar  215  HIS215     -0.2268
     77  CD2      -16.4560   -8.4740   23.6510 C.ar  215  HIS215      0.1154
     78  CE1      -16.2930   -8.1810   25.8250 C.ar  215  HIS215      0.1986
     79  NE2      -16.0980   -7.5980   24.6520 N.ar  215  HIS215     -0.2212
     80  N        -18.9240  -10.6160   29.0100 N.3   217  GLU217     -0.1245
     81  CA       -17.9550   -9.8580   29.8010 C.3   217  GLU217      0.1567
     82  C        -17.6610  -10.5700   31.1170 C.2   217  GLU217      0.2260
     83  O        -18.2220  -11.6190   31.4170 O.2   217  GLU217     -0.2867
     84  CB       -18.4410   -8.4280   30.0410 C.3   217  GLU217      0.0388
     85  CG       -17.6470   -7.3580   29.2800 C.3   217  GLU217      0.1160
     86  CD       -16.1640   -7.1910   29.7360 C.2   217  GLU217      0.3649
     87  OE1      -15.8750   -7.1390   30.9760 O.co2 217  GLU217     -0.2457
     88  OE2      -15.2980   -7.0870   28.8290 O.co2 217  GLU217     -0.2457
     89  N        -21.1580   -7.2630   25.9540 N.3   224  GLU224     -0.1245
     90  CA       -20.6050   -6.0980   25.2650 C.3   224  GLU224      0.1567
     91  C        -20.7570   -6.2140   23.7540 C.2   224  GLU224      0.2260
     92  O        -20.4670   -7.2610   23.1630 O.2   224  GLU224     -0.2867
     93  CB       -19.1240   -5.9010   25.5750 C.3   224  GLU224      0.0388
     94  CG       -18.5190   -4.7010   24.8540 C.3   224  GLU224      0.1160
     95  CD       -17.8070   -3.7560   25.8180 C.2   224  GLU224      0.3649
     96  OE1      -18.3470   -3.5410   26.9200 O.co2 224  GLU224     -0.2457
     97  OE2      -16.6970   -3.2590   25.5030 O.co2 224  GLU224     -0.2457
     98  N        -19.1530   -3.9910   20.5690 N.3   226  GLY226     -0.1210
     99  CA       -18.3560   -2.8960   20.0530 C.3   226  GLY226      0.1956
    100  C        -18.9860   -2.3210   18.7980 C.2   226  GLY226      0.2612
    101  O        -19.3700   -3.0570   17.8850 O.2   226  GLY226     -0.2717
    102  N        -19.0930   -0.9980   18.7600 N.am  227  VAL227     -0.1965
    103  CA       -19.7750   -0.2510   17.7170 C.3   227  VAL227      0.1727
    104  C        -18.7540    0.6780   17.0800 C.2   227  VAL227      0.2616
    105  O        -18.0410    1.3970   17.7980 O.2   227  VAL227     -0.2715
    106  CB       -20.9480    0.5490   18.3090 C.3   227  VAL227      0.0290
    107  CG1      -21.3780    1.6490   17.3630 C.3   227  VAL227      0.0023
    108  CG2      -22.0660   -0.3750   18.6020 C.3   227  VAL227      0.0023
    109  N        -18.6860    0.6800   15.7470 N.am  228  LYS228     -0.1963
    110  CA       -17.6990    1.5250   15.0850 C.3   228  LYS228      0.1728
    111  C        -17.9080    2.9850   15.4640 C.2   228  LYS228      0.2616
    112  O        -19.0290    3.4180   15.7650 O.2   228  LYS228     -0.2715
    113  CB       -17.7540    1.3560   13.5670 C.3   228  LYS228      0.0311
    114  CG       -16.9990    0.1250   13.0790 C.3   228  LYS228      0.0038
    115  CD       -15.5470    0.1030   13.5760 C.3   228  LYS228      0.0206
    116  CE       -14.7910   -1.0660   12.9660 C.3   228  LYS228      0.1093
    117  NZ       -15.1620   -1.3250   11.5310 N.3   228  LYS228     -0.1314
    118  N        -16.8080    3.7450   15.4520 N.am  229  PHE229     -0.1974
    119  CA       -16.8220    5.0980   15.9970 C.3   229  PHE229      0.1639
    120  C        -17.6140    6.0510   15.0960 C.2   229  PHE229      0.2290
    121  O        -17.9890    5.7360   13.9550 O.2   229  PHE229     -0.2864
    122  CB       -15.3990    5.6240   16.2230 C.3   229  PHE229      0.0560
    123  CG       -14.5160    5.5910   15.0050 C.ar  229  PHE229     -0.0200
    124  CD1      -14.6570    6.5270   13.9840 C.ar  229  PHE229     -0.0042
    125  CD2      -13.4950    4.6530   14.9010 C.ar  229  PHE229     -0.0042
    126  CE1      -13.8210    6.4980   12.8650 C.ar  229  PHE229     -0.0003
    127  CE2      -12.6570    4.6240   13.7950 C.ar  229  PHE229     -0.0003
    128  CZ       -12.8230    5.5470   12.7780 C.ar  229  PHE229     -0.0000
    129  N        -16.1650    2.6870   28.4370 N.3   273  HIS273     -0.1241
    130  CA       -14.8670    3.0590   27.8870 C.3   273  HIS273      0.1621
    131  C        -15.0480    3.9060   26.6360 C.2   273  HIS273      0.2264
    132  O        -15.6550    3.4490   25.6520 O.2   273  HIS273     -0.2867
    133  CB       -14.0570    1.8130   27.5500 C.3   273  HIS273      0.0745
    134  CG       -13.9660    0.8380   28.6690 C.ar  273  HIS273      0.0817
    135  ND1      -13.7700   -0.5070   28.4590 N.ar  273  HIS273     -0.2268
    136  CD2      -14.0460    1.0100   30.0070 C.ar  273  HIS273      0.1154
    137  CE1      -13.7390   -1.1230   29.6260 C.ar  273  HIS273      0.1986
    138  NE2      -13.8940   -0.2230   30.5810 N.ar  273  HIS273     -0.2212
    139  N        -13.2500    5.9700   23.5180 N.3   275  HIS275     -0.1226
    140  CA       -12.0750    6.0160   22.6660 C.3   275  HIS275      0.1752
    141  C        -12.1620    7.2570   21.7930 C.2   275  HIS275      0.2596
    142  O        -13.0590    7.3580   20.9530 O.2   275  HIS275     -0.2718
    143  CB       -11.9850    4.7600   21.7990 C.3   275  HIS275      0.0759
    144  CG       -11.7190    3.4930   22.5620 C.ar  275  HIS275      0.0818
    145  ND1      -10.4950    2.8620   22.5490 N.ar  275  HIS275     -0.2268
    146  CD2      -12.5250    2.7290   23.3370 C.ar  275  HIS275      0.1154
    147  CE1      -10.5580    1.7700   23.2890 C.ar  275  HIS275      0.1986
    148  NE2      -11.7760    1.6680   23.7800 N.ar  275  HIS275     -0.2212
    149  N        -11.2070    8.1700   21.9640 N.am  276  VAL276     -0.1966
    150  CA       -11.2330    9.5090   21.3850 C.3   276  VAL276      0.1727
    151  C        -10.0190    9.7110   20.4880 C.2   276  VAL276      0.2616
    152  O         -8.9150    9.2880   20.8280 O.2   276  VAL276     -0.2715
    153  CB       -11.2420   10.5660   22.5030 C.3   276  VAL276      0.0290
    154  CG1      -11.2950   11.9630   21.9200 C.3   276  VAL276      0.0023
    155  CG2      -12.3850   10.3050   23.4590 C.3   276  VAL276      0.0023
    156  N        -10.2130   10.3720   19.3540 N.am  277  SER277     -0.1950
    157  CA        -9.1050   10.8090   18.5150 C.3   277  SER277      0.1924
    158  C         -9.5500   12.0320   17.7280 C.2   277  SER277      0.2314
    159  O        -10.6550   12.0460   17.1780 O.2   277  SER277     -0.2863
    160  CB        -8.6720    9.7160   17.5490 C.3   277  SER277      0.2116
    161  OG        -9.5210    9.7240   16.4150 O.3   277  SER277     -0.2180
    162  N         -9.1500   14.7260   14.6380 N.3   279  TRP279     -0.1241
    163  CA        -8.6780   14.6550   13.2630 C.3   279  TRP279      0.1605
    164  C         -8.7820   16.0120   12.5940 C.2   279  TRP279      0.2264
    165  O         -9.6380   16.8170   12.9510 O.2   279  TRP279     -0.2867
    166  CB        -9.4830   13.6570   12.4680 C.3   279  TRP279      0.0550
    167  CG        -9.2410   12.2410   12.8570 C.ar  279  TRP279      0.0003
    168  CD1       -9.4920   11.6570   14.0720 C.ar  279  TRP279      0.0946
    169  CD2       -8.7280   11.2100   12.0120 C.ar  279  TRP279      0.0152
    170  NE1       -9.1570   10.3280   14.0300 N.ar  279  TRP279     -0.2442
    171  CE2       -8.6910   10.0250   12.7780 C.ar  279  TRP279      0.0810
    172  CE3       -8.2890   11.1760   10.6790 C.ar  279  TRP279      0.0012
    173  CZ2       -8.2420    8.8230   12.2590 C.ar  279  TRP279      0.0191
    174  CZ3       -7.8340    9.9780   10.1600 C.ar  279  TRP279      0.0001
    175  CH2       -7.8160    8.8150   10.9490 C.ar  279  TRP279      0.0015
    176  N         -4.9560   -1.7500   32.6780 N.3   343  ARG343     -0.1245
    177  CA        -6.3970   -1.6200   32.8680 C.3   343  ARG343      0.1563
    178  C         -6.7630   -1.1990   34.2810 C.2   343  ARG343      0.2260
    179  O         -7.9490   -1.0110   34.5860 O.2   343  ARG343     -0.2867
    180  CB        -7.0990   -2.9300   32.4920 C.3   343  ARG343      0.0307
    181  CG        -7.0440   -3.1770   30.9870 C.3   343  ARG343      0.0489
    182  CD        -7.8000   -4.4050   30.5390 C.3   343  ARG343      0.2205
    183  NE        -8.2860   -4.2160   29.1720 N.pl3 343  ARG343     -0.0865
    184  CZ        -7.6010   -4.5210   28.0680 C.cat 343  ARG343      0.5346
    185  NH1       -6.3930   -5.0600   28.1570 N.pl3 343  ARG343      0.1354
    186  NH2       -8.1260   -4.2990   26.8710 N.pl3 343  ARG343      0.1354
    187  N         -6.0730    3.7880   29.1720 N.3   348  ARG348     -0.1245
    188  CA        -5.2420    2.7650   28.5640 C.3   348  ARG348      0.1563
    189  C         -4.8620    3.2280   27.1750 C.2   348  ARG348      0.2260
    190  O         -5.7080    3.7460   26.4380 O.2   348  ARG348     -0.2867
    191  CB        -6.0040    1.4480   28.4660 C.3   348  ARG348      0.0307
    192  CG        -5.1750    0.2450   28.1080 C.3   348  ARG348      0.0489
    193  CD        -6.0760   -0.9790   28.0180 C.3   348  ARG348      0.2205
    194  NE        -6.9670   -0.8070   26.8920 N.pl3 348  ARG348     -0.0865
    195  CZ        -6.9110   -1.5370   25.7930 C.cat 348  ARG348      0.5346
    196  NH1       -7.7400   -1.2980   24.7910 N.pl3 348  ARG348      0.1354
    197  NH2       -6.0450   -2.5230   25.7150 N.pl3 348  ARG348      0.1354
    198  N         -4.3420    1.7000   23.9550 N.3   350  PRO350     -0.2116
    199  CA        -4.6110    0.3470   23.4560 C.3   350  PRO350      0.1372
    200  C         -3.5180   -0.1180   22.5090 C.2   350  PRO350      0.2244
    201  O         -2.9910    0.6600   21.7130 O.2   350  PRO350     -0.2868
    202  CB        -5.9670    0.4910   22.7440 C.3   350  PRO350      0.0268
    203  CG        -6.1330    1.9380   22.4940 C.3   350  PRO350      0.0207
    204  CD        -5.4410    2.6260   23.6360 C.3   350  PRO350      0.0892
    205  N         -4.2030    5.5680   11.5040 N.3   356  ASN356     -0.1225
    206  CA        -5.6550    5.7090   11.5450 C.3   356  ASN356      0.1785
    207  C         -6.2580    5.4350   12.9180 C.2   356  ASN356      0.2598
    208  O         -7.3560    5.9080   13.2020 O.2   356  ASN356     -0.2718
    209  CB        -6.2920    4.7720   10.5210 C.3   356  ASN356      0.1169
    210  CG        -6.1850    5.3080    9.0960 C.2   356  ASN356      0.2627
    211  OD1       -6.1960    6.5170    8.8770 O.2   356  ASN356     -0.2716
    212  ND2       -6.0780    4.4070    8.1230 N.am  356  ASN356     -0.0877
    213  N         -5.5770    4.7180   13.7950 N.am  357  SER357     -0.1938
    214  CA        -6.2080    4.2780   15.0250 C.3   357  SER357      0.2055
    215  C         -5.5880    4.8240   16.3120 C.2   357  SER357      0.2643
    216  O         -6.0440    4.4430   17.3980 O.2   357  SER357     -0.2714
    217  CB        -6.2130    2.7510   15.0770 C.3   357  SER357      0.2130
    218  OG        -7.1010    2.3040   16.0800 O.3   357  SER357     -0.2179
    219  N         -4.5680    5.6820   16.2360 N.am  358  ALA358     -0.1963
    220  CA        -4.0900    6.3770   17.4210 C.3   358  ALA358      0.1728
    221  C         -5.2610    6.9700   18.1900 C.2   358  ALA358      0.2616
    222  O         -6.1080    7.6680   17.6170 O.2   358  ALA358     -0.2715
    223  CB        -3.1160    7.4750   17.0100 C.3   358  ALA358      0.0334
    224  N         -5.3350    6.6570   19.4860 N.am  359  ARG359     -0.1977
    225  CA        -6.4780    7.0460   20.3170 C.3   359  ARG359      0.1597
    226  C         -6.1220    6.8130   21.7630 C.2   359  ARG359      0.2287
    227  O         -5.2770    5.9650   22.0720 O.2   359  ARG359     -0.2864
    228  CB        -7.7460    6.2380   19.9830 C.3   359  ARG359      0.0334
    229  CG        -7.7080    4.7470   20.4540 C.3   359  ARG359      0.0492
    230  CD        -8.6900    3.8220   19.6790 C.3   359  ARG359      0.2205
    231  NE        -8.5450    2.4140   20.0480 N.pl3 359  ARG359     -0.0865
    232  CZ        -7.7480    1.5490   19.4190 C.cat 359  ARG359      0.5346
    233  NH1       -7.0100    1.9220   18.3840 N.pl3 359  ARG359      0.1354
    234  NH2       -7.6700    0.3040   19.8280 N.pl3 359  ARG359      0.1354
    235  N         -8.1500    5.4740   25.2190 N.3   361  GLU361     -0.1245
    236  CA        -9.3390    4.9370   25.8470 C.3   361  GLU361      0.1567
    237  C         -9.4600    5.5570   27.2220 C.2   361  GLU361      0.2260
    238  O         -8.5480    5.4320   28.0410 O.2   361  GLU361     -0.2867
    239  CB        -9.2730    3.4280   25.9710 C.3   361  GLU361      0.0388
    240  CG       -10.5190    2.8260   26.5360 C.3   361  GLU361      0.1160
    241  CD       -10.2930    1.3870   26.8530 C.2   361  GLU361      0.3649
    242  OE1       -9.1890    1.0900   27.3570 O.co2 361  GLU361     -0.2457
    243  OE2      -11.1820    0.5490   26.5810 O.co2 361  GLU361     -0.2457
    244  N        -11.3470    4.9520   30.5070 N.3   363  ARG363     -0.1245
    245  CA       -11.9800    3.7920   31.1100 C.3   363  ARG363      0.1563
    246  C        -12.8860    4.1460   32.2790 C.2   363  ARG363      0.2260
    247  O        -13.6720    3.2970   32.7050 O.2   363  ARG363     -0.2867
    248  CB       -10.9030    2.7900   31.5530 C.3   363  ARG363      0.0307
    249  CG        -9.9490    2.3520   30.4070 C.3   363  ARG363      0.0489
    250  CD        -9.0840    1.1030   30.7390 C.3   363  ARG363      0.2205
    251  NE        -9.7870   -0.1840   30.6000 N.pl3 363  ARG363     -0.0865
    252  CZ       -10.4210   -0.7930   31.6020 C.cat 363  ARG363      0.5346
    253  NH1      -11.0350   -1.9540   31.4170 N.pl3 363  ARG363      0.1354
    254  NH2      -10.4390   -0.2260   32.8050 N.pl3 363  ARG363      0.1354
@<TRIPOS>BOND
     1   212   210   am
     2   211   210    2
     3   210   209    1
     4   174   172   ar
     5   174   175   ar
     6    12    11    1
     7   209   206    1
     8   172   169   ar
     9   175   173   ar
    10   205   206    1
    11   117   116    1
    12   206   207    1
    13    11    10   ar
    14    11     9   ar
    15   169   171   ar
    16   169   167   ar
    17   173   171   ar
    18    10     8   ar
    19   166   167    1
    20   166   163    1
    21     9     7   ar
    22   164   165    2
    23   164   163    1
    24   128   126   ar
    25   128   127   ar
    26   171   170   ar
    27   167   168   ar
    28   126   124   ar
    29   207   208    2
    30   207   213   am
    31   116   115    1
    32   114   113    1
    33   114   115    1
    34   163   162    1
    35   113   110    1
    36     8     6   ar
    37   127   125   ar
    38   213   214    1
    39     7     6   ar
    40   121   120    2
    41   124   123   ar
    42   170   168   ar
    43     6     5    1
    44    56    53    1
    45    56    57    1
    46   125   123   ar
    47   123   122    1
    48   214   217    1
    49   214   215    1
    50   217   218    1
    51    53    52    1
    52    53    54    1
    53   110   111    1
    54   110   109    1
    55   120   119    1
    56   118   111   am
    57   118   119    1
    58   111   112    2
    59    55    54    2
    60   109   104   am
    61    57    59   ar
    62    57    58   ar
    63     5     2    1
    64    59    61   ar
    65   119   122    1
    66    54    63   am
    67   219   215   am
    68   219   220    1
    69   215   216    2
    70   161   160    1
    71    58    60   ar
    72     2     1    1
    73     2     3    1
    74    61    62   ar
    75   223   220    1
    76   104   103    1
    77   104   105    2
    78   159   158    2
    79   107   106    1
    80    63    64    1
    81   220   221    1
    82   160   157    1
    83   222   221    2
    84    60    62   ar
    85   103   106    1
    86   103   102    1
    87   158   157    1
    88   101   100    2
    89     3     4    2
    90   221   224   am
    91   106   108    1
    92    64    65    1
    93    64    67    1
    94   233   232    1
    95   157   156    1
    96   102   100   am
    97   100    99    1
    98    69    67    1
    99    65    66    2
   100   156   151   am
   101   232   234    1
   102   232   231    2
   103    67    68    1
   104   224   225    1
   105   230   231    1
   106   230   229    1
   107   228   225    1
   108   228   229    1
   109    99    98    1
   110    14    13    1
   111    14    15    1
   112   225   226    1
   113   151   152    2
   114   151   150    1
   115   142   141    2
   116   150   149    1
   117   150   153    1
   118    15    17   am
   119    15    16    2
   120   201   200    2
   121   226   227    2
   122   141   149   am
   123   141   140    1
   124   143   144    1
   125   143   140    1
   126    17    18    1
   127   154   153    1
   128   203   202    1
   129   203   204    1
   130   153   155    1
   131   200   199    1
   132   145   144   ar
   133   145   147   ar
   134   144   146   ar
   135    70    71    1
   136   140   139    1
   137    20    19    2
   138   202   199    1
   139    21    18    1
   140    18    19    1
   141    92    91    2
   142    19    22   am
   143   147   148   ar
   144   146   148   ar
   145    30    28   ar
   146   199   198    1
   147    71    74    1
   148    71    72    1
   149   204   198    1
   150    77    75   ar
   151    77    79   ar
   152    74    75    1
   153    91    90    1
   154    22    23    1
   155    75    76   ar
   156    27    28    1
   157    27    26    1
   158    28    29   ar
   159    23    26    1
   160    23    24    1
   161    79    78   ar
   162   196   195    1
   163    72    73    2
   164    94    93    1
   165    94    95    1
   166   235   236    1
   167    90    93    1
   168    90    89    1
   169    97    95   ar
   170    76    78   ar
   171   132   131    2
   172   197   195    1
   173    24    25    2
   174   195   194    2
   175    95    96   ar
   176   236   239    1
   177   236   237    1
   178   239   240    1
   179    51    50    1
   180   190   189    2
   181   240   241    1
   182   243   241   ar
   183   131   130    1
   184   241   242   ar
   185   186   184    1
   186   194   193    1
   187   189   188    1
   188   237   238    2
   189    50    49   ar
   190    50    48   ar
   191   133   130    1
   192   133   134    1
   193    49    47   ar
   194   130   129    1
   195    48    46   ar
   196   193   192    1
   197   184   185    1
   198   184   183    2
   199   192   191    1
   200    31    32    1
   201   135   134   ar
   202   135   137   ar
   203   191   188    1
   204   188   187    1
   205   134   136   ar
   206    47    45   ar
   207    88    86   ar
   208    32    33    1
   209    32    35    1
   210    80    81    1
   211    46    45   ar
   212   183   182    1
   213    85    86    1
   214    85    84    1
   215    45    44    1
   216   137   138   ar
   217    33    34    2
   218    36    35    1
   219    36    37    1
   220    39    37   ar
   221    86    87   ar
   222    42    41    1
   223    42    43    2
   224    81    84    1
   225    81    82    1
   226   136   138   ar
   227    41    44    1
   228    41    40    1
   229    37    38   ar
   230   249   250    1
   231   249   248    1
   232   244   245    1
   233   182   181    1
   234   251   250    1
   235   251   252    2
   236   181   180    1
   237   245   248    1
   238   245   246    1
   239    82    83    2
   240   253   252    1
   241   252   254    1
   242   246   247    2
   243   180   177    1
   244   176   177    1
   245   177   178    1
   246   178   179    2
