@<TRIPOS>MOLECULE
tmp/5zltB00.pdb
 189 180 0 0 0
SMALL
GASTEIGER

@<TRIPOS>ATOM
      1  N         -5.0150   93.8890   87.8610 N.3    11  ARG11      -0.1231
      2  CA        -3.8610   93.6010   87.0160 C.3    11  ARG11       0.1694
      3  C         -3.7950   94.5590   85.8330 C.2    11  ARG11       0.2591
      4  O         -2.6980   94.9020   85.3780 O.2    11  ARG11      -0.2718
      5  CB        -3.8890   92.1320   86.5750 C.3    11  ARG11       0.0321
      6  CG        -5.0600   91.8270   85.6290 C.3    11  ARG11       0.0489
      7  CD        -4.7430   90.7210   84.6680 C.3    11  ARG11       0.2205
      8  NE        -5.7920   90.3190   83.7290 N.pl3  11  ARG11      -0.0865
      9  CZ        -5.8980   90.8100   82.4730 C.cat  11  ARG11       0.5346
     10  NH1       -5.0390   91.6900   81.9880 N.pl3  11  ARG11       0.1354
     11  NH2       -6.9100   90.3790   81.6840 N.pl3  11  ARG11       0.1354
     12  N         -4.9470   95.0410   85.3650 N.am   12  ALA12      -0.1980
     13  CA        -5.0110   96.0410   84.3040 C.3    12  ALA12       0.1597
     14  C         -4.2150   97.2930   84.6560 C.2    12  ALA12       0.2287
     15  O         -3.1730   97.5660   84.0460 O.2    12  ALA12      -0.2864
     16  CB        -6.4660   96.4160   84.0180 C.3    12  ALA12       0.0319
     17  N         -0.8110   99.2150   83.4270 N.3    16  LEU16      -0.1245
     18  CA        -0.7050  100.6120   83.0140 C.3    16  LEU16       0.1561
     19  C          0.3330  101.3690   83.8360 C.2    16  LEU16       0.2260
     20  O          0.9530  102.3110   83.3310 O.2    16  LEU16      -0.2867
     21  CB        -2.0660  101.3030   83.1080 C.3    16  LEU16       0.0270
     22  CG        -3.0370  101.0770   81.9450 C.3    16  LEU16       0.0019
     23  CD1       -4.0730  100.0230   82.2860 C.3    16  LEU16       0.0001
     24  CD2       -3.7100  102.3810   81.5500 C.3    16  LEU16       0.0001
     25  N         -8.6090   93.1050   93.4530 N.3    39  MET39      -0.1245
     26  CA        -8.5700   91.9670   92.5420 C.3    39  MET39       0.1570
     27  C         -7.2220   91.2590   92.5180 C.2    39  MET39       0.2261
     28  O         -7.1520   90.1030   92.0840 O.2    39  MET39      -0.2867
     29  CB        -8.9480   92.4300   91.1380 C.3    39  MET39       0.0387
     30  CG       -10.4400   92.6180   90.9710 C.3    39  MET39       0.0595
     31  SD       -10.9180   93.5950   89.5380 S.3    39  MET39      -0.1393
     32  CE       -10.0090   92.7600   88.2430 C.3    39  MET39       0.0692
     33  N        -10.0390   86.3810   90.0600 N.3    45  HIS45      -0.1241
     34  CA        -9.4360   87.3340   89.1370 C.3    45  HIS45       0.1621
     35  C         -7.9760   87.0110   88.8470 C.2    45  HIS45       0.2264
     36  O         -7.2630   87.8550   88.2910 O.2    45  HIS45      -0.2867
     37  CB        -9.5730   88.7570   89.6840 C.3    45  HIS45       0.0745
     38  CG       -10.9940   89.1880   89.8760 C.ar   45  HIS45       0.0817
     39  ND1      -11.7640   89.6880   88.8490 N.ar   45  HIS45      -0.2268
     40  CD2      -11.7890   89.1770   90.9720 C.ar   45  HIS45       0.1154
     41  CE1      -12.9710   89.9730   89.3050 C.ar   45  HIS45       0.1986
     42  NE2      -13.0110   89.6730   90.5910 N.ar   45  HIS45      -0.2212
     43  N        -10.3500  104.9470   88.0910 N.3   103  ASP103     -0.1225
     44  CA       -11.6980  105.3400   88.4830 C.3   103  ASP103      0.1805
     45  C        -12.4750  104.2180   89.1670 C.2   103  ASP103      0.2597
     46  O        -13.7070  104.2960   89.2340 O.2   103  ASP103     -0.2718
     47  CB       -12.4580  105.8080   87.2410 C.3   103  ASP103      0.1424
     48  CG       -12.1980  104.9190   86.0370 C.2   103  ASP103      0.3668
     49  OD1      -11.6640  103.8060   86.2290 O.co2 103  ASP103     -0.2456
     50  OD2      -12.5250  105.3280   84.9020 O.co2 103  ASP103     -0.2456
     51  N        -11.8070  103.1810   89.6600 N.am  104  ARG104     -0.1979
     52  CA       -12.5100  102.0820   90.2970 C.3   104  ARG104      0.1597
     53  C        -12.8350  102.4310   91.7480 C.2   104  ARG104      0.2287
     54  O        -12.2920  103.3760   92.3250 O.2   104  ARG104     -0.2864
     55  CB       -11.6830  100.8010   90.2060 C.3   104  ARG104      0.0334
     56  CG       -11.4460  100.3360   88.7710 C.3   104  ARG104      0.0492
     57  CD       -10.7820   98.9740   88.7330 C.3   104  ARG104      0.2205
     58  NE       -11.2810   98.1260   89.8090 N.pl3 104  ARG104     -0.0865
     59  CZ       -12.4130   97.4340   89.7490 C.cat 104  ARG104      0.5346
     60  NH1      -13.1630   97.4820   88.6570 N.pl3 104  ARG104      0.1354
     61  NH2      -12.7960   96.6960   90.7820 N.pl3 104  ARG104      0.1354
     62  N        -13.1950   91.2500   75.9410 N.3   208  THR208     -0.1218
     63  CA       -13.1840   91.6310   77.3500 C.3   208  THR208      0.1862
     64  C        -14.3810   92.5410   77.5850 C.2   208  THR208      0.2287
     65  O        -14.3770   93.6930   77.1420 O.2   208  THR208     -0.2866
     66  CB       -11.8830   92.3360   77.7260 C.3   208  THR208      0.1770
     67  OG1      -10.7800   91.4460   77.5210 O.3   208  THR208     -0.2211
     68  CG2      -11.9190   92.7820   79.1840 C.3   208  THR208      0.0375
     69  N        -16.7840   94.0460   80.6350 N.3   210  HIS210     -0.1241
     70  CA       -17.0340   94.2950   82.0410 C.3   210  HIS210      0.1621
     71  C        -18.4770   94.7260   82.2500 C.2   210  HIS210      0.2264
     72  O        -19.1450   95.1720   81.3130 O.2   210  HIS210     -0.2867
     73  CB       -16.0830   95.3780   82.5640 C.3   210  HIS210      0.0745
     74  CG       -14.6350   95.0170   82.4530 C.ar  210  HIS210      0.0817
     75  ND1      -14.1000   93.8930   83.0420 N.ar  210  HIS210     -0.2268
     76  CD2      -13.6080   95.6390   81.8280 C.ar  210  HIS210      0.1154
     77  CE1      -12.8060   93.8340   82.7820 C.ar  210  HIS210      0.1986
     78  NE2      -12.4820   94.8820   82.0470 N.ar  210  HIS210     -0.2212
     79  N        -10.5870   87.4740   78.3770 N.3   238  SER238     -0.1202
     80  CA       -10.1470   87.7890   79.7260 C.3   238  SER238      0.2020
     81  C        -11.3800   88.0070   80.5970 C.2   238  SER238      0.2619
     82  O        -12.4500   88.3710   80.1030 O.2   238  SER238     -0.2717
     83  CB        -9.2440   89.0270   79.7500 C.3   238  SER238      0.2103
     84  OG        -9.9060   90.1690   79.2360 O.3   238  SER238     -0.2182
     85  N        -11.2270   87.7720   81.8970 N.am  239  TYR239     -0.1962
     86  CA       -12.3770   87.7770   82.7870 C.3   239  TYR239      0.1756
     87  C        -12.8030   89.2030   83.1380 C.2   239  TYR239      0.2461
     88  O        -11.9840   90.1220   83.1410 O.2   239  TYR239     -0.2730
     89  CB       -12.0590   87.0050   84.0640 C.3   239  TYR239      0.0574
     90  CG       -12.3120   85.5180   83.9590 C.ar  239  TYR239     -0.0198
     91  CD1      -11.6930   84.7540   82.9790 C.ar  239  TYR239     -0.0009
     92  CD2      -13.1650   84.8750   84.8470 C.ar  239  TYR239     -0.0009
     93  CE1      -11.9190   83.3940   82.8820 C.ar  239  TYR239      0.0417
     94  CE2      -13.3980   83.5170   84.7600 C.ar  239  TYR239      0.0417
     95  CZ       -12.7720   82.7810   83.7760 C.ar  239  TYR239      0.1957
     96  OH       -13.0010   81.4270   83.6860 O.3   239  TYR239     -0.2866
     97  N        -14.0850   89.4150   83.4240 N.am  240  PRO240     -0.2716
     98  CA       -14.5290   90.7430   83.8600 C.3   240  PRO240      0.1536
     99  C        -13.9370   91.1100   85.2130 C.2   240  PRO240      0.2598
    100  O        -13.4610   90.2610   85.9690 O.2   240  PRO240     -0.2715
    101  CB       -16.0540   90.6020   83.9370 C.3   240  PRO240      0.0310
    102  CG       -16.2930   89.1300   84.0900 C.3   240  PRO240      0.0237
    103  CD       -15.2070   88.4690   83.2980 C.3   240  PRO240      0.0939
    104  N        -13.9670   92.4090   85.5100 N.am  241  ASN241     -0.1973
    105  CA       -13.4200   92.9140   86.7610 C.3   241  ASN241      0.1688
    106  C        -14.3780   92.6190   87.9150 C.2   241  ASN241      0.2292
    107  O        -15.4170   91.9760   87.7480 O.2   241  ASN241     -0.2864
    108  CB       -13.1150   94.4080   86.6470 C.3   241  ASN241      0.1181
    109  CG       -14.3240   95.2310   86.2290 C.2   241  ASN241      0.2629
    110  OD1      -15.4470   94.9850   86.6680 O.2   241  ASN241     -0.2716
    111  ND2      -14.0930   96.2200   85.3720 N.am  241  ASN241     -0.0877
    112  N         -8.0480   83.8810   82.8440 N.3   268  LYS268     -0.1245
    113  CA        -8.3830   84.7970   83.9310 C.3   268  LYS268      0.1561
    114  C         -7.4500   85.9990   83.9510 C.2   268  LYS268      0.2260
    115  O         -7.8880   87.1280   84.1960 O.2   268  LYS268     -0.2867
    116  CB        -8.3390   84.0700   85.2750 C.3   268  LYS268      0.0271
    117  CG        -9.6020   83.3010   85.6240 C.3   268  LYS268      0.0035
    118  CD        -9.5250   82.7600   87.0430 C.3   268  LYS268      0.0206
    119  CE       -10.7760   81.9820   87.4060 C.3   268  LYS268      0.1093
    120  NZ       -10.6920   81.3960   88.7700 N.3   268  LYS268     -0.1314
    121  N         -0.1460   90.9730   80.3100 N.3   272  ILE272     -0.1245
    122  CA        -0.1160   92.2950   79.6830 C.3   272  ILE272      0.1561
    123  C          1.0620   92.4160   78.7240 C.2   272  ILE272      0.2260
    124  O          0.9230   92.9830   77.6350 O.2   272  ILE272     -0.2867
    125  CB        -0.1340   93.4110   80.7400 C.3   272  ILE272      0.0252
    126  CG1       -1.1480   93.0350   81.8220 C.3   272  ILE272      0.0019
    127  CG2       -0.5160   94.7410   80.0950 C.3   272  ILE272      0.0019
    128  CD1       -1.5910   94.1700   82.6670 C.3   272  ILE272      0.0001
    129  N         -0.8150   89.9900   77.2260 N.3   275  TYR275     -0.1241
    130  CA        -2.0710   90.5800   76.7610 C.3   275  TYR275      0.1605
    131  C         -1.8410   91.5250   75.5890 C.2   275  TYR275      0.2264
    132  O         -2.6330   91.5440   74.6410 O.2   275  TYR275     -0.2867
    133  CB        -2.7920   91.3060   77.9000 C.3   275  TYR275      0.0534
    134  CG        -4.0980   91.9640   77.4930 C.ar  275  TYR275     -0.0201
    135  CD1       -5.3070   91.2970   77.6410 C.ar  275  TYR275     -0.0009
    136  CD2       -4.1230   93.2520   76.9640 C.ar  275  TYR275     -0.0009
    137  CE1       -6.5020   91.8880   77.2730 C.ar  275  TYR275      0.0417
    138  CE2       -5.3140   93.8490   76.5860 C.ar  275  TYR275      0.0417
    139  CZ        -6.5010   93.1630   76.7470 C.ar  275  TYR275      0.1957
    140  OH        -7.6930   93.7470   76.3830 O.3   275  TYR275     -0.2866
    141  N        -13.7990   97.1960   77.2630 N.3   289  SER289     -0.1202
    142  CA       -12.5760   97.5310   77.9740 C.3   289  SER289      0.2020
    143  C        -12.0100   98.8550   77.4720 C.2   289  SER289      0.2619
    144  O        -12.1920   99.2350   76.3130 O.2   289  SER289     -0.2717
    145  CB       -11.5460   96.4150   77.8040 C.3   289  SER289      0.2103
    146  OG       -11.5960   95.8610   76.5000 O.3   289  SER289     -0.2182
    147  N        -11.3190   99.5670   78.3670 N.am  290  SER290     -0.1937
    148  CA       -10.6730  100.8100   77.9630 C.3   290  SER290      0.2055
    149  C         -9.4760  100.5630   77.0570 C.2   290  SER290      0.2643
    150  O         -9.0350  101.4890   76.3680 O.2   290  SER290     -0.2714
    151  CB       -10.2370  101.6100   79.1890 C.3   290  SER290      0.2130
    152  OG        -9.3150  100.8770   79.9750 O.3   290  SER290     -0.2179
    153  N         -8.9420   99.3400   77.0400 N.am  291  SER291     -0.1949
    154  CA        -7.8780   99.0200   76.0960 C.3   291  SER291      0.1924
    155  C         -8.3410   99.1930   74.6560 C.2   291  SER291      0.2314
    156  O         -7.5210   99.4580   73.7700 O.2   291  SER291     -0.2863
    157  CB        -7.3810   97.5950   76.3300 C.3   291  SER291      0.2116
    158  OG        -8.4210   96.6620   76.1040 O.3   291  SER291     -0.2180
    159  N        -20.1440  102.0300   78.5070 N.3   309  ARG309     -0.1231
    160  CA       -19.1060  102.0440   79.5340 C.3   309  ARG309      0.1694
    161  C        -17.8990  102.8700   79.1050 C.2   309  ARG309      0.2591
    162  O        -17.1950  103.4230   79.9550 O.2   309  ARG309     -0.2718
    163  CB       -18.6720  100.6190   79.8900 C.3   309  ARG309      0.0321
    164  CG       -17.6680  100.5710   81.0370 C.3   309  ARG309      0.0489
    165  CD       -17.3510   99.1600   81.5030 C.3   309  ARG309      0.2205
    166  NE       -16.4550   99.1790   82.6580 N.pl3 309  ARG309     -0.0865
    167  CZ       -15.1310   99.0980   82.5760 C.cat 309  ARG309      0.5346
    168  NH1      -14.5490   98.9820   81.3910 N.pl3 309  ARG309      0.1354
    169  NH2      -14.3890   99.1290   83.6750 N.pl3 309  ARG309      0.1354
    170  N        -17.6480  102.9740   77.8010 N.am  310  GLN310     -0.1979
    171  CA       -16.5710  103.8030   77.2740 C.3   310  GLN310      0.1601
    172  C        -17.0790  105.0960   76.6500 C.2   310  GLN310      0.2287
    173  O        -16.3050  105.8030   75.9960 O.2   310  GLN310     -0.2864
    174  CB       -15.7500  103.0180   76.2480 C.3   310  GLN310      0.0394
    175  CG       -14.9660  101.8620   76.8410 C.3   310  GLN310      0.0908
    176  CD       -14.0330  102.3050   77.9480 C.2   310  GLN310      0.2608
    177  OE1      -13.1520  103.1400   77.7390 O.2   310  GLN310     -0.2717
    178  NE2      -14.2270  101.7520   79.1400 N.am  310  GLN310     -0.0878
    179  N        -14.8810  108.8910   76.0660 N.3   313  ARG313     -0.1245
    180  CA       -13.4560  108.9100   75.7770 C.3   313  ARG313      0.1563
    181  C        -13.2180  109.2320   74.3060 C.2   313  ARG313      0.2260
    182  O        -14.0740  108.9970   73.4480 O.2   313  ARG313     -0.2867
    183  CB       -12.8110  107.5710   76.1410 C.3   313  ARG313      0.0307
    184  CG       -12.7170  107.3060   77.6410 C.3   313  ARG313      0.0489
    185  CD       -11.7720  106.1490   77.9420 C.3   313  ARG313      0.2205
    186  NE       -11.2010  106.2330   79.2850 N.pl3 313  ARG313     -0.0865
    187  CZ       -11.3750  105.3210   80.2380 C.cat 313  ARG313      0.5346
    188  NH1      -12.1010  104.2380   80.0000 N.pl3 313  ARG313      0.1354
    189  NH2      -10.8140  105.4870   81.4280 N.pl3 313  ARG313      0.1354
@<TRIPOS>BOND
     1   182   181    2
     2   156   155    2
     3   181   180    1
     4   132   131    2
     5   155   154    1
     6   131   130    1
     7   180   179    1
     8   180   183    1
     9    62    63    1
    10   173   172    2
    11   154   157    1
    12   154   153    1
    13   158   157    1
    14   183   184    1
    15   174   175    1
    16   174   171    1
    17   144   143    2
    18   150   149    2
    19   140   139    1
    20   146   145    1
    21   138   139   ar
    22   138   136   ar
    23   172   171    1
    24   139   137   ar
    25   130   129    1
    26   130   133    1
    27   175   176    1
    28   136   134   ar
    29   153   149   am
    30   149   148    1
    31    65    64    2
    32   141   142    1
    33   137   135   ar
    34   171   170    1
    35    63    64    1
    36    63    66    1
    37   143   142    1
    38   143   147   am
    39   134   135   ar
    40   134   133    1
    41    67    66    1
    42   124   123    2
    43   184   185    1
    44    66    68    1
    45   177   176    2
    46   170   161   am
    47   145   142    1
    48   185   186    1
    49   176   178   am
    50   148   147    1
    51   148   151    1
    52    79    80    1
    53   159   160    1
    54   123   122    1
    55   161   160    1
    56   161   162    2
    57   151   152    1
    58    84    83    1
    59   186   187    2
    60   160   163    1
    61   122   121    1
    62   122   125    1
    63    80    83    1
    64    80    81    1
    65   163   164    1
    66   188   187    1
    67   127   125    1
    68    82    81    2
    69   187   189    1
    70    81    85   am
    71    69    70    1
    72   125   126    1
    73   164   165    1
    74    72    71    2
    75   168   167    1
    76   165   166    1
    77    24    22    1
    78    11     9    1
    79   126   128    1
    80    76    78   ar
    81    76    74   ar
    82    85    86    1
    83    22    23    1
    84    22    21    1
    85    10     9    1
    86    70    71    1
    87    70    73    1
    88    78    77   ar
    89    74    73    1
    90    74    75   ar
    91     9     8    2
    92   167   166    2
    93   167   169    1
    94    77    75   ar
    95    86    87    1
    96    86    89    1
    97   112   113    1
    98    93    91   ar
    99    93    95   ar
   100    91    90   ar
   101    18    21    1
   102    18    17    1
   103    18    19    1
   104    87    88    2
   105    87    97   am
   106   103    97    1
   107   103   102    1
   108    20    19    2
   109    97    98    1
   110    96    95    1
   111     8     7    1
   112    95    94   ar
   113    98   101    1
   114    98    99    1
   115   113   114    1
   116   113   116    1
   117   101   102    1
   118   114   115    2
   119    90    89    1
   120    90    92   ar
   121    16    13    1
   122    15    14    2
   123    13    14    1
   124    13    12    1
   125     7     6    1
   126    94    92   ar
   127    50    48   ar
   128    99   104   am
   129    99   100    2
   130   116   117    1
   131    12     3   am
   132   111   109   am
   133     4     3    2
   134   104   105    1
   135   117   118    1
   136     6     5    1
   137     3     2    1
   138    48    49   ar
   139    48    47    1
   140   109   108    1
   141   109   110    2
   142     5     2    1
   143   108   105    1
   144   105   106    1
   145     2     1    1
   146   118   119    1
   147    47    44    1
   148   119   120    1
   149   107   106    2
   150    43    44    1
   151    32    31    1
   152    36    35    2
   153    44    45    1
   154    60    59    1
   155    57    56    1
   156    57    58    1
   157    56    55    1
   158    35    34    1
   159    39    41   ar
   160    39    38   ar
   161    34    37    1
   162    34    33    1
   163    45    46    2
   164    45    51   am
   165    41    42   ar
   166    31    30    1
   167    51    52    1
   168    37    38    1
   169    59    58    2
   170    59    61    1
   171    38    40   ar
   172    55    52    1
   173    52    53    1
   174    42    40   ar
   175    30    29    1
   176    29    26    1
   177    53    54    2
   178    28    27    2
   179    27    26    1
   180    26    25    1
