@<TRIPOS>MOLECULE
tmp/5zm3B00.pdb
 134 125 0 0 0
SMALL
GASTEIGER

@<TRIPOS>ATOM
      1  N        -52.2400   -2.1230    8.3080 N.3    66  ILE66      -0.1245
      2  CA       -50.9460   -2.7500    8.5360 C.3    66  ILE66       0.1561
      3  C        -51.0890   -4.1740    9.0820 C.2    66  ILE66       0.2260
      4  O        -50.1190   -4.7460    9.5680 O.2    66  ILE66      -0.2867
      5  CB       -50.0610   -1.8730    9.4530 C.3    66  ILE66       0.0252
      6  CG1      -50.4660   -1.9390   10.9220 C.3    66  ILE66       0.0019
      7  CG2      -50.1310   -0.4060    9.0400 C.3    66  ILE66       0.0019
      8  CD1      -49.5960   -1.0470   11.7950 C.3    66  ILE66       0.0001
      9  N        -47.8100   -4.3900   21.4100 N.3    74  HIS74      -0.1241
     10  CA       -47.1410   -3.0930   21.3910 C.3    74  HIS74       0.1621
     11  C        -47.2660   -2.4690   22.7730 C.2    74  HIS74       0.2264
     12  O        -48.3490   -2.4740   23.3650 O.2    74  HIS74      -0.2867
     13  CB       -47.7620   -2.1420   20.3640 C.3    74  HIS74       0.0745
     14  CG       -47.3600   -2.4090   18.9500 C.ar   74  HIS74       0.0817
     15  ND1      -47.7070   -1.5710   17.9130 N.ar   74  HIS74      -0.2268
     16  CD2      -46.6490   -3.4170   18.3950 C.ar   74  HIS74       0.1154
     17  CE1      -47.2340   -2.0550   16.7780 C.ar   74  HIS74       0.1986
     18  NE2      -46.5860   -3.1750   17.0450 N.ar   74  HIS74      -0.2212
     19  N        -41.9860   -3.5140   20.5260 N.3   118  LEU118     -0.1245
     20  CA       -42.5780   -4.2860   19.4350 C.3   118  LEU118      0.1561
     21  C        -42.3270   -5.7690   19.7110 C.2   118  LEU118      0.2260
     22  O        -41.2940   -6.3250   19.3210 O.2   118  LEU118     -0.2867
     23  CB       -42.0070   -3.8580   18.0950 C.3   118  LEU118      0.0270
     24  CG       -42.0530   -2.3690   17.7350 C.3   118  LEU118      0.0019
     25  CD1      -41.0240   -2.0630   16.6620 C.3   118  LEU118      0.0001
     26  CD2      -43.4080   -1.9850   17.2470 C.3   118  LEU118      0.0001
     27  N        -43.5200   -9.3040   18.8180 N.3   120  MET120     -0.1245
     28  CA       -44.2340  -10.2900   18.0100 C.3   120  MET120      0.1570
     29  C        -44.0550  -11.6470   18.6910 C.2   120  MET120      0.2261
     30  O        -42.9290  -12.0680   18.9630 O.2   120  MET120     -0.2867
     31  CB       -43.7320  -10.3560   16.5630 C.3   120  MET120      0.0387
     32  CG       -44.0380   -9.1600   15.6410 C.3   120  MET120      0.0595
     33  SD       -45.7570   -8.7600   15.0930 S.3   120  MET120     -0.1393
     34  CE       -45.7790   -9.4130   13.4130 C.3   120  MET120      0.0692
     35  N        -47.2240   -8.4490    9.0050 N.3   127  GLN127     -0.1245
     36  CA       -48.0290   -7.2880    8.6780 C.3   127  GLN127      0.1566
     37  C        -48.0650   -7.0990    7.1690 C.2   127  GLN127      0.2260
     38  O        -47.2350   -7.6420    6.4320 O.2   127  GLN127     -0.2867
     39  CB       -47.4620   -6.0340    9.3350 C.3   127  GLN127      0.0367
     40  CG       -47.2770   -6.1420   10.8380 C.3   127  GLN127      0.0905
     41  CD       -46.8930   -4.8190   11.4510 C.2   127  GLN127      0.2608
     42  OE1      -46.2510   -3.9900   10.8050 O.2   127  GLN127     -0.2717
     43  NE2      -47.3000   -4.5980   12.6930 N.am  127  GLN127     -0.0878
     44  N        -46.4100   -1.2510    4.4190 N.3   130  HIS130     -0.1241
     45  CA       -47.0420    0.0410    4.5640 C.3   130  HIS130      0.1621
     46  C        -45.9690    1.0980    4.7420 C.2   130  HIS130      0.2264
     47  O        -44.7900    0.7910    4.9090 O.2   130  HIS130     -0.2867
     48  CB       -47.9840    0.0450    5.7650 C.3   130  HIS130      0.0745
     49  CG       -47.3200   -0.3360    7.0520 C.ar  130  HIS130      0.0817
     50  ND1      -47.2640   -1.6350    7.5000 N.ar  130  HIS130     -0.2268
     51  CD2      -46.7080    0.4140    8.0000 C.ar  130  HIS130      0.1154
     52  CE1      -46.6250   -1.6750    8.6570 C.ar  130  HIS130      0.1986
     53  NE2      -46.2730   -0.4440    8.9810 N.ar  130  HIS130     -0.2212
     54  N        -45.1990    4.2820    7.3550 N.3   132  ASP132     -0.1239
     55  CA       -45.6130    4.7440    8.6830 C.3   132  ASP132      0.1674
     56  C        -46.2790    6.1250    8.6410 C.2   132  ASP132      0.2266
     57  O        -47.1570    6.4290    9.4760 O.2   132  ASP132     -0.2867
     58  CB       -44.4010    4.7620    9.6230 C.3   132  ASP132      0.1410
     59  CG       -44.1680    3.4260   10.3240 C.2   132  ASP132      0.3668
     60  OD1      -44.9740    2.4860   10.1900 O.co2 132  ASP132     -0.2456
     61  OD2      -43.1720    3.3260   11.0500 O.co2 132  ASP132     -0.2456
     62  N        -37.8680    6.1900   12.0250 N.3   153  ASN153     -0.1240
     63  CA       -38.0390    5.0590   12.9210 C.3   153  ASN153      0.1653
     64  C        -36.6550    4.4360   13.1460 C.2   153  ASN153      0.2266
     65  O        -35.9790    4.0520   12.1840 O.2   153  ASN153     -0.2867
     66  CB       -39.0360    4.0880   12.2840 C.3   153  ASN153      0.1155
     67  CG       -39.4690    2.9420   13.1910 C.2   153  ASN153      0.2627
     68  OD1      -38.7030    2.4090   13.9790 O.2   153  ASN153     -0.2716
     69  ND2      -40.7000    2.5150   13.0140 N.am  153  ASN153     -0.0877
     70  N        -35.0600    1.2660   15.2840 N.3   155  THR155     -0.1218
     71  CA       -35.4520    0.0440   15.9880 C.3   155  THR155      0.1862
     72  C        -34.2050   -0.6660   16.5060 C.2   155  THR155      0.2287
     73  O        -33.2840   -0.9640   15.7380 O.2   155  THR155     -0.2866
     74  CB       -36.2660   -0.8910   15.0810 C.3   155  THR155      0.1770
     75  OG1      -37.4970   -0.2510   14.7310 O.3   155  THR155     -0.2211
     76  CG2      -36.6020   -2.2150   15.7840 C.3   155  THR155      0.0375
     77  N        -32.5930  -10.4600   15.6280 N.3   161  PHE161     -0.1241
     78  CA       -33.5800  -10.4340   14.5570 C.3   161  PHE161      0.1605
     79  C        -33.0860  -11.2830   13.3960 C.2   161  PHE161      0.2264
     80  O        -31.9770  -11.0830   12.9060 O.2   161  PHE161     -0.2867
     81  CB       -33.8480   -9.0100   14.0610 C.3   161  PHE161      0.0534
     82  CG       -34.8430   -8.2320   14.8910 C.ar  161  PHE161     -0.0203
     83  CD1      -35.0310   -8.5090   16.2330 C.ar  161  PHE161     -0.0042
     84  CD2      -35.5870   -7.2070   14.3100 C.ar  161  PHE161     -0.0042
     85  CE1      -35.9460   -7.7750   16.9900 C.ar  161  PHE161     -0.0003
     86  CE2      -36.4980   -6.4670   15.0600 C.ar  161  PHE161     -0.0003
     87  CZ       -36.6750   -6.7570   16.4050 C.ar  161  PHE161     -0.0000
     88  N        -38.0780   -7.2930   10.9730 N.3   168  THR168     -0.1218
     89  CA       -38.7560   -6.3170   10.1180 C.3   168  THR168      0.1862
     90  C        -38.4220   -6.5030    8.6390 C.2   168  THR168      0.2287
     91  O        -37.2550   -6.5860    8.2560 O.2   168  THR168     -0.2866
     92  CB       -38.3780   -4.9000   10.5690 C.3   168  THR168      0.1770
     93  OG1      -38.6320   -4.7680   11.9740 O.3   168  THR168     -0.2211
     94  CG2      -39.1700   -3.8260    9.7930 C.3   168  THR168      0.0375
     95  N        -35.2590    3.6130    9.3760 N.3   202  PHE202     -0.1241
     96  CA       -35.9850    3.8040    8.1180 C.3   202  PHE202      0.1605
     97  C        -36.9490    4.9770    8.2500 C.2   202  PHE202      0.2264
     98  O        -37.3260    5.3760    9.3530 O.2   202  PHE202     -0.2867
     99  CB       -36.7110    2.5210    7.6610 C.3   202  PHE202      0.0534
    100  CG       -37.7580    2.0100    8.6200 C.ar  202  PHE202     -0.0203
    101  CD1      -39.0610    2.4960    8.5750 C.ar  202  PHE202     -0.0042
    102  CD2      -37.4480    1.0140    9.5330 C.ar  202  PHE202     -0.0042
    103  CE1      -40.0310    2.0240    9.4520 C.ar  202  PHE202     -0.0003
    104  CE2      -38.3960    0.5280   10.4000 C.ar  202  PHE202     -0.0003
    105  CZ       -39.7000    1.0310   10.3650 C.ar  202  PHE202     -0.0000
    106  N        -42.3600   -1.1480    4.5990 N.3   208  HIS208     -0.1226
    107  CA       -41.8050   -2.0980    5.5440 C.3   208  HIS208      0.1752
    108  C        -42.9850   -2.8000    6.1930 C.2   208  HIS208      0.2597
    109  O        -44.1450   -2.4990    5.9110 O.2   208  HIS208     -0.2718
    110  CB       -40.9810   -1.3790    6.6080 C.3   208  HIS208      0.0759
    111  CG       -41.8360   -0.5530    7.5120 C.ar  208  HIS208      0.0818
    112  ND1      -42.3740    0.6490    7.1110 N.ar  208  HIS208     -0.2268
    113  CD2      -42.3560   -0.8090    8.7370 C.ar  208  HIS208      0.1154
    114  CE1      -43.1740    1.1110    8.0570 C.ar  208  HIS208      0.1986
    115  NE2      -43.1750    0.2500    9.0590 N.ar  208  HIS208     -0.2212
    116  N        -42.6940   -3.6880    7.1180 N.am  209  GLY209     -0.1942
    117  CA       -43.7410   -4.2530    7.9440 C.3   209  GLY209      0.2014
    118  C        -43.1640   -5.3510    8.8020 C.2   209  GLY209      0.2639
    119  O        -42.1250   -5.9380    8.4790 O.2   209  GLY209     -0.2714
    120  N        -43.8470   -5.6130    9.9110 N.am  210  GLY210     -0.1954
    121  CA       -43.4470   -6.7250   10.7490 C.3   210  GLY210      0.1869
    122  C        -43.5790   -8.0420   10.0050 C.2   210  GLY210      0.2309
    123  O        -44.5640   -8.2840    9.3030 O.2   210  GLY210     -0.2863
    124  N        -40.1320  -12.2320   19.5910 N.3   219  ARG219     -0.1245
    125  CA       -39.1810  -11.3470   18.9220 C.3   219  ARG219      0.1563
    126  C        -39.5040   -9.9320   19.3640 C.2   219  ARG219      0.2260
    127  O        -40.6090   -9.4490   19.1190 O.2   219  ARG219     -0.2867
    128  CB       -39.2820  -11.4490   17.3990 C.3   219  ARG219      0.0307
    129  CG       -38.2000  -10.6940   16.6470 C.3   219  ARG219      0.0489
    130  CD       -38.8060   -9.7610   15.6170 C.3   219  ARG219      0.2205
    131  NE       -39.6160   -8.7330   16.2600 N.pl3 219  ARG219     -0.0865
    132  CZ       -40.2150   -7.7280   15.6280 C.cat 219  ARG219      0.5346
    133  NH1      -40.9280   -6.8510   16.3260 N.pl3 219  ARG219      0.1354
    134  NH2      -40.1070   -7.6050   14.3100 N.pl3 219  ARG219      0.1354
@<TRIPOS>BOND
     1    44    45    1
     2    45    46    1
     3    45    48    1
     4   106   107    1
     5    46    47    2
     6   107   108    1
     7   107   110    1
     8    48    49    1
     9   109   108    2
    10   108   116   am
    11    38    37    2
    12   110   111    1
    13    49    50   ar
    14    49    51   ar
    15   112   111   ar
    16   112   114   ar
    17   116   117    1
    18    37    36    1
    19    54    55    1
    20    50    52   ar
    21   111   113   ar
    22    99    96    1
    23    99   100    1
    24   117   118    1
    25    51    53   ar
    26   114   115   ar
    27    96    97    1
    28    96    95    1
    29    97    98    2
    30    91    90    2
    31     1     2    1
    32   119   118    2
    33     2     3    1
    34     2     5    1
    35   101   100   ar
    36   101   103   ar
    37   100   102   ar
    38    90    89    1
    39    56    55    1
    40    56    57    2
    41    52    53   ar
    42    36    35    1
    43    36    39    1
    44    55    58    1
    45   113   115   ar
    46   118   120   am
    47     7     5    1
    48     3     4    2
    49   123   122    2
    50    39    40    1
    51   103   105   ar
    52     5     6    1
    53   102   104   ar
    54    58    59    1
    55    94    92    1
    56   120   121    1
    57   122   121    1
    58    89    92    1
    59    89    88    1
    60    60    59   ar
    61    59    61   ar
    62   105   104   ar
    63    92    93    1
    64    42    41    2
    65    40    41    1
    66     6     8    1
    67    41    43   am
    68    62    63    1
    69    65    64    2
    70    66    63    1
    71    66    67    1
    72    80    79    2
    73    63    64    1
    74    69    67   am
    75    67    68    2
    76    79    78    1
    77    34    33    1
    78    81    78    1
    79    81    82    1
    80   134   132    1
    81    84    82   ar
    82    84    86   ar
    83    78    77    1
    84    75    74    1
    85    82    83   ar
    86    86    87   ar
    87    74    76    1
    88    74    71    1
    89    33    32    1
    90    70    71    1
    91   130   131    1
    92   130   129    1
    93   132   131    2
    94   132   133    1
    95    32    31    1
    96    73    72    2
    97    71    72    1
    98    83    85   ar
    99    87    85   ar
   100    31    28    1
   101   129   128    1
   102    25    24    1
   103    17    18   ar
   104    17    15   ar
   105    18    16   ar
   106    26    24    1
   107   128   125    1
   108    24    23    1
   109    15    14   ar
   110    28    29    1
   111    28    27    1
   112    23    20    1
   113    16    14   ar
   114    29    30    2
   115   125   126    1
   116   125   124    1
   117    14    13    1
   118   127   126    2
   119    22    21    2
   120    20    21    1
   121    20    19    1
   122    13    10    1
   123    10     9    1
   124    10    11    1
   125    11    12    2
