@<TRIPOS>MOLECULE
tmp/5zm3B01.pdb
 191 179 0 0 0
SMALL
GASTEIGER

@<TRIPOS>ATOM
      1  N        -55.2700   -4.4770   18.9360 N.3    57  ALA57      -0.1231
      2  CA       -55.6150   -3.0820   18.6960 C.3    57  ALA57       0.1694
      3  C        -55.8830   -2.3450   20.0080 C.2    57  ALA57       0.2591
      4  O        -56.2930   -2.9390   21.0120 O.2    57  ALA57      -0.2718
      5  CB       -56.8410   -2.9970   17.7830 C.3    57  ALA57       0.0304
      6  N        -55.6150   -1.0380   20.0000 N.am   58  LYS58      -0.1980
      7  CA       -56.1470   -0.1450   21.0180 C.3    58  LYS58       0.1596
      8  C        -57.6310    0.0940   20.7580 C.2    58  LYS58       0.2287
      9  O        -58.1260   -0.1150   19.6450 O.2    58  LYS58      -0.2864
     10  CB       -55.3960    1.1900   21.0350 C.3    58  LYS58       0.0298
     11  CG       -54.2400    1.2620   22.0170 C.3    58  LYS58       0.0038
     12  CD       -53.0250    0.5480   21.4790 C.3    58  LYS58       0.0206
     13  CE       -52.0150    0.2850   22.5780 C.3    58  LYS58       0.1093
     14  NZ       -50.8010   -0.4120   22.0540 N.3    58  LYS58      -0.1314
     15  N        -59.5250    1.4740   17.1750 N.3    61  GLU61      -0.1231
     16  CA       -58.5800    1.7560   16.0980 C.3    61  GLU61       0.1699
     17  C        -58.7210    0.6960   15.0110 C.2    61  GLU61       0.2592
     18  O        -58.5650   -0.4980   15.2830 O.2    61  GLU61      -0.2718
     19  CB       -57.1370    1.8240   16.6200 C.3    61  GLU61       0.0402
     20  CG       -56.8530    3.0830   17.4470 C.3    61  GLU61       0.1161
     21  CD       -55.3710    3.4050   17.6410 C.2    61  GLU61       0.3649
     22  OE1      -54.5080    2.5090   17.5050 O.co2  61  GLU61      -0.2457
     23  OE2      -55.0630    4.5760   17.9510 O.co2  61  GLU61      -0.2457
     24  N        -59.0250    1.1420   13.7890 N.am   62  GLN62      -0.1966
     25  CA       -59.0980    0.2520   12.6290 C.3    62  GLN62       0.1733
     26  C        -57.7610   -0.4570   12.4050 C.2    62  GLN62       0.2617
     27  O        -56.6880    0.1450   12.5320 O.2    62  GLN62      -0.2715
     28  CB       -59.4940    1.0480   11.3760 C.3    62  GLN62       0.0408
     29  CG       -58.5300    2.1880   11.0440 C.3    62  GLN62       0.0908
     30  CD       -58.7630    2.7950    9.6730 C.2    62  GLN62       0.2608
     31  OE1      -57.8150    3.1450    8.9660 O.2    62  GLN62      -0.2717
     32  NE2      -60.0260    2.9280    9.2920 N.am   62  GLN62      -0.0878
     33  N        -57.8310   -1.7470   12.0400 N.am   63  THR63      -0.1951
     34  CA       -56.6790   -2.6430   12.0980 C.3    63  THR63       0.1897
     35  C        -56.1060   -3.0490   10.7430 C.2    63  THR63       0.2313
     36  O        -54.9730   -3.5420   10.6950 O.2    63  THR63      -0.2863
     37  CB       -57.0510   -3.9250   12.8640 C.3    63  THR63       0.1794
     38  OG1      -58.2580   -4.4760   12.3180 O.3    63  THR63      -0.2208
     39  CG2      -57.2590   -3.6360   14.3440 C.3    63  THR63       0.0378
     40  N        -54.9840   -1.7150    7.8950 N.3    65  ILE65      -0.1231
     41  CA       -54.0180   -1.0260    7.0340 C.3    65  ILE65       0.1692
     42  C        -52.6430   -1.6860    7.1130 C.2    65  ILE65       0.2591
     43  O        -51.9320   -1.7950    6.1050 O.2    65  ILE65      -0.2718
     44  CB       -53.9450    0.4750    7.3870 C.3    65  ILE65       0.0266
     45  CG1      -55.2620    1.1700    7.0460 C.3    65  ILE65       0.0019
     46  CG2      -52.7990    1.1630    6.6450 C.3    65  ILE65       0.0020
     47  CD1      -55.5920    1.1200    5.5800 C.3    65  ILE65       0.0001
     48  N        -52.2400   -2.1230    8.3080 N.am   66  ILE66      -0.1980
     49  CA       -50.9460   -2.7500    8.5360 C.3    66  ILE66       0.1595
     50  C        -51.0890   -4.1740    9.0820 C.2    66  ILE66       0.2287
     51  O        -50.1190   -4.7460    9.5680 O.2    66  ILE66      -0.2864
     52  CB       -50.0610   -1.8730    9.4530 C.3    66  ILE66       0.0276
     53  CG1      -50.4660   -1.9390   10.9220 C.3    66  ILE66       0.0022
     54  CG2      -50.1310   -0.4060    9.0400 C.3    66  ILE66       0.0022
     55  CD1      -49.5960   -1.0470   11.7950 C.3    66  ILE66       0.0001
     56  N        -53.0590   -5.4160   11.8150 N.3    68  MET68      -0.1245
     57  CA       -52.9500   -5.3520   13.2740 C.3    68  MET68       0.1570
     58  C        -53.6990   -6.5520   13.8490 C.2    68  MET68       0.2261
     59  O        -54.8940   -6.7220   13.5700 O.2    68  MET68      -0.2867
     60  CB       -53.5460   -4.0420   13.7970 C.3    68  MET68       0.0387
     61  CG       -53.1070   -3.5730   15.2070 C.3    68  MET68       0.0595
     62  SD       -51.3620   -3.8180   15.7190 S.3    68  MET68      -0.1393
     63  CE       -51.5720   -5.1730   16.8440 C.3    68  MET68       0.0692
     64  N        -47.8100   -4.3900   21.4100 N.3    74  HIS74      -0.1241
     65  CA       -47.1410   -3.0930   21.3910 C.3    74  HIS74       0.1621
     66  C        -47.2660   -2.4690   22.7730 C.2    74  HIS74       0.2264
     67  O        -48.3490   -2.4740   23.3650 O.2    74  HIS74      -0.2867
     68  CB       -47.7620   -2.1420   20.3640 C.3    74  HIS74       0.0745
     69  CG       -47.3600   -2.4090   18.9500 C.ar   74  HIS74       0.0817
     70  ND1      -47.7070   -1.5710   17.9130 N.ar   74  HIS74      -0.2268
     71  CD2      -46.6490   -3.4170   18.3950 C.ar   74  HIS74       0.1154
     72  CE1      -47.2340   -2.0550   16.7780 C.ar   74  HIS74       0.1986
     73  NE2      -46.5860   -3.1750   17.0450 N.ar   74  HIS74      -0.2212
     74  N        -42.4370   10.8280   18.2620 N.3   113  ASN113     -0.1225
     75  CA       -43.8200   10.3870   18.1150 C.3   113  ASN113      0.1785
     76  C        -44.1790    9.4640   19.2620 C.2   113  ASN113      0.2597
     77  O        -45.2340    9.6090   19.8920 O.2   113  ASN113     -0.2718
     78  CB       -44.0320    9.6700   16.7810 C.3   113  ASN113      0.1169
     79  CG       -45.4520    9.1450   16.6250 C.2   113  ASN113      0.2627
     80  OD1      -46.3580    9.8760   16.2410 O.2   113  ASN113     -0.2716
     81  ND2      -45.6520    7.8750   16.9390 N.am  113  ASN113     -0.0877
     82  N        -43.2880    8.5220   19.5530 N.am  114  MET114     -0.1979
     83  CA       -43.3850    7.7430   20.7790 C.3   114  MET114      0.1605
     84  C        -42.1880    6.8100   20.8230 C.2   114  MET114      0.2287
     85  O        -41.4370    6.6760   19.8480 O.2   114  MET114     -0.2864
     86  CB       -44.6810    6.9380   20.8860 C.3   114  MET114      0.0413
     87  CG       -44.7750    5.7630   19.9480 C.3   114  MET114      0.0598
     88  SD       -46.3810    4.9680   20.0700 S.3   114  MET114     -0.1393
     89  CE       -46.6440    4.9500   21.8370 C.3   114  MET114      0.0692
     90  N        -41.6790    2.7330   21.6640 N.3   116  ASN116     -0.1240
     91  CA       -42.6130    1.6200   21.5910 C.3   116  ASN116      0.1653
     92  C        -41.8770    0.2890   21.5800 C.2   116  ASN116      0.2266
     93  O        -40.9570    0.0910   20.7880 O.2   116  ASN116     -0.2867
     94  CB       -43.5000    1.7510   20.3430 C.3   116  ASN116      0.1155
     95  CG       -44.8490    1.1050   20.5240 C.2   116  ASN116      0.2627
     96  OD1      -45.2730    0.8650   21.6550 O.2   116  ASN116     -0.2716
     97  ND2      -45.5250    0.7960   19.4180 N.am  116  ASN116     -0.0877
     98  N        -41.9860   -3.5140   20.5260 N.3   118  LEU118     -0.1245
     99  CA       -42.5780   -4.2860   19.4350 C.3   118  LEU118      0.1561
    100  C        -42.3270   -5.7690   19.7110 C.2   118  LEU118      0.2260
    101  O        -41.2940   -6.3250   19.3210 O.2   118  LEU118     -0.2867
    102  CB       -42.0070   -3.8580   18.0950 C.3   118  LEU118      0.0270
    103  CG       -42.0530   -2.3690   17.7350 C.3   118  LEU118      0.0019
    104  CD1      -41.0240   -2.0630   16.6620 C.3   118  LEU118      0.0001
    105  CD2      -43.4080   -1.9850   17.2470 C.3   118  LEU118      0.0001
    106  N        -46.4100   -1.2510    4.4190 N.3   130  HIS130     -0.1226
    107  CA       -47.0420    0.0410    4.5640 C.3   130  HIS130      0.1752
    108  C        -45.9690    1.0980    4.7420 C.2   130  HIS130      0.2596
    109  O        -44.7900    0.7910    4.9090 O.2   130  HIS130     -0.2718
    110  CB       -47.9840    0.0450    5.7650 C.3   130  HIS130      0.0759
    111  CG       -47.3200   -0.3360    7.0520 C.ar  130  HIS130      0.0818
    112  ND1      -47.2640   -1.6350    7.5000 N.ar  130  HIS130     -0.2268
    113  CD2      -46.7080    0.4140    8.0000 C.ar  130  HIS130      0.1154
    114  CE1      -46.6250   -1.6750    8.6570 C.ar  130  HIS130      0.1986
    115  NE2      -46.2730   -0.4440    8.9810 N.ar  130  HIS130     -0.2212
    116  N        -46.3950    2.3550    4.7010 N.am  131  ARG131     -0.1966
    117  CA       -45.5890    3.5070    5.0720 C.3   131  ARG131      0.1729
    118  C        -46.1070    4.0160    6.4130 C.2   131  ARG131      0.2616
    119  O        -47.3180    4.1650    6.5900 O.2   131  ARG131     -0.2715
    120  CB       -45.6710    4.6090    4.0030 C.3   131  ARG131      0.0348
    121  CG       -45.0710    4.2500    2.6300 C.3   131  ARG131      0.0492
    122  CD       -45.2370    5.4090    1.6120 C.3   131  ARG131      0.2205
    123  NE       -44.3060    5.3070    0.4880 N.pl3 131  ARG131     -0.0865
    124  CZ       -44.2610    6.1380   -0.5480 C.cat 131  ARG131      0.5346
    125  NH1      -45.0930    7.1440   -0.6360 N.pl3 131  ARG131      0.1354
    126  NH2      -43.3720    5.9680   -1.4990 N.pl3 131  ARG131      0.1354
    127  N        -45.1990    4.2820    7.3550 N.am  132  ASP132     -0.1971
    128  CA       -45.6130    4.7440    8.6830 C.3   132  ASP132      0.1709
    129  C        -46.2790    6.1250    8.6410 C.2   132  ASP132      0.2293
    130  O        -47.1570    6.4290    9.4760 O.2   132  ASP132     -0.2864
    131  CB       -44.4010    4.7620    9.6230 C.3   132  ASP132      0.1436
    132  CG       -44.1680    3.4260   10.3240 C.2   132  ASP132      0.3671
    133  OD1      -44.9740    2.4860   10.1900 O.co2 132  ASP132     -0.2456
    134  OD2      -43.1720    3.3260   11.0500 O.co2 132  ASP132     -0.2456
    135  N        -48.4920    7.2290    6.8740 N.3   134  TYR134     -0.1227
    136  CA       -49.9360    7.1780    6.7140 C.3   134  TYR134      0.1736
    137  C        -50.6580    7.6130    7.9830 C.2   134  TYR134      0.2595
    138  O        -51.8390    7.9530    7.9180 O.2   134  TYR134     -0.2718
    139  CB       -50.3760    5.7690    6.3200 C.3   134  TYR134      0.0548
    140  CG       -51.8530    5.6680    5.9860 C.ar  134  TYR134     -0.0200
    141  CD1      -52.3120    5.9600    4.7050 C.ar  134  TYR134     -0.0009
    142  CD2      -52.7940    5.2860    6.9490 C.ar  134  TYR134     -0.0009
    143  CE1      -53.6620    5.8770    4.3840 C.ar  134  TYR134      0.0417
    144  CE2      -54.1440    5.2040    6.6350 C.ar  134  TYR134      0.0417
    145  CZ       -54.5690    5.5020    5.3480 C.ar  134  TYR134      0.1957
    146  OH       -55.8980    5.4100    5.0090 O.3   134  TYR134     -0.2866
    147  N        -49.9780    7.6220    9.1350 N.am  135  LEU135     -0.1980
    148  CA       -50.6400    8.0510   10.3660 C.3   135  LEU135      0.1596
    149  C        -51.1090    9.5110   10.3030 C.2   135  LEU135      0.2287
    150  O        -52.1000    9.8680   10.9530 O.2   135  LEU135     -0.2864
    151  CB       -49.6960    7.8420   11.5520 C.3   135  LEU135      0.0297
    152  CG       -50.1600    8.3250   12.9280 C.3   135  LEU135      0.0022
    153  CD1      -51.5090    7.7420   13.2610 C.3   135  LEU135      0.0001
    154  CD2      -49.1430    8.0050   14.0160 C.3   135  LEU135      0.0001
    155  N        -41.3500   11.2400    9.4920 N.3   151  MET151     -0.1245
    156  CA       -41.0280   10.3010   10.5560 C.3   151  MET151      0.1570
    157  C        -39.7360    9.5580   10.2510 C.2   151  MET151      0.2261
    158  O        -39.5040    9.1380    9.1140 O.2   151  MET151     -0.2867
    159  CB       -42.1680    9.2980   10.7550 C.3   151  MET151      0.0387
    160  CG       -42.1030    8.5550   12.0780 C.3   151  MET151      0.0595
    161  SD       -43.4940    7.4560   12.3150 S.3   151  MET151     -0.1393
    162  CE       -44.8900    8.5710   12.1470 C.3   151  MET151      0.0692
    163  N        -37.8680    6.1900   12.0250 N.3   153  ASN153     -0.1240
    164  CA       -38.0390    5.0590   12.9210 C.3   153  ASN153      0.1653
    165  C        -36.6550    4.4360   13.1460 C.2   153  ASN153      0.2266
    166  O        -35.9790    4.0520   12.1840 O.2   153  ASN153     -0.2867
    167  CB       -39.0360    4.0880   12.2840 C.3   153  ASN153      0.1155
    168  CG       -39.4690    2.9420   13.1910 C.2   153  ASN153      0.2627
    169  OD1      -38.7030    2.4090   13.9790 O.2   153  ASN153     -0.2716
    170  ND2      -40.7000    2.5150   13.0140 N.am  153  ASN153     -0.0877
    171  N        -38.6580    0.5220   19.2510 N.3   223  ALA223     -0.1245
    172  CA       -38.7840    1.5250   18.2050 C.3   223  ALA223      0.1562
    173  C        -38.8340    2.9040   18.8500 C.2   223  ALA223      0.2260
    174  O        -39.7880    3.2310   19.5600 O.2   223  ALA223     -0.2867
    175  CB       -40.0360    1.2850   17.3650 C.3   223  ALA223      0.0290
    176  N        -39.4710    6.3610   17.5810 N.3   225  ALA225     -0.1245
    177  CA       -40.0180    7.0590   16.4230 C.3   225  ALA225      0.1562
    178  C        -40.0700    8.5570   16.6910 C.2   225  ALA225      0.2260
    179  O        -40.7990    9.0000   17.6000 O.2   225  ALA225     -0.2867
    180  CB       -41.4100    6.5400   16.0710 C.3   225  ALA225      0.0290
    181  N        -47.9680   10.7820   19.3140 N.3   234  ARG234     -0.1245
    182  CA       -48.9950    9.7990   19.6520 C.3   234  ARG234      0.1563
    183  C        -49.0550    9.5290   21.1550 C.2   234  ARG234      0.2260
    184  O        -50.1170    9.1740   21.6740 O.2   234  ARG234     -0.2867
    185  CB       -48.7460    8.4860   18.9050 C.3   234  ARG234      0.0307
    186  CG       -49.7600    7.3780   19.2230 C.3   234  ARG234      0.0489
    187  CD       -49.6300    6.2400   18.2370 C.3   234  ARG234      0.2205
    188  NE       -50.2470    4.9920   18.6880 N.pl3 234  ARG234     -0.0865
    189  CZ       -51.5190    4.6650   18.4790 C.cat 234  ARG234      0.5346
    190  NH1      -52.3220    5.5030   17.8490 N.pl3 234  ARG234      0.1354
    191  NH2      -51.9880    3.5010   18.9080 N.pl3 234  ARG234      0.1354
@<TRIPOS>BOND
     1   126   124    1
     2   125   124    1
     3   124   123    2
     4   123   122    1
     5   122   121    1
     6   121   120    1
     7   120   117    1
     8   143   141   ar
     9   143   145   ar
    10   106   107    1
    11   107   108    1
    12   107   110    1
    13   116   108   am
    14   116   117    1
    15   141   140   ar
    16   108   109    2
    17   146   145    1
    18   117   118    1
    19   145   144   ar
    20    47    45    1
    21   110   111    1
    22   140   139    1
    23   140   142   ar
    24    43    42    2
    25   139   136    1
    26   118   119    2
    27   118   127   am
    28   144   142   ar
    29    46    44    1
    30   136   135    1
    31   136   137    1
    32    41    42    1
    33    41    44    1
    34    41    40    1
    35    45    44    1
    36   111   112   ar
    37   111   113   ar
    38    42    48   am
    39   127   128    1
    40   112   114   ar
    41   138   137    2
    42   137   147   am
    43   113   115   ar
    44    48    49    1
    45    49    50    1
    46    49    52    1
    47   129   128    1
    48   129   130    2
    49   114   115   ar
    50   128   131    1
    51    31    30    2
    52    54    52    1
    53    50    51    2
    54   158   157    2
    55   147   148    1
    56    32    30   am
    57    52    53    1
    58   155   156    1
    59   131   132    1
    60    30    29    1
    61   133   132   ar
    62   157   156    1
    63   149   148    1
    64   149   150    2
    65   132   134   ar
    66   148   151    1
    67   156   159    1
    68    36    35    2
    69    35    34    1
    70   159   160    1
    71    53    55    1
    72    29    28    1
    73    28    25    1
    74   151   152    1
    75    56    57    1
    76   163   164    1
    77    33    34    1
    78    33    26   am
    79   160   161    1
    80    34    37    1
    81   162   161    1
    82   166   165    2
    83   167   164    1
    84   167   168    1
    85    38    37    1
    86    26    27    2
    87    26    25    1
    88    25    24    1
    89    37    39    1
    90   164   165    1
    91   152   153    1
    92   152   154    1
    93   170   168   am
    94   168   169    2
    95    57    60    1
    96    57    58    1
    97    59    58    2
    98    24    17   am
    99    60    61    1
   100    17    18    2
   101    17    16    1
   102    61    62    1
   103    62    63    1
   104   180   177    1
   105    16    19    1
   106    16    15    1
   107    80    79    2
   108   177   178    1
   109   177   176    1
   110    19    20    1
   111    79    78    1
   112    79    81   am
   113   104   103    1
   114   178   179    2
   115    72    73   ar
   116    72    70   ar
   117    78    75    1
   118    73    71   ar
   119   105   103    1
   120   175   172    1
   121    20    21    1
   122    22    21   ar
   123    21    23   ar
   124   103   102    1
   125     5     2    1
   126   190   189    1
   127    70    69   ar
   128   102    99    1
   129    75    74    1
   130    75    76    1
   131   172   173    1
   132   172   171    1
   133   187   188    1
   134   187   186    1
   135    71    69   ar
   136   189   188    2
   137   189   191    1
   138     2     1    1
   139     2     3    1
   140   173   174    2
   141   185   186    1
   142   185   182    1
   143    69    68    1
   144    76    82   am
   145    76    77    2
   146   181   182    1
   147   101   100    2
   148    97    95   am
   149    99   100    1
   150    99    98    1
   151    82    83    1
   152     9     8    2
   153   182   183    1
   154    85    84    2
   155    87    88    1
   156    87    86    1
   157     6     3   am
   158     6     7    1
   159     3     4    2
   160    88    89    1
   161    94    95    1
   162    94    91    1
   163    68    65    1
   164    95    96    2
   165     8     7    1
   166    83    84    1
   167    83    86    1
   168    93    92    2
   169     7    10    1
   170    10    11    1
   171   183   184    2
   172    65    64    1
   173    65    66    1
   174    12    11    1
   175    12    13    1
   176    92    91    1
   177    91    90    1
   178    14    13    1
   179    66    67    2
