@<TRIPOS>MOLECULE
tmp/5zm5A00.pdb
 231 217 0 0 0
SMALL
GASTEIGER

@<TRIPOS>ATOM
      1  N         39.9270  -55.2750  -26.3580 N.3    24  ILE24      -0.1231
      2  CA        40.5180  -54.0220  -26.7810 C.3    24  ILE24       0.1692
      3  C         41.5550  -53.6020  -25.7740 C.2    24  ILE24       0.2593
      4  O         42.5970  -53.0720  -26.1420 O.2    24  ILE24      -0.2718
      5  CB        39.4410  -52.9450  -26.9550 C.3    24  ILE24       0.0266
      6  CG1       38.5780  -53.2690  -28.1770 C.3    24  ILE24       0.0019
      7  CG2       40.0570  -51.5470  -27.0310 C.3    24  ILE24       0.0020
      8  CD1       37.3580  -52.3740  -28.2890 C.3    24  ILE24       0.0001
      9  N         41.2640  -53.8610  -24.4960 N.am   25  GLY25      -0.1942
     10  CA        42.1490  -53.4970  -23.4130 C.3    25  GLY25       0.2014
     11  C         43.1540  -54.5900  -23.1150 C.2    25  GLY25       0.2638
     12  O         43.2970  -55.5680  -23.8520 O.2    25  GLY25      -0.2714
     13  N         43.8370  -54.4330  -21.9860 N.am   26  MET26      -0.1976
     14  CA        44.9700  -55.2910  -21.6580 C.3    26  MET26       0.1605
     15  C         44.6110  -56.3960  -20.6730 C.2    26  MET26       0.2287
     16  O         45.5080  -57.1110  -20.2180 O.2    26  MET26      -0.2864
     17  CB        46.1410  -54.4530  -21.1140 C.3    26  MET26       0.0413
     18  CG        46.6050  -53.3280  -22.0760 C.3    26  MET26       0.0598
     19  SD        47.0740  -53.9920  -23.6920 S.3    26  MET26      -0.1393
     20  CE        47.1260  -52.5260  -24.7210 C.3    26  MET26       0.0692
     21  N         42.4510  -60.9120  -29.7380 N.3    33  MET33      -0.1245
     22  CA        42.2610  -59.8010  -30.6640 C.3    33  MET33       0.1570
     23  C         42.9550  -60.0930  -31.9980 C.2    33  MET33       0.2261
     24  O         44.1540  -60.4060  -32.0160 O.2    33  MET33      -0.2867
     25  CB        42.8210  -58.5100  -30.0710 C.3    33  MET33       0.0387
     26  CG        42.9790  -57.3800  -31.0950 C.3    33  MET33       0.0595
     27  SD        41.3990  -56.6010  -31.4990 S.3    33  MET33      -0.1393
     28  CE        41.0150  -55.7730  -29.9620 C.3    33  MET33       0.0692
     29  N         44.1840  -55.8030  -36.1670 N.3    37  PHE37      -0.1241
     30  CA        43.9680  -54.6150  -35.3600 C.3    37  PHE37       0.1605
     31  C         45.2130  -54.1860  -34.6020 C.2    37  PHE37       0.2264
     32  O         45.2090  -53.0960  -34.0110 O.2    37  PHE37      -0.2867
     33  CB        42.8160  -54.8450  -34.3840 C.3    37  PHE37       0.0534
     34  CG        41.4960  -54.9860  -35.0630 C.ar   37  PHE37      -0.0203
     35  CD1       40.7800  -53.8710  -35.4500 C.ar   37  PHE37      -0.0042
     36  CD2       40.9790  -56.2320  -35.3460 C.ar   37  PHE37      -0.0042
     37  CE1       39.5620  -54.0020  -36.0960 C.ar   37  PHE37      -0.0003
     38  CE2       39.7720  -56.3600  -36.0040 C.ar   37  PHE37      -0.0003
     39  CZ        39.0630  -55.2480  -36.3700 C.ar   37  PHE37      -0.0000
     40  N         52.5200  -53.5680  -25.6570 N.3    43  PHE43      -0.1241
     41  CA        52.1140  -52.4280  -24.8480 C.3    43  PHE43       0.1605
     42  C         53.2830  -51.8840  -24.0280 C.2    43  PHE43       0.2264
     43  O         53.3760  -50.6690  -23.8080 O.2    43  PHE43      -0.2867
     44  CB        50.9380  -52.8020  -23.9380 C.3    43  PHE43       0.0534
     45  CG        50.3580  -51.6270  -23.1860 C.ar   43  PHE43      -0.0203
     46  CD1       50.0270  -50.4480  -23.8610 C.ar   43  PHE43      -0.0042
     47  CD2       50.1190  -51.7020  -21.8090 C.ar   43  PHE43      -0.0042
     48  CE1       49.4900  -49.3340  -23.1670 C.ar   43  PHE43      -0.0003
     49  CE2       49.5730  -50.6100  -21.1060 C.ar   43  PHE43      -0.0003
     50  CZ        49.2650  -49.4170  -21.7930 C.ar   43  PHE43      -0.0000
     51  N         55.0550  -49.6240  -26.4280 N.3    46  ARG46      -0.1231
     52  CA        54.2400  -48.4300  -26.6020 C.3    46  ARG46       0.1694
     53  C         54.4600  -47.4440  -25.4530 C.2    46  ARG46       0.2591
     54  O         54.6340  -46.2410  -25.6920 O.2    46  ARG46      -0.2718
     55  CB        52.7630  -48.8440  -26.7490 C.3    46  ARG46       0.0321
     56  CG        51.6870  -47.7370  -26.7020 C.3    46  ARG46       0.0489
     57  CD        51.6660  -46.8130  -27.9160 C.3    46  ARG46       0.2205
     58  NE        50.8400  -47.3150  -28.9920 N.pl3  46  ARG46      -0.0865
     59  CZ        49.7100  -46.7710  -29.4490 C.cat  46  ARG46       0.5346
     60  NH1       49.2050  -45.6560  -28.9520 N.pl3  46  ARG46       0.1354
     61  NH2       49.0820  -47.3800  -30.4420 N.pl3  46  ARG46       0.1354
     62  N         54.5120  -47.9390  -24.2010 N.am   47  LEU47      -0.1980
     63  CA        54.7110  -47.0350  -23.0680 C.3    47  LEU47       0.1596
     64  C         56.1370  -46.5030  -23.0040 C.2    47  LEU47       0.2287
     65  O         56.3600  -45.3970  -22.4890 O.2    47  LEU47      -0.2864
     66  CB        54.3690  -47.7140  -21.7470 C.3    47  LEU47       0.0297
     67  CG        52.9230  -48.1330  -21.4770 C.3    47  LEU47       0.0022
     68  CD1       52.8450  -48.8110  -20.1110 C.3    47  LEU47       0.0001
     69  CD2       51.9780  -46.9410  -21.5660 C.3    47  LEU47       0.0001
     70  N         57.0500  -42.8480  -23.8360 N.3    50  TYR50      -0.1241
     71  CA        57.1730  -41.8010  -22.8280 C.3    50  TYR50       0.1605
     72  C         58.5630  -41.1650  -22.8430 C.2    50  TYR50       0.2264
     73  O         58.6950  -39.9600  -22.6090 O.2    50  TYR50      -0.2867
     74  CB        56.9170  -42.3650  -21.4320 C.3    50  TYR50       0.0534
     75  CG        55.4750  -42.6420  -21.0690 C.ar   50  TYR50      -0.0201
     76  CD1       54.4260  -42.1970  -21.8730 C.ar   50  TYR50      -0.0009
     77  CD2       55.1590  -43.3300  -19.8890 C.ar   50  TYR50      -0.0009
     78  CE1       53.0960  -42.4350  -21.5140 C.ar   50  TYR50       0.0417
     79  CE2       53.8330  -43.5800  -19.5210 C.ar   50  TYR50       0.0417
     80  CZ        52.8000  -43.1240  -20.3350 C.ar   50  TYR50       0.1957
     81  OH        51.4810  -43.3680  -19.9850 O.3    50  TYR50      -0.2866
     82  N         53.3400  -38.1110  -23.8690 N.3    81  VAL81      -0.1245
     83  CA        52.1010  -38.6440  -24.4250 C.3    81  VAL81       0.1561
     84  C         51.8580  -38.1590  -25.8520 C.2    81  VAL81       0.2260
     85  O         50.7690  -38.3720  -26.4000 O.2    81  VAL81      -0.2867
     86  CB        50.8950  -38.2990  -23.5270 C.3    81  VAL81       0.0252
     87  CG1       51.1140  -38.8080  -22.1270 C.3    81  VAL81       0.0019
     88  CG2       50.6430  -36.8130  -23.5060 C.3    81  VAL81       0.0019
     89  N         50.7880  -40.2080  -29.7310 N.3    84  GLN84      -0.1245
     90  CA        49.5880  -41.0390  -29.8350 C.3    84  GLN84       0.1566
     91  C         48.7670  -40.7760  -31.0880 C.2    84  GLN84       0.2260
     92  O         48.0200  -41.6670  -31.5120 O.2    84  GLN84      -0.2867
     93  CB        48.6710  -40.8270  -28.6180 C.3    84  GLN84       0.0367
     94  CG        49.3490  -41.0330  -27.2940 C.3    84  GLN84       0.0905
     95  CD        50.0280  -42.3720  -27.2090 C.2    84  GLN84       0.2608
     96  OE1       49.5050  -43.3660  -27.6970 O.2    84  GLN84      -0.2717
     97  NE2       51.2080  -42.4110  -26.5960 N.am   84  GLN84      -0.0878
     98  N         47.9150  -43.2750  -33.9070 N.3    87  ARG87      -0.1231
     99  CA        48.3930  -44.5960  -33.5120 C.3    87  ARG87       0.1694
    100  C         47.1900  -45.4320  -33.0620 C.2    87  ARG87       0.2593
    101  O         46.9560  -45.7050  -31.8860 O.2    87  ARG87      -0.2718
    102  CB        49.4580  -44.4610  -32.4330 C.3    87  ARG87       0.0321
    103  CG        50.7330  -43.8060  -32.9490 C.3    87  ARG87       0.0489
    104  CD        51.5870  -44.8200  -33.7300 C.3    87  ARG87       0.2205
    105  NE        52.0040  -45.9200  -32.8550 N.pl3  87  ARG87      -0.0865
    106  CZ        53.0640  -45.8660  -32.0500 C.cat  87  ARG87       0.5346
    107  NH1       53.8140  -44.7710  -32.0110 N.pl3  87  ARG87       0.1354
    108  NH2       53.3810  -46.9040  -31.2920 N.pl3  87  ARG87       0.1354
    109  N         46.3850  -45.8060  -34.0370 N.am   88  THR88      -0.1939
    110  CA        45.1640  -46.5200  -33.7190 C.3    88  THR88       0.2028
    111  C         45.3190  -48.0240  -33.8160 C.2    88  THR88       0.2643
    112  O         44.3550  -48.7340  -33.5350 O.2    88  THR88      -0.2714
    113  CB        44.0270  -46.0510  -34.6210 C.3    88  THR88       0.1808
    114  OG1       44.4510  -46.1130  -35.9870 O.3    88  THR88      -0.2208
    115  CG2       43.6500  -44.6170  -34.2700 C.3    88  THR88       0.0379
    116  N         46.4930  -48.5220  -34.2010 N.am   89  GLY89      -0.1939
    117  CA        46.7910  -49.9320  -34.0090 C.3    89  GLY89       0.2014
    118  C         46.9250  -50.2540  -32.5270 C.2    89  GLY89       0.2639
    119  O         47.4990  -49.4830  -31.7500 O.2    89  GLY89      -0.2714
    120  N         46.3610  -51.3930  -32.1210 N.am   90  LYS90      -0.1963
    121  CA        46.4880  -51.8140  -30.7220 C.3    90  LYS90       0.1713
    122  C         47.8380  -52.4870  -30.4850 C.2    90  LYS90       0.2462
    123  O         48.1510  -53.4730  -31.1590 O.2    90  LYS90      -0.2730
    124  CB        45.3770  -52.7730  -30.3210 C.3    90  LYS90       0.0311
    125  CG        45.4250  -53.0770  -28.8280 C.3    90  LYS90       0.0038
    126  CD        44.8180  -54.4160  -28.4650 C.3    90  LYS90       0.0206
    127  CE        45.0830  -54.7320  -26.9960 C.3    90  LYS90       0.1093
    128  NZ        44.5880  -56.0900  -26.6150 N.3    90  LYS90      -0.1314
    129  N         48.6560  -52.0070  -29.5500 N.am   91  PRO91      -0.2651
    130  CA        49.8630  -52.7630  -29.2010 C.3    91  PRO91       0.1628
    131  C         49.4730  -54.1050  -28.6060 C.2    91  PRO91       0.2315
    132  O         48.3850  -54.2650  -28.0490 O.2    91  PRO91      -0.2861
    133  CB        50.5820  -51.8720  -28.1840 C.2    91  PRO91      -0.0016
    134  CG        49.6610  -50.7880  -27.8470 C.2    91  PRO91      -0.0072
    135  CD        48.4970  -50.7770  -28.7630 C.3    91  PRO91       0.1203
    136  N         51.0650  -48.3950  -15.2300 N.3   140  ILE140     -0.1245
    137  CA        49.8970  -47.9890  -15.9970 C.3   140  ILE140      0.1561
    138  C         48.9220  -49.1480  -16.0080 C.2   140  ILE140      0.2260
    139  O         49.2680  -50.2540  -16.4420 O.2   140  ILE140     -0.2867
    140  CB        50.2470  -47.5680  -17.4350 C.3   140  ILE140      0.0252
    141  CG1       51.1300  -46.3070  -17.4400 C.3   140  ILE140      0.0019
    142  CG2       48.9630  -47.3920  -18.2690 C.3   140  ILE140      0.0019
    143  CD1       50.4970  -45.0860  -16.7810 C.3   140  ILE140      0.0001
    144  N         45.4460  -49.4810  -17.8480 N.3   142  PRO142     -0.2116
    145  CA        44.5080  -48.7880  -18.7400 C.3   142  PRO142      0.1372
    146  C         43.0650  -49.2230  -18.5120 C.2   142  PRO142      0.2244
    147  O         42.6370  -50.2760  -18.9910 O.2   142  PRO142     -0.2868
    148  CB        45.0110  -49.1750  -20.1380 C.3   142  PRO142      0.0268
    149  CG        45.7840  -50.4530  -19.9480 C.3   142  PRO142      0.0207
    150  CD        46.0180  -50.6850  -18.4730 C.3   142  PRO142      0.0892
    151  N         39.1830  -49.0660  -19.0990 N.3   144  LEU144     -0.1245
    152  CA        38.3800  -48.7650  -20.2800 C.3   144  LEU144      0.1561
    153  C         36.9160  -48.5290  -19.9220 C.2   144  LEU144      0.2260
    154  O         36.3430  -49.2500  -19.1070 O.2   144  LEU144     -0.2867
    155  CB        38.4680  -49.9030  -21.2870 C.3   144  LEU144      0.0270
    156  CG        39.4660  -49.6980  -22.4210 C.3   144  LEU144      0.0019
    157  CD1       40.7850  -49.2430  -21.8740 C.3   144  LEU144      0.0001
    158  CD2       39.6360  -50.9880  -23.1690 C.3   144  LEU144      0.0001
    159  N         40.2890  -44.8200  -22.4590 N.3   153  ALA153     -0.1245
    160  CA        41.2860  -45.5390  -21.6780 C.3   153  ALA153      0.1562
    161  C         41.8620  -44.5460  -20.6730 C.2   153  ALA153      0.2260
    162  O         42.5090  -43.5650  -21.0590 O.2   153  ALA153     -0.2867
    163  CB        42.3710  -46.1440  -22.5710 C.3   153  ALA153      0.0290
    164  N         44.5920  -43.9220  -18.0830 N.3   155  PRO155     -0.2116
    165  CA        45.8510  -44.5580  -17.6830 C.3   155  PRO155      0.1372
    166  C         46.1040  -44.4070  -16.1940 C.2   155  PRO155      0.2244
    167  O         46.6640  -43.4030  -15.7520 O.2   155  PRO155     -0.2868
    168  CB        46.8950  -43.8230  -18.5330 C.3   155  PRO155      0.0268
    169  CG        46.3210  -42.4570  -18.7230 C.3   155  PRO155      0.0207
    170  CD        44.8000  -42.6140  -18.7330 C.3   155  PRO155      0.0892
    171  N         48.5600  -39.2290  -15.8680 N.3   174  ASN174     -0.1226
    172  CA        48.4490  -38.8560  -17.2690 C.3   174  ASN174      0.1770
    173  C         46.9950  -38.6030  -17.6720 C.2   174  ASN174      0.2439
    174  O         46.0540  -39.0250  -16.9890 O.2   174  ASN174     -0.2733
    175  CB        49.0880  -39.9360  -18.1400 C.3   174  ASN174      0.1168
    176  CG        50.5970  -39.7770  -18.2260 C.2   174  ASN174      0.2627
    177  OD1       51.1150  -38.6540  -18.1760 O.2   174  ASN174     -0.2716
    178  ND2       51.3120  -40.8960  -18.3160 N.am  174  ASN174     -0.0877
    179  N         46.7790  -37.8810  -18.7660 N.am  175  PRO175     -0.2729
    180  CA        45.4050  -37.6050  -19.1980 C.3   175  PRO175      0.1401
    181  C         44.7510  -38.8460  -19.7820 C.2   175  PRO175      0.2269
    182  O         45.4110  -39.8160  -20.1660 O.2   175  PRO175     -0.2865
    183  CB        45.5650  -36.5110  -20.2620 C.3   175  PRO175      0.0296
    184  CG        47.0010  -36.6220  -20.7320 C.3   175  PRO175      0.0237
    185  CD        47.7900  -37.2060  -19.6050 C.3   175  PRO175      0.0939
    186  N         42.8130  -41.0720  -22.4910 N.3   177  CYS177     -0.1235
    187  CA        42.9530  -41.2120  -23.9230 C.3   177  CYS177      0.1677
    188  C         41.6600  -41.7570  -24.4990 C.2   177  CYS177      0.2270
    189  O         41.0950  -42.7350  -24.0120 O.2   177  CYS177     -0.2867
    190  CB        44.1270  -42.1180  -24.2770 C.3   177  CYS177      0.0956
    191  SG        44.2270  -42.4800  -26.0440 S.3   177  CYS177     -0.0801
    192  N         39.3780  -43.1050  -27.7400 N.3   178  VAL178     -0.1245
    193  CA        39.3980  -43.6770  -29.0790 C.3   178  VAL178      0.1561
    194  C         38.0080  -43.5470  -29.6810 C.2   178  VAL178      0.2260
    195  O         37.0670  -44.2370  -29.2600 O.2   178  VAL178     -0.2867
    196  CB        39.8760  -45.1300  -29.0690 C.3   178  VAL178      0.0252
    197  CG1       40.0060  -45.6380  -30.4990 C.3   178  VAL178      0.0019
    198  CG2       41.2160  -45.2420  -28.3410 C.3   178  VAL178      0.0019
    199  N         34.9370  -46.3360  -32.2800 N.3   181  ILE181     -0.1245
    200  CA        35.5560  -47.6050  -31.9020 C.3   181  ILE181      0.1561
    201  C         34.8790  -48.7950  -32.5930 C.2   181  ILE181      0.2260
    202  O         35.5210  -49.8230  -32.8240 O.2   181  ILE181     -0.2867
    203  CB        35.5500  -47.7330  -30.3600 C.3   181  ILE181      0.0252
    204  CG1       36.4500  -48.8670  -29.8930 C.3   181  ILE181      0.0019
    205  CG2       34.1350  -47.9140  -29.8260 C.3   181  ILE181      0.0019
    206  CD1       37.8500  -48.8040  -30.4630 C.3   181  ILE181      0.0001
    207  N         38.9330  -44.6280  -36.9680 N.3   186  LEU186     -0.1245
    208  CA        39.4630  -44.5020  -35.6130 C.3   186  LEU186      0.1561
    209  C         40.3130  -43.2450  -35.5020 C.2   186  LEU186      0.2260
    210  O         41.1440  -42.9730  -36.3720 O.2   186  LEU186     -0.2867
    211  CB        40.3120  -45.7320  -35.2600 C.3   186  LEU186      0.0270
    212  CG        39.5950  -47.0980  -35.2890 C.3   186  LEU186      0.0019
    213  CD1       40.5700  -48.2560  -35.2520 C.3   186  LEU186      0.0001
    214  CD2       38.5790  -47.2360  -34.1530 C.3   186  LEU186      0.0001
    215  N         42.0820  -40.3570  -32.2270 N.3   188  ILE188     -0.1245
    216  CA        42.4840  -40.3200  -30.8250 C.3   188  ILE188      0.1561
    217  C         42.4920  -38.8950  -30.2890 C.2   188  ILE188      0.2260
    218  O         42.9400  -37.9520  -30.9560 O.2   188  ILE188     -0.2867
    219  CB        43.8570  -40.9930  -30.6260 C.3   188  ILE188      0.0252
    220  CG1       43.6510  -42.5090  -30.5760 C.3   188  ILE188      0.0019
    221  CG2       44.5750  -40.4670  -29.3460 C.3   188  ILE188      0.0019
    222  CD1       44.9010  -43.2920  -30.7520 C.3   188  ILE188      0.0001
    223  N         43.2410  -36.8450  -26.3440 N.3   190  GLN190     -0.1245
    224  CA        43.6270  -36.9070  -24.9470 C.3   190  GLN190      0.1566
    225  C         43.1140  -35.6610  -24.2460 C.2   190  GLN190      0.2260
    226  O         43.1790  -34.5510  -24.7840 O.2   190  GLN190     -0.2867
    227  CB        45.1370  -37.0570  -24.7980 C.3   190  GLN190      0.0367
    228  CG        45.5870  -38.4840  -25.0390 C.3   190  GLN190      0.0905
    229  CD        47.0870  -38.6520  -24.9960 C.2   190  GLN190      0.2608
    230  OE1       47.6300  -39.2630  -24.0570 O.2   190  GLN190     -0.2717
    231  NE2       47.7750  -38.1400  -26.0240 N.am  190  GLN190     -0.0878
@<TRIPOS>BOND
     1   207   208    1
     2   210   209    2
     3    39    37   ar
     4    39    38   ar
     5    29    30    1
     6    37    35   ar
     7    38    36   ar
     8   114   113    1
     9   208   209    1
    10   208   211    1
    11    35    34   ar
    12    30    31    1
    13    30    33    1
    14    36    34   ar
    15   212   211    1
    16   212   213    1
    17   212   214    1
    18    34    33    1
    19   113   115    1
    20   113   110    1
    21    31    32    2
    22   116   117    1
    23   116   111   am
    24   109   110    1
    25   109   100   am
    26   117   118    1
    27    98    99    1
    28   111   110    1
    29   111   112    2
    30   104   103    1
    31   104   105    1
    32    99   100    1
    33    99   102    1
    34   100   101    2
    35   103   102    1
    36   105   106    2
    37   202   201    2
    38   201   200    1
    39   118   120   am
    40   118   119    2
    41   199   200    1
    42   215   216    1
    43   120   121    1
    44   106   107    1
    45   106   108    1
    46    24    23    2
    47    23    22    1
    48   200   203    1
    49    92    91    2
    50    27    26    1
    51    27    28    1
    52   123   122    2
    53    26    25    1
    54    91    90    1
    55   218   217    2
    56   216   219    1
    57   216   217    1
    58   222   220    1
    59   121   122    1
    60   121   124    1
    61    22    25    1
    62    22    21    1
    63   219   220    1
    64   219   221    1
    65   197   196    1
    66   122   129   am
    67   206   204    1
    68    61    59    1
    69   203   204    1
    70   203   205    1
    71   124   125    1
    72    90    89    1
    73    90    93    1
    74   194   195    2
    75   194   193    1
    76   129   130    1
    77   129   135    1
    78    59    58    2
    79    59    60    1
    80   130   131    1
    81   130   133    1
    82   193   196    1
    83   193   192    1
    84   196   198    1
    85    58    57    1
    86   125   126    1
    87   135   134    1
    88    93    94    1
    89   131   132    2
    90   126   127    1
    91     8     6    1
    92   133   134    2
    93     6     5    1
    94    57    56    1
    95    96    95    2
    96    94    95    1
    97    95    97   am
    98     7     5    1
    99   127   128    1
   100     5     2    1
   101     2     1    1
   102     2     3    1
   103    55    56    1
   104    55    52    1
   105    52    51    1
   106    52    53    1
   107    85    84    2
   108   223   224    1
   109     4     3    2
   110   191   190    1
   111   231   229   am
   112    84    83    1
   113     3     9   am
   114    54    53    2
   115    40    41    1
   116    53    62   am
   117   228   229    1
   118   228   227    1
   119   229   230    2
   120   224   227    1
   121   224   225    1
   122    41    42    1
   123    41    44    1
   124   226   225    2
   125    20    19    1
   126   188   189    2
   127   188   187    1
   128     9    10    1
   129    83    82    1
   130    83    86    1
   131   190   187    1
   132    62    63    1
   133    42    43    2
   134    44    45    1
   135   187   186    1
   136    46    45   ar
   137    46    48   ar
   138    12    11    2
   139    70    71    1
   140    19    18    1
   141    86    88    1
   142    86    87    1
   143    10    11    1
   144    45    47   ar
   145   158   156    1
   146    48    50   ar
   147    11    13   am
   148    63    64    1
   149    63    66    1
   150    64    65    2
   151    72    71    1
   152    72    73    2
   153    71    74    1
   154   163   160    1
   155   159   160    1
   156   156   157    1
   157   156   155    1
   158    18    17    1
   159    13    14    1
   160    76    78   ar
   161    76    75   ar
   162    47    49   ar
   163    50    49   ar
   164    66    67    1
   165   160   161    1
   166    14    17    1
   167    14    15    1
   168    69    67    1
   169    78    80   ar
   170    67    68    1
   171    74    75    1
   172   155   152    1
   173    75    77   ar
   174   162   161    2
   175   184   183    1
   176   184   185    1
   177    15    16    2
   178    80    81    1
   179    80    79   ar
   180   152   153    1
   181   152   151    1
   182   183   180    1
   183   182   181    2
   184   148   149    1
   185   148   145    1
   186   149   150    1
   187   153   154    2
   188    77    79   ar
   189   181   180    1
   190   185   179    1
   191   180   179    1
   192   147   146    2
   193   179   173   am
   194   145   146    1
   195   145   144    1
   196   170   169    1
   197   170   164    1
   198   169   168    1
   199   168   165    1
   200   150   144    1
   201   178   176   am
   202   142   140    1
   203   176   177    2
   204   176   175    1
   205   175   172    1
   206   164   165    1
   207   165   166    1
   208   173   172    1
   209   173   174    2
   210   141   140    1
   211   141   143    1
   212   140   137    1
   213   172   171    1
   214   139   138    2
   215   166   167    2
   216   138   137    1
   217   137   136    1
