@<TRIPOS>MOLECULE
tmp/5zmqD00.pdb
 146 144 0 0 0
SMALL
GASTEIGER

@<TRIPOS>ATOM
      1  N        -18.4960   26.3580  -41.0660 N.3    20  VAL20      -0.1245
      2  CA       -18.2960   25.0970  -40.3690 C.3    20  VAL20       0.1561
      3  C        -19.4760   24.1560  -40.5670 C.2    20  VAL20       0.2260
      4  O        -19.4130   22.9860  -40.1860 O.2    20  VAL20      -0.2867
      5  CB       -18.0720   25.3190  -38.8640 C.3    20  VAL20       0.0252
      6  CG1      -16.7480   26.0350  -38.6290 C.3    20  VAL20       0.0019
      7  CG2      -19.2300   26.1050  -38.2660 C.3    20  VAL20       0.0019
      8  N        -25.4900   18.3240  -34.8430 N.3    34  TRP34      -0.1227
      9  CA       -24.9670   18.7260  -33.5430 C.3    34  TRP34       0.1737
     10  C        -23.4720   19.0220  -33.5690 C.2    34  TRP34       0.2595
     11  O        -23.0260   20.0000  -32.9760 O.2    34  TRP34      -0.2718
     12  CB       -25.2590   17.6510  -32.4930 C.3    34  TRP34       0.0564
     13  CG       -25.0740   18.1410  -31.0860 C.ar   34  TRP34       0.0003
     14  CD1      -26.0230   18.7070  -30.2820 C.ar   34  TRP34       0.0946
     15  CD2      -23.8620   18.1190  -30.3200 C.ar   34  TRP34       0.0152
     16  NE1      -25.4770   19.0350  -29.0660 N.ar   34  TRP34      -0.2442
     17  CE2      -24.1520   18.6840  -29.0640 C.ar   34  TRP34       0.0810
     18  CE3      -22.5610   17.6740  -30.5750 C.ar   34  TRP34       0.0012
     19  CZ2      -23.1900   18.8160  -28.0650 C.ar   34  TRP34       0.0191
     20  CZ3      -21.6070   17.8070  -29.5810 C.ar   34  TRP34       0.0001
     21  CH2      -21.9270   18.3720  -28.3430 C.ar   34  TRP34       0.0015
     22  N        -22.6980   18.1880  -34.2590 N.am   35  HIS35      -0.1975
     23  CA       -21.2460   18.3450  -34.2730 C.3    35  HIS35       0.1656
     24  C        -20.8130   19.6680  -34.9060 C.2    35  HIS35       0.2291
     25  O        -19.6840   20.1150  -34.7080 O.2    35  HIS35      -0.2864
     26  CB       -20.5830   17.1730  -35.0060 C.3    35  HIS35       0.0771
     27  CG       -20.7910   17.1820  -36.4900 C.ar   35  HIS35       0.0820
     28  ND1      -21.7680   16.4330  -37.1090 N.ar   35  HIS35      -0.2267
     29  CD2      -20.1420   17.8440  -37.4770 C.ar   35  HIS35       0.1154
     30  CE1      -21.7130   16.6350  -38.4130 C.ar   35  HIS35       0.1986
     31  NE2      -20.7370   17.4890  -38.6630 N.ar   35  HIS35      -0.2212
     32  N        -26.7320   14.1360  -29.2250 N.3    56  VAL56      -0.1245
     33  CA       -25.4070   13.8110  -29.7400 C.3    56  VAL56       0.1561
     34  C        -25.4030   12.5170  -30.5500 C.2    56  VAL56       0.2260
     35  O        -24.7740   12.4440  -31.6080 O.2    56  VAL56      -0.2867
     36  CB       -24.3800   13.7070  -28.5920 C.3    56  VAL56       0.0252
     37  CG1      -23.1170   12.9860  -29.0440 C.3    56  VAL56       0.0019
     38  CG2      -24.0420   15.0910  -28.0710 C.3    56  VAL56       0.0019
     39  N        -26.7960   13.2150  -33.5180 N.3    59  ASP59      -0.1239
     40  CA       -26.0010   14.3100  -34.0650 C.3    59  ASP59       0.1674
     41  C        -26.9120   15.3580  -34.6960 C.2    59  ASP59       0.2266
     42  O        -26.6880   15.7970  -35.8210 O.2    59  ASP59      -0.2867
     43  CB       -24.9810   13.7920  -35.0850 C.3    59  ASP59       0.1410
     44  CG       -23.9350   14.8270  -35.4420 C.2    59  ASP59       0.3668
     45  OD1      -23.6080   15.6670  -34.5800 O.co2  59  ASP59      -0.2456
     46  OD2      -23.4360   14.8020  -36.5870 O.co2  59  ASP59      -0.2456
     47  N        -19.6290   13.0290  -51.9810 N.3   113  ASP113     -0.1225
     48  CA       -18.4460   13.4880  -51.2640 C.3   113  ASP113      0.1805
     49  C        -18.3110   15.0060  -51.3070 C.2   113  ASP113      0.2598
     50  O        -18.0500   15.5870  -52.3620 O.2   113  ASP113     -0.2718
     51  CB       -17.1890   12.8350  -51.8470 C.3   113  ASP113      0.1424
     52  CG       -16.0170   12.8620  -50.8870 C.2   113  ASP113      0.3668
     53  OD1      -16.0040   13.7180  -49.9800 O.co2 113  ASP113     -0.2456
     54  OD2      -15.1040   12.0250  -51.0410 O.co2 113  ASP113     -0.2456
     55  N        -18.4710   15.6410  -50.1500 N.am  114  TYR114     -0.1963
     56  CA       -18.3510   17.0910  -50.0460 C.3   114  TYR114      0.1756
     57  C        -17.5020   17.4950  -48.8450 C.2   114  TYR114      0.2461
     58  O        -17.5150   16.8160  -47.8190 O.2   114  TYR114     -0.2730
     59  CB       -19.7390   17.7280  -49.9800 C.3   114  TYR114      0.0574
     60  CG       -20.3820   17.7850  -51.3400 C.ar  114  TYR114     -0.0198
     61  CD1      -20.0830   18.8130  -52.2240 C.ar  114  TYR114     -0.0009
     62  CD2      -21.2530   16.7910  -51.7590 C.ar  114  TYR114     -0.0009
     63  CE1      -20.6520   18.8600  -53.4750 C.ar  114  TYR114      0.0417
     64  CE2      -21.8270   16.8300  -53.0090 C.ar  114  TYR114      0.0417
     65  CZ       -21.5210   17.8660  -53.8620 C.ar  114  TYR114      0.1957
     66  OH       -22.0850   17.9100  -55.1090 O.3   114  TYR114     -0.2866
     67  N        -16.7590   18.6090  -48.9740 N.am  115  PRO115     -0.2716
     68  CA       -15.7710   19.0390  -47.9780 C.3   115  PRO115      0.1536
     69  C        -16.3710   19.2750  -46.6000 C.2   115  PRO115      0.2598
     70  O        -17.5890   19.3920  -46.4620 O.2   115  PRO115     -0.2715
     71  CB       -15.2360   20.3570  -48.5530 C.3   115  PRO115      0.0310
     72  CG       -15.6030   20.3430  -49.9880 C.3   115  PRO115      0.0237
     73  CD       -16.8650   19.5680  -50.0870 C.3   115  PRO115      0.0939
     74  N        -15.5090   19.3450  -45.5910 N.am  116  ALA116     -0.1964
     75  CA       -15.9350   19.7000  -44.2470 C.3   116  ALA116      0.1728
     76  C        -16.5060   21.1120  -44.2480 C.2   116  ALA116      0.2616
     77  O        -15.8920   22.0390  -44.7760 O.2   116  ALA116     -0.2715
     78  CB       -14.7770   19.5890  -43.2670 C.3   116  ALA116      0.0334
     79  N        -17.6860   21.2700  -43.6600 N.am  117  GLY117     -0.1955
     80  CA       -18.3820   22.5410  -43.6870 C.3   117  GLY117      0.1869
     81  C        -19.6660   22.4380  -44.4850 C.2   117  GLY117      0.2309
     82  O        -20.4530   23.3830  -44.5380 O.2   117  GLY117     -0.2863
     83  N        -21.7270   19.8440  -43.8790 N.3   119  SER119     -0.1217
     84  CA       -22.6340   19.1190  -42.9940 C.3   119  SER119      0.1889
     85  C        -23.8560   19.9490  -42.6270 C.2   119  SER119      0.2288
     86  O        -23.7470   21.1430  -42.3480 O.2   119  SER119     -0.2866
     87  CB       -21.9190   18.6820  -41.7230 C.3   119  SER119      0.2089
     88  OG       -22.7250   17.7840  -40.9830 O.3   119  SER119     -0.2183
     89  N        -27.1940   16.0170  -44.2320 N.3   134  TYR134     -0.1227
     90  CA       -25.9730   15.4110  -44.7440 C.3   134  TYR134      0.1736
     91  C        -24.7930   15.7700  -43.8520 C.2   134  TYR134      0.2596
     92  O        -24.7500   16.8650  -43.2980 O.2   134  TYR134     -0.2718
     93  CB       -25.7400   15.8850  -46.1870 C.3   134  TYR134      0.0548
     94  CG       -24.3850   15.5840  -46.8000 C.ar  134  TYR134     -0.0200
     95  CD1      -23.3100   16.4510  -46.6300 C.ar  134  TYR134     -0.0009
     96  CD2      -24.1970   14.4600  -47.5910 C.ar  134  TYR134     -0.0009
     97  CE1      -22.0780   16.1860  -47.2010 C.ar  134  TYR134      0.0417
     98  CE2      -22.9690   14.1880  -48.1660 C.ar  134  TYR134      0.0417
     99  CZ       -21.9150   15.0550  -47.9700 C.ar  134  TYR134      0.1957
    100  OH       -20.6920   14.7880  -48.5440 O.3   134  TYR134     -0.2866
    101  N        -23.8430   14.8510  -43.7030 N.am  135  GLY135     -0.1942
    102  CA       -22.6050   15.1750  -43.0200 C.3   135  GLY135      0.2014
    103  C        -22.1660   14.2490  -41.9000 C.2   135  GLY135      0.2639
    104  O        -21.1690   14.5170  -41.2300 O.2   135  GLY135     -0.2714
    105  N        -22.8990   13.1630  -41.6850 N.am  136  ASN136     -0.1958
    106  CA       -22.4980   12.1750  -40.6900 C.3   136  ASN136      0.1819
    107  C        -22.5570   10.7680  -41.2670 C.2   136  ASN136      0.2622
    108  O        -23.6380   10.2470  -41.5440 O.2   136  ASN136     -0.2715
    109  CB       -23.3780   12.2730  -39.4400 C.3   136  ASN136      0.1195
    110  CG       -22.8340   11.4600  -38.2800 C.2   136  ASN136      0.2630
    111  OD1      -21.6350   11.2020  -38.1960 O.2   136  ASN136     -0.2716
    112  ND2      -23.7170   11.0500  -37.3790 N.am  136  ASN136     -0.0877
    113  N        -21.3920   10.1560  -41.4490 N.am  137  GLY137     -0.1940
    114  CA       -21.3240    8.8270  -42.0250 C.3   137  GLY137      0.2014
    115  C        -19.9450    8.2040  -41.9310 C.2   137  GLY137      0.2639
    116  O        -19.2820    8.3020  -40.9000 O.2   137  GLY137     -0.2714
    117  N        -19.5150    7.5580  -43.0120 N.am  138  VAL138     -0.1963
    118  CA       -18.2390    6.8520  -43.0230 C.3   138  VAL138      0.1727
    119  C        -17.3990    7.1900  -44.2490 C.2   138  VAL138      0.2616
    120  O        -17.9300    7.4960  -45.3160 O.2   138  VAL138     -0.2715
    121  CB       -18.4410    5.3190  -42.9700 C.3   138  VAL138      0.0290
    122  CG1      -19.0930    4.9080  -41.6580 C.3   138  VAL138      0.0023
    123  CG2      -19.2700    4.8450  -44.1540 C.3   138  VAL138      0.0023
    124  N        -16.0820    7.1460  -44.0810 N.am  139  VAL139     -0.1977
    125  CA       -15.1540    7.2480  -45.1990 C.3   139  VAL139      0.1596
    126  C        -14.6570    5.8490  -45.5490 C.2   139  VAL139      0.2287
    127  O        -14.0220    5.1870  -44.7270 O.2   139  VAL139     -0.2864
    128  CB       -13.9560    8.1600  -44.8730 C.3   139  VAL139      0.0276
    129  CG1      -12.9040    8.0690  -45.9700 C.3   139  VAL139      0.0022
    130  CG2      -14.4170    9.5940  -44.6810 C.3   139  VAL139      0.0022
    131  N        -11.2510    6.1750  -50.2920 N.3   143  GLY143     -0.1225
    132  CA       -11.1330    7.5630  -49.8890 C.3   143  GLY143      0.1811
    133  C        -12.4210    8.3570  -49.9850 C.2   143  GLY143      0.2280
    134  O        -12.4960    9.4760  -49.4780 O.2   143  GLY143     -0.2866
    135  N        -16.6110    9.2690  -49.5610 N.3   145  TYR145     -0.1241
    136  CA       -17.4180    9.4970  -48.3700 C.3   145  TYR145      0.1605
    137  C        -18.8670    9.0610  -48.5580 C.2   145  TYR145      0.2264
    138  O        -19.4840    9.3470  -49.5830 O.2   145  TYR145     -0.2867
    139  CB       -17.3630   10.9760  -47.9890 C.3   145  TYR145      0.0534
    140  CG       -18.1370   11.3420  -46.7450 C.ar  145  TYR145     -0.0201
    141  CD1      -17.6830   10.9740  -45.4870 C.ar  145  TYR145     -0.0009
    142  CD2      -19.3120   12.0780  -46.8290 C.ar  145  TYR145     -0.0009
    143  CE1      -18.3840   11.3140  -44.3470 C.ar  145  TYR145      0.0417
    144  CE2      -20.0170   12.4250  -45.6940 C.ar  145  TYR145      0.0417
    145  CZ       -19.5490   12.0400  -44.4570 C.ar  145  TYR145      0.1957
    146  OH       -20.2490   12.3860  -43.3270 O.3   145  TYR145     -0.2866
@<TRIPOS>BOND
     1    66    65    1
     2    65    63   ar
     3    65    64   ar
     4    63    61   ar
     5    64    62   ar
     6    50    49    2
     7    61    60   ar
     8    47    48    1
     9    51    48    1
    10    51    52    1
    11    62    60   ar
    12    60    59    1
    13    49    48    1
    14    49    55   am
    15    54    52   ar
    16    52    53   ar
    17   131   132    1
    18    55    56    1
    19    73    72    1
    20    73    67    1
    21    56    59    1
    22    56    57    1
    23    72    71    1
    24   133   132    1
    25   133   134    2
    26   138   137    2
    27   135   136    1
    28    67    57   am
    29    67    68    1
    30    57    58    2
    31   137   136    1
    32    71    68    1
    33   100    99    1
    34   136   139    1
    35    98    99   ar
    36    98    96   ar
    37   139   140    1
    38    68    69    1
    39    99    97   ar
    40    96    94   ar
    41    97    95   ar
    42   142   140   ar
    43   142   144   ar
    44    94    95   ar
    45    94    93    1
    46   140   141   ar
    47    69    70    2
    48    69    74   am
    49    93    90    1
    50   129   128    1
    51   144   145   ar
    52    74    75    1
    53   126   125    1
    54   126   127    2
    55   141   143   ar
    56   120   119    2
    57   125   128    1
    58   125   124    1
    59   128   130    1
    60    77    76    2
    61    90    89    1
    62    90    91    1
    63    82    81    2
    64    81    80    1
    65   145   143   ar
    66   145   146    1
    67   119   124   am
    68   119   118    1
    69    76    75    1
    70    76    79   am
    71    75    78    1
    72   123   121    1
    73    83    84    1
    74    91   101   am
    75    91    92    2
    76   101   102    1
    77    80    79    1
    78   118   117    1
    79   118   121    1
    80   102   103    1
    81   117   115   am
    82    84    85    1
    83    84    87    1
    84   121   122    1
    85    85    86    2
    86   114   115    1
    87   114   113    1
    88   115   116    2
    89   103   105   am
    90   103   104    2
    91    87    88    1
    92   105   106    1
    93   108   107    2
    94   113   107   am
    95   107   106    1
    96     1     2    1
    97   106   109    1
    98     3     2    1
    99     3     4    2
   100     2     5    1
   101   109   110    1
   102     5     6    1
   103     5     7    1
   104    31    30   ar
   105    31    29   ar
   106    30    28   ar
   107   110   111    2
   108   110   112   am
   109    29    27   ar
   110    28    27   ar
   111    46    44   ar
   112    27    26    1
   113    42    41    2
   114    44    43    1
   115    44    45   ar
   116    43    40    1
   117    26    23    1
   118    24    25    2
   119    24    23    1
   120     8     9    1
   121    41    40    1
   122    23    22    1
   123    22    10   am
   124    40    39    1
   125    10     9    1
   126    10    11    2
   127     9    12    1
   128    12    13    1
   129    35    34    2
   130    13    15   ar
   131    13    14   ar
   132    18    15   ar
   133    18    20   ar
   134    34    33    1
   135    15    17   ar
   136    14    16   ar
   137    33    32    1
   138    33    36    1
   139    20    21   ar
   140    16    17   ar
   141    17    19   ar
   142    37    36    1
   143    36    38    1
   144    21    19   ar
