@<TRIPOS>MOLECULE
tmp/5zmsD01.pdb
 144 141 0 0 0
SMALL
GASTEIGER

@<TRIPOS>ATOM
      1  N          3.2680   31.8250    9.8960 N.3    21  VAL21      -0.1245
      2  CA         2.1570   31.6580   10.8230 C.3    21  VAL21       0.1561
      3  C          1.1750   32.8200   10.7460 C.2    21  VAL21       0.2260
      4  O          0.0210   32.6920   11.1510 O.2    21  VAL21      -0.2867
      5  CB         2.6550   31.5170   12.2780 C.3    21  VAL21       0.0252
      6  CG1        3.3550   30.1800   12.4760 C.3    21  VAL21       0.0019
      7  CG2        3.5790   32.6670   12.6390 C.3    21  VAL21       0.0019
      8  N         -3.5040   35.5040   18.4570 N.3    36  HIS36      -0.1241
      9  CA        -3.4620   34.0640   18.2230 C.3    36  HIS36       0.1621
     10  C         -2.3160   33.6660   17.2910 C.2    36  HIS36       0.2264
     11  O         -1.9310   32.4990   17.2280 O.2    36  HIS36      -0.2867
     12  CB        -4.7950   33.5760   17.6540 C.3    36  HIS36       0.0745
     13  CG        -4.9120   33.7300   16.1710 C.ar   36  HIS36       0.0817
     14  ND1       -5.4260   34.8620   15.5770 N.ar   36  HIS36      -0.2268
     15  CD2       -4.5830   32.8920   15.1610 C.ar   36  HIS36       0.1154
     16  CE1       -5.4050   34.7150   14.2640 C.ar   36  HIS36       0.1986
     17  NE2       -4.8990   33.5280   13.9860 N.ar   36  HIS36      -0.2212
     18  N          0.8230   34.7780   20.1180 N.3    39  LYS39      -0.1245
     19  CA         0.5430   34.4270   21.5100 C.3    39  LYS39       0.1561
     20  C          1.3300   35.3060   22.4790 C.2    39  LYS39       0.2260
     21  O          1.6950   34.8730   23.5710 O.2    39  LYS39      -0.2867
     22  CB         0.8420   32.9480   21.7740 C.3    39  LYS39       0.0271
     23  CG        -0.0170   31.9970   20.9610 C.3    39  LYS39       0.0035
     24  CD        -1.4910   32.3100   21.1420 C.3    39  LYS39       0.0206
     25  CE        -2.3640   31.3390   20.3660 C.3    39  LYS39       0.1093
     26  NZ        -3.8110   31.6540   20.5330 N.3    39  LYS39      -0.1314
     27  N         -6.4320   39.2160   24.5120 N.3    57  VAL57      -0.1245
     28  CA        -6.9090   37.9690   23.9250 C.3    57  VAL57       0.1561
     29  C         -8.3210   38.0990   23.3540 C.2    57  VAL57       0.2260
     30  O         -8.6080   37.5630   22.2830 O.2    57  VAL57      -0.2867
     31  CB        -6.8610   36.8210   24.9610 C.3    57  VAL57       0.0252
     32  CG1       -7.8490   35.7130   24.6170 C.3    57  VAL57       0.0019
     33  CG2       -5.4520   36.2690   25.0580 C.3    57  VAL57       0.0019
     34  N         -8.0630   39.8040   20.4200 N.3    60  ASP60      -0.1239
     35  CA        -7.1180   39.0190   19.6310 C.3    60  ASP60       0.1674
     36  C         -6.1260   39.9270   18.9140 C.2    60  ASP60       0.2266
     37  O         -5.9050   39.7960   17.7150 O.2    60  ASP60      -0.2867
     38  CB        -7.8530   38.1300   18.6210 C.3    60  ASP60       0.1410
     39  CG        -6.9410   37.1040   17.9740 C.2    60  ASP60       0.3668
     40  OD1       -5.9710   36.6740   18.6320 O.co2  60  ASP60      -0.2456
     41  OD2       -7.1890   36.7360   16.8050 O.co2  60  ASP60      -0.2456
     42  N        -11.9210   34.2500    2.1230 N.3   114  ASP114     -0.1225
     43  CA       -11.3890   33.0530    2.7640 C.3   114  ASP114      0.1805
     44  C         -9.9980   32.7130    2.2280 C.2   114  ASP114      0.2598
     45  O         -9.8580   31.9420    1.2810 O.2   114  ASP114     -0.2718
     46  CB       -12.3490   31.8820    2.5460 C.3   114  ASP114      0.1424
     47  CG       -12.0020   30.6720    3.3810 C.2   114  ASP114      0.3668
     48  OD1      -10.9350   30.6640    4.0250 O.co2 114  ASP114     -0.2456
     49  OD2      -12.8020   29.7160    3.3830 O.co2 114  ASP114     -0.2456
     50  N         -8.9710   33.2810    2.8490 N.am  115  TYR115     -0.1963
     51  CA        -7.6030   33.1070    2.3780 C.3   115  TYR115      0.1756
     52  C         -6.8180   32.1530    3.2680 C.2   115  TYR115      0.2461
     53  O         -7.0760   32.0830    4.4620 O.2   115  TYR115     -0.2730
     54  CB        -6.9180   34.4720    2.2780 C.3   115  TYR115      0.0574
     55  CG        -7.2960   35.1660    1.0000 C.ar  115  TYR115     -0.0198
     56  CD1       -8.4790   35.8880    0.9020 C.ar  115  TYR115     -0.0009
     57  CD2       -6.4980   35.0560   -0.1300 C.ar  115  TYR115     -0.0009
     58  CE1       -8.8400   36.5020   -0.2780 C.ar  115  TYR115      0.0417
     59  CE2       -6.8510   35.6670   -1.3120 C.ar  115  TYR115      0.0417
     60  CZ        -8.0210   36.3870   -1.3800 C.ar  115  TYR115      0.1957
     61  OH        -8.3710   36.9900   -2.5620 O.3   115  TYR115     -0.2866
     62  N         -5.8570   31.4130    2.6850 N.am  116  PRO116     -0.2716
     63  CA        -5.1500   30.3380    3.3930 C.3   116  PRO116      0.1536
     64  C         -4.5550   30.7750    4.7240 C.2   116  PRO116      0.2598
     65  O         -4.2720   31.9590    4.9110 O.2   116  PRO116     -0.2715
     66  CB        -4.0370   29.9410    2.4120 C.3   116  PRO116      0.0310
     67  CG        -3.9150   31.0930    1.4690 C.3   116  PRO116      0.0237
     68  CD        -5.3060   31.6180    1.3350 C.3   116  PRO116      0.0939
     69  N         -4.3800   29.8270    5.6390 N.am  117  ALA117     -0.1964
     70  CA        -3.8090   30.1250    6.9450 C.3   117  ALA117      0.1728
     71  C         -2.4190   30.7280    6.7860 C.2   117  ALA117      0.2617
     72  O         -1.6960   30.4110    5.8390 O.2   117  ALA117     -0.2715
     73  CB        -3.7560   28.8740    7.8070 C.3   117  ALA117      0.0334
     74  N         -2.0550   31.6040    7.7130 N.am  118  GLY118     -0.1940
     75  CA        -0.8130   32.3410    7.6060 C.3   118  GLY118      0.2014
     76  C         -1.0760   33.7210    7.0400 C.2   118  GLY118      0.2640
     77  O         -0.1760   34.5550    6.9800 O.2   118  GLY118     -0.2714
     78  N         -2.3180   33.9520    6.6200 N.am  119  THR119     -0.1936
     79  CA        -2.7360   35.2580    6.1220 C.3   119  THR119      0.2028
     80  C         -3.2380   36.1220    7.2720 C.2   119  THR119      0.2642
     81  O         -3.5150   37.3070    7.0920 O.2   119  THR119     -0.2714
     82  CB        -3.8530   35.1460    5.0620 C.3   119  THR119      0.1808
     83  OG1       -3.6530   33.9770    4.2610 O.3   119  THR119     -0.2208
     84  CG2       -3.8690   36.3730    4.1610 C.3   119  THR119      0.0379
     85  N         -3.3620   35.5200    8.4530 N.am  120  SER120     -0.1949
     86  CA        -3.8680   36.2280    9.6260 C.3   120  SER120      0.1924
     87  C         -2.9830   37.4090   10.0030 C.2   120  SER120      0.2314
     88  O         -1.7650   37.2820   10.0930 O.2   120  SER120     -0.2863
     89  CB        -3.9950   35.2750   10.8140 C.3   120  SER120      0.2116
     90  OG        -5.1150   34.4240   10.6620 O.3   120  SER120     -0.2180
     91  N         -7.0410   41.1130    9.4080 N.3   135  TYR135     -0.1227
     92  CA        -7.7750   39.9490    8.9300 C.3   135  TYR135      0.1736
     93  C         -7.3360   38.6840    9.6580 C.2   135  TYR135      0.2596
     94  O         -6.1480   38.4940    9.9020 O.2   135  TYR135     -0.2718
     95  CB        -7.5670   39.7980    7.4170 C.3   135  TYR135      0.0548
     96  CG        -8.0670   38.5020    6.8160 C.ar  135  TYR135     -0.0200
     97  CD1       -7.2200   37.4110    6.6570 C.ar  135  TYR135     -0.0009
     98  CD2       -9.3790   38.3770    6.3860 C.ar  135  TYR135     -0.0009
     99  CE1       -7.6730   36.2280    6.1020 C.ar  135  TYR135      0.0417
    100  CE2       -9.8380   37.1990    5.8310 C.ar  135  TYR135      0.0417
    101  CZ        -8.9830   36.1300    5.6920 C.ar  135  TYR135      0.1957
    102  OH        -9.4450   34.9610    5.1390 O.3   135  TYR135     -0.2866
    103  N         -8.2880   37.8210   10.0050 N.am  136  GLY136     -0.1942
    104  CA        -7.9480   36.5310   10.5830 C.3   136  GLY136      0.2014
    105  C         -8.7850   36.0430   11.7560 C.2   136  GLY136      0.2639
    106  O         -8.4990   34.9870   12.3200 O.2   136  GLY136     -0.2714
    107  N         -9.8100   36.8000   12.1330 N.am  137  ASN137     -0.1957
    108  CA       -10.6730   36.4110   13.2460 C.3   137  ASN137      0.1823
    109  C        -12.1450   36.5880   12.8940 C.2   137  ASN137      0.2661
    110  O        -12.6120   37.7110   12.7160 O.2   137  ASN137     -0.2711
    111  CB       -10.3300   37.2250   14.4980 C.3   137  ASN137      0.1195
    112  CG       -10.8870   36.6130   15.7730 C.2   137  ASN137      0.2630
    113  OD1      -11.2010   35.4230   15.8250 O.2   137  ASN137     -0.2716
    114  ND2      -11.0040   37.4290   16.8140 N.am  137  ASN137     -0.0877
    115  N        -12.8770   35.4820   12.7940 N.am  138  GLY138     -0.1716
    116  CA       -14.2770   35.5470   12.4150 C.2   138  GLY138      0.1480
    117  C        -15.0700   34.2720   12.6290 C.2   138  GLY138      0.2820
    118  O        -14.7620   33.4730   13.5120 O.2   138  GLY138     -0.2669
    119  N        -16.1050   34.0910   11.8130 N.am  139  VAL139     -0.1929
    120  CA       -17.0100   32.9530   11.9410 C.3   139  VAL139      0.1730
    121  C        -17.0820   32.1300   10.6600 C.2   139  VAL139      0.2616
    122  O        -16.5230   32.5080    9.6330 O.2   139  VAL139     -0.2715
    123  CB       -18.4440   33.4040   12.2930 C.3   139  VAL139      0.0290
    124  CG1      -18.4250   34.4170   13.4030 C.3   139  VAL139      0.0023
    125  CG2      -19.1260   33.9940   11.0720 C.3   139  VAL139      0.0023
    126  N        -17.7840   31.0040   10.7360 N.am  140  VAL140     -0.1977
    127  CA       -18.1030   30.2030    9.5630 C.3   140  VAL140      0.1596
    128  C        -19.6110   29.9950    9.4850 C.2   140  VAL140      0.2287
    129  O        -20.2250   29.4990   10.4280 O.2   140  VAL140     -0.2864
    130  CB       -17.3930   28.8350    9.5890 C.3   140  VAL140      0.0276
    131  CG1      -18.0080   27.8960    8.5620 C.3   140  VAL140      0.0022
    132  CG2      -15.9020   29.0050    9.3430 C.3   140  VAL140      0.0022
    133  N        -16.1520   31.0910    5.0840 N.3   146  TYR146     -0.1241
    134  CA       -15.4970   31.7680    6.1950 C.3   146  TYR146      0.1605
    135  C        -15.6260   33.2780    6.0390 C.2   146  TYR146      0.2264
    136  O        -15.4100   33.8190    4.9560 O.2   146  TYR146     -0.2867
    137  CB       -14.0240   31.3700    6.2840 C.3   146  TYR146      0.0534
    138  CG       -13.2250   32.1880    7.2740 C.ar  146  TYR146     -0.0201
    139  CD1      -13.2260   31.8750    8.6260 C.ar  146  TYR146     -0.0009
    140  CD2      -12.4650   33.2730    6.8550 C.ar  146  TYR146     -0.0009
    141  CE1      -12.4950   32.6210    9.5340 C.ar  146  TYR146      0.0417
    142  CE2      -11.7310   34.0220    7.7530 C.ar  146  TYR146      0.0417
    143  CZ       -11.7480   33.6930    9.0900 C.ar  146  TYR146      0.1957
    144  OH       -11.0190   34.4380    9.9890 O.3   146  TYR146     -0.2866
@<TRIPOS>BOND
     1    61    60    1
     2    60    59   ar
     3    60    58   ar
     4    59    57   ar
     5    58    56   ar
     6    57    55   ar
     7    56    55   ar
     8    55    54    1
     9    45    44    2
    10    68    67    1
    11    68    62    1
    12    67    66    1
    13    42    43    1
    14    44    43    1
    15    44    50   am
    16    54    51    1
    17    51    50    1
    18    51    52    1
    19    66    63    1
    20    46    43    1
    21    46    47    1
    22    62    52   am
    23    62    63    1
    24    52    53    2
    25    47    49   ar
    26    47    48   ar
    27    63    64    1
    28    84    82    1
    29    83    82    1
    30    64    65    2
    31    64    69   am
    32   136   135    2
    33    82    79    1
    34   133   134    1
    35   102   101    1
    36    69    70    1
    37   101   100   ar
    38   101    99   ar
    39   100    98   ar
    40    72    71    2
    41   135   134    1
    42    99    97   ar
    43    79    78    1
    44    79    80    1
    45   134   137    1
    46   137   138    1
    47    98    96   ar
    48    78    76   am
    49    97    96   ar
    50    71    70    1
    51    71    74   am
    52    96    95    1
    53   140   138   ar
    54   140   142   ar
    55    70    73    1
    56    77    76    2
    57    76    75    1
    58    81    80    2
    59    80    85   am
    60   138   139   ar
    61    95    92    1
    62    75    74    1
    63   142   143   ar
    64    85    86    1
    65   131   130    1
    66   139   141   ar
    67    92    91    1
    68    92    93    1
    69   143   141   ar
    70   143   144    1
    71   132   130    1
    72   128   127    1
    73   128   129    2
    74   127   130    1
    75   127   126    1
    76    86    87    1
    77    86    89    1
    78   122   121    2
    79    93    94    2
    80    93   103   am
    81     1     2    1
    82    87    88    2
    83   103   104    1
    84   104   105    1
    85   121   126   am
    86   121   120    1
    87    90    89    1
    88     3     2    1
    89     3     4    2
    90     2     5    1
    91   125   123    1
    92   105   107   am
    93   105   106    2
    94   119   120    1
    95   119   117   am
    96   120   123    1
    97   107   108    1
    98     5     6    1
    99     5     7    1
   100   123   124    1
   101   116   117    1
   102   116   115    2
   103   117   118    2
   104   110   109    2
   105   115   109    1
   106   109   108    1
   107   108   111    1
   108    17    16   ar
   109    17    15   ar
   110    16    14   ar
   111   111   112    1
   112    15    13   ar
   113    14    13   ar
   114   112   113    2
   115   112   114   am
   116    13    12    1
   117    41    39   ar
   118    11    10    2
   119    10     9    1
   120    12     9    1
   121    37    36    2
   122    39    38    1
   123    39    40   ar
   124     9     8    1
   125    38    35    1
   126    36    35    1
   127    35    34    1
   128    18    19    1
   129    25    26    1
   130    25    24    1
   131    23    24    1
   132    23    22    1
   133    19    22    1
   134    19    20    1
   135    30    29    2
   136    20    21    2
   137    29    28    1
   138    28    27    1
   139    28    31    1
   140    32    31    1
   141    31    33    1
