@<TRIPOS>MOLECULE
tmp/5zmvA00.pdb
 105 94 0 0 0
SMALL
GASTEIGER

@<TRIPOS>ATOM
      1  N         19.5480  -11.8300   58.7810 N.3    61  GLN61      -0.1245
      2  CA        20.7310  -11.5250   59.5770 C.3    61  GLN61       0.1566
      3  C         20.9720  -12.5610   60.6660 C.2    61  GLN61       0.2260
      4  O         22.0720  -12.6090   61.2250 O.2    61  GLN61      -0.2867
      5  CB        20.6060  -10.1350   60.2000 C.3    61  GLN61       0.0367
      6  CG        20.1490   -9.0620   59.2250 C.3    61  GLN61       0.0905
      7  CD        21.0930   -8.8940   58.0490 C.2    61  GLN61       0.2608
      8  OE1       22.3090   -9.0330   58.1880 O.2    61  GLN61      -0.2717
      9  NE2       20.5350   -8.5950   56.8800 N.am   61  GLN61      -0.0878
     10  N         22.9860  -17.0320   59.5520 N.3    64  ASP64      -0.1239
     11  CA        24.3460  -17.5450   59.6380 C.3    64  ASP64       0.1674
     12  C         24.4810  -18.4710   60.8420 C.2    64  ASP64       0.2266
     13  O         23.7510  -18.3550   61.8290 O.2    64  ASP64      -0.2867
     14  CB        25.3430  -16.3860   59.7400 C.3    64  ASP64       0.1410
     15  CG        26.7880  -16.8560   59.8010 C.2    64  ASP64       0.3668
     16  OD1       27.4130  -17.0110   58.7310 O.co2  64  ASP64      -0.2456
     17  OD2       27.3030  -17.0640   60.9200 O.co2  64  ASP64      -0.2456
     18  N         26.0780  -16.6660   64.2280 N.3    67  VAL67      -0.1245
     19  CA        25.1580  -15.7740   64.9240 C.3    67  VAL67       0.1561
     20  C         24.0280  -16.5520   65.5820 C.2    67  VAL67       0.2260
     21  O         23.3990  -16.0490   66.5200 O.2    67  VAL67      -0.2867
     22  CB        24.6020  -14.7010   63.9690 C.3    67  VAL67       0.0252
     23  CG1       25.7410  -13.9970   63.2440 C.3    67  VAL67       0.0019
     24  CG2       23.6250  -15.3150   62.9830 C.3    67  VAL67       0.0019
     25  N         25.4530   -6.6910   70.2340 N.3   102  ILE102     -0.1245
     26  CA        26.2820   -7.0390   69.0840 C.3   102  ILE102      0.1561
     27  C         25.4250   -7.6570   67.9880 C.2   102  ILE102      0.2260
     28  O         25.5640   -7.3230   66.8050 O.2   102  ILE102     -0.2867
     29  CB        27.4230   -7.9810   69.5050 C.3   102  ILE102      0.0252
     30  CG1       28.3000   -7.3100   70.5620 C.3   102  ILE102      0.0019
     31  CG2       28.2550   -8.3810   68.2930 C.3   102  ILE102      0.0019
     32  CD1       29.4220   -8.1840   71.0580 C.3   102  ILE102      0.0001
     33  N         23.4140   -4.7670   66.5640 N.3   105  ALA105     -0.1231
     34  CA        24.3050   -3.9480   65.7480 C.3   105  ALA105      0.1694
     35  C         24.7180   -4.6820   64.4790 C.2   105  ALA105      0.2592
     36  O         24.8920   -4.0630   63.4220 O.2   105  ALA105     -0.2718
     37  CB        25.5360   -3.5400   66.5570 C.3   105  ALA105      0.0304
     38  N         24.8730   -6.0060   64.5620 N.am  106  ASN106     -0.1974
     39  CA        25.1910   -6.7900   63.3740 C.3   106  ASN106      0.1688
     40  C         24.0330   -6.7870   62.3840 C.2   106  ASN106      0.2292
     41  O         24.2430   -6.6530   61.1730 O.2   106  ASN106     -0.2864
     42  CB        25.5550   -8.2200   63.7730 C.3   106  ASN106      0.1181
     43  CG        25.7190   -9.1340   62.5790 C.2   106  ASN106      0.2629
     44  OD1       26.7630   -9.1400   61.9250 O.2   106  ASN106     -0.2716
     45  ND2       24.6870   -9.9180   62.2880 N.am  106  ASN106     -0.0877
     46  N         23.6900   -3.4480   60.3170 N.3   109  VAL109     -0.1231
     47  CA        24.5850   -3.2580   59.1770 C.3   109  VAL109      0.1692
     48  C         24.0330   -3.9580   57.9410 C.2   109  VAL109      0.2592
     49  O         24.0320   -3.3980   56.8380 O.2   109  VAL109     -0.2718
     50  CB        26.0030   -3.7510   59.5190 C.3   109  VAL109      0.0266
     51  CG1       26.9340   -3.5830   58.3240 C.3   109  VAL109      0.0020
     52  CG2       26.5400   -3.0050   60.7290 C.3   109  VAL109      0.0020
     53  N         23.5510   -5.1930   58.1080 N.am  110  GLY110     -0.1957
     54  CA        23.0340   -5.9390   56.9700 C.3   110  GLY110      0.1869
     55  C         21.8760   -5.2410   56.2830 C.2   110  GLY110      0.2309
     56  O         21.7440   -5.2960   55.0570 O.2   110  GLY110     -0.2863
     57  N         23.0480   -2.1180   54.2010 N.3   113  GLN113     -0.1245
     58  CA        23.5830   -2.4240   52.8780 C.3   113  GLN113      0.1566
     59  C         22.4670   -2.6920   51.8750 C.2   113  GLN113      0.2260
     60  O         22.5040   -2.1900   50.7460 O.2   113  GLN113     -0.2867
     61  CB        24.5300   -3.6230   52.9550 C.3   113  GLN113      0.0367
     62  CG        25.7330   -3.4100   53.8560 C.3   113  GLN113      0.0905
     63  CD        26.7350   -4.5430   53.7610 C.2   113  GLN113      0.2608
     64  OE1       26.9090   -5.1460   52.7020 O.2   113  GLN113     -0.2717
     65  NE2       27.3980   -4.8400   54.8720 N.am  113  GLN113     -0.0878
     66  N         34.8560  -19.0010   54.9480 N.3   258  LEU258     -0.1245
     67  CA        34.2530  -18.5630   56.2030 C.3   258  LEU258      0.1561
     68  C         32.9990  -19.3700   56.5160 C.2   258  LEU258      0.2260
     69  O         32.7900  -19.7840   57.6620 O.2   258  LEU258     -0.2867
     70  CB        33.9360  -17.0690   56.1410 C.3   258  LEU258      0.0270
     71  CG        34.9450  -16.1100   56.7810 C.3   258  LEU258      0.0019
     72  CD1       36.3720  -16.4560   56.3860 C.3   258  LEU258      0.0001
     73  CD2       34.6210  -14.6760   56.3950 C.3   258  LEU258      0.0001
     74  N         34.2010  -12.6000   66.7320 N.3   314  ALA314     -0.1245
     75  CA        33.1570  -11.5990   66.5400 C.3   314  ALA314      0.1562
     76  C         33.7030  -10.3120   65.9360 C.2   314  ALA314      0.2260
     77  O         32.9660   -9.5830   65.2630 O.2   314  ALA314     -0.2867
     78  CB        32.4610  -11.3130   67.8680 C.3   314  ALA314      0.0290
     79  N         34.5350   -9.9900   61.1820 N.3   317  PRO317     -0.2102
     80  CA        33.7800   -9.3880   60.0680 C.3   317  PRO317      0.1504
     81  C         33.9320   -7.8800   59.9690 C.2   317  PRO317      0.2575
     82  O         33.7510   -7.3240   58.8780 O.2   317  PRO317     -0.2718
     83  CB        32.3300   -9.7870   60.3720 C.3   317  PRO317      0.0282
     84  CG        32.3100  -10.0370   61.8330 C.3   317  PRO317      0.0208
     85  CD        33.6310  -10.6650   62.1310 C.3   317  PRO317      0.0893
     86  N         34.2600   -7.2000   61.0690 N.am  318  ALA318     -0.1980
     87  CA        34.4870   -5.7620   61.0180 C.3   318  ALA318      0.1597
     88  C         35.8730   -5.4180   60.4880 C.2   318  ALA318      0.2287
     89  O         36.0360   -4.3920   59.8180 O.2   318  ALA318     -0.2864
     90  CB        34.2910   -5.1500   62.4050 C.3   318  ALA318      0.0319
     91  N         35.7730   -5.8360   56.6530 N.3   321  THR321     -0.1218
     92  CA        35.1100   -4.6860   56.0480 C.3   321  THR321      0.1862
     93  C         35.9930   -3.4470   56.1080 C.2   321  THR321      0.2287
     94  O         36.0900   -2.6970   55.1300 O.2   321  THR321     -0.2866
     95  CB        33.7730   -4.4280   56.7410 C.3   321  THR321      0.1770
     96  OG1       32.9490   -5.5960   56.6430 O.3   321  THR321     -0.2211
     97  CG2       33.0560   -3.2540   56.0960 C.3   321  THR321      0.0375
     98  N         36.7500   -7.9100   70.0660 N.3   802  LEU802     -0.1245
     99  CA        36.2360   -6.7520   69.3420 C.3   802  LEU802      0.1561
    100  C         37.1630   -5.5510   69.4010 C.2   802  LEU802      0.2260
    101  O         37.3920   -4.9010   68.3790 O.2   802  LEU802     -0.2867
    102  CB        34.8590   -6.3440   69.8870 C.3   802  LEU802      0.0270
    103  CG        33.6090   -7.0390   69.3430 C.3   802  LEU802      0.0019
    104  CD1       33.5870   -8.5080   69.7170 C.3   802  LEU802      0.0001
    105  CD2       32.3610   -6.3390   69.8560 C.3   802  LEU802      0.0001
@<TRIPOS>BOND
     1    60    59    2
     2    59    58    1
     3    64    63    2
     4    58    61    1
     5    58    57    1
     6    61    62    1
     7    63    62    1
     8    63    65   am
     9    66    67    1
    10    56    55    2
    11    94    93    2
    12    92    93    1
    13    92    91    1
    14    92    95    1
    15    97    95    1
    16    70    67    1
    17    70    71    1
    18    67    68    1
    19    55    54    1
    20    72    71    1
    21    73    71    1
    22    68    69    2
    23    96    95    1
    24    49    48    2
    25     9     7   am
    26    54    53    1
    27    48    53   am
    28    48    47    1
    29     7     8    2
    30     7     6    1
    31    51    50    1
    32    16    15   ar
    33     1     2    1
    34    82    81    2
    35    47    50    1
    36    47    46    1
    37     6     5    1
    38    50    52    1
    39    10    11    1
    40     2     5    1
    41     2     3    1
    42    11    14    1
    43    11    12    1
    44    14    15    1
    45    15    17   ar
    46    89    88    2
    47    81    80    1
    48    81    86   am
    49    80    83    1
    50    80    79    1
    51    83    84    1
    52    88    87    1
    53     3     4    2
    54    12    13    2
    55    87    86    1
    56    87    90    1
    57    41    40    2
    58    79    85    1
    59    84    85    1
    60    44    43    2
    61    45    43   am
    62    40    39    1
    63    43    42    1
    64    24    22    1
    65    23    22    1
    66    39    42    1
    67    39    38    1
    68    36    35    2
    69    22    19    1
    70    18    19    1
    71    35    38   am
    72    35    34    1
    73    19    20    1
    74    77    76    2
    75    20    21    2
    76    34    37    1
    77    34    33    1
    78    76    75    1
    79    75    74    1
    80    75    78    1
    81    28    27    2
    82    27    26    1
    83    31    29    1
    84   101   100    2
    85    26    29    1
    86    26    25    1
    87    99   100    1
    88    99   102    1
    89    99    98    1
    90   103   104    1
    91   103   105    1
    92   103   102    1
    93    29    30    1
    94    30    32    1
