@<TRIPOS>MOLECULE
tmp/5zncA00.pdb
 142 135 0 0 0
SMALL
GASTEIGER

@<TRIPOS>ATOM
      1  N         63.9190   59.6510   21.4270 N.3    63  VAL63      -0.1245
      2  CA        63.3530   60.6370   20.5720 C.3    63  VAL63       0.1561
      3  C         62.3280   61.5050   21.2680 C.2    63  VAL63       0.2260
      4  O         61.2800   61.0130   21.7860 O.2    63  VAL63      -0.2867
      5  CB        62.7170   59.9590   19.3480 C.3    63  VAL63       0.0252
      6  CG1       62.0720   60.9970   18.4130 C.3    63  VAL63       0.0019
      7  CG2       63.7730   59.1470   18.5970 C.3    63  VAL63       0.0019
      8  N         74.6470   67.7090   24.3190 N.3    85  ARG85      -0.1245
      9  CA        73.9510   66.8680   23.3950 C.3    85  ARG85       0.1563
     10  C         74.6790   66.7490   22.0660 C.2    85  ARG85       0.2260
     11  O         75.0360   67.7800   21.4650 O.2    85  ARG85      -0.2867
     12  CB        72.4950   67.3620   23.1700 C.3    85  ARG85       0.0307
     13  CG        71.7650   66.7370   22.0420 C.3    85  ARG85       0.0489
     14  CD        70.2230   66.9930   22.0750 C.3    85  ARG85       0.2205
     15  NE        69.7050   67.0340   20.7390 N.pl3  85  ARG85      -0.0865
     16  CZ        69.6400   66.0050   19.9380 C.cat  85  ARG85       0.5346
     17  NH1       69.9450   64.7720   20.3520 N.pl3  85  ARG85       0.1354
     18  NH2       69.3320   66.2040   18.6960 N.pl3  85  ARG85       0.1354
     19  N         71.6960   64.3900   15.5280 N.3    88  SER88      -0.1202
     20  CA        71.5420   64.6710   14.1310 C.3    88  SER88       0.2020
     21  C         70.5060   65.7830   13.9620 C.2    88  SER88       0.2619
     22  O         69.7100   66.0510   14.8720 O.2    88  SER88      -0.2717
     23  CB        71.1660   63.4470   13.3960 C.3    88  SER88       0.2103
     24  OG        69.9320   62.8690   13.7280 O.3    88  SER88      -0.2182
     25  N         70.4460   66.3780   12.7660 N.am   89  CYS89      -0.1955
     26  CA        69.5120   67.4750   12.5460 C.3    89  CYS89       0.1843
     27  C         69.3120   67.5910   11.0380 C.2    89  CYS89       0.2626
     28  O         70.0810   66.9920   10.2560 O.2    89  CYS89      -0.2714
     29  CB        70.0650   68.7730   13.0350 C.3    89  CYS89       0.0997
     30  SG        71.5570   69.3780   12.1180 S.3    89  CYS89      -0.0797
     31  N         68.3130   68.4000   10.6690 N.am   90  GLY90      -0.1954
     32  CA        68.0030   68.6580    9.2840 C.3    90  GLY90       0.1869
     33  C         68.4230   70.0560    8.9200 C.2    90  GLY90       0.2309
     34  O         68.2510   70.9980    9.6930 O.2    90  GLY90      -0.2863
     35  N         61.6710   71.0340   17.3530 N.3   154  SER154     -0.1217
     36  CA        60.2330   70.8530   17.1210 C.3   154  SER154      0.1889
     37  C         59.7520   69.4720   17.5300 C.2   154  SER154      0.2288
     38  O         60.3300   68.4300   17.1650 O.2   154  SER154     -0.2866
     39  CB        59.8590   71.1060   15.6320 C.3   154  SER154      0.2089
     40  OG        58.4710   70.8590   15.4090 O.3   154  SER154     -0.2183
     41  N         57.1400   68.1600   16.2700 N.3   156  MET156     -0.1230
     42  CA        56.4580   67.5180   15.1310 C.3   156  MET156      0.1702
     43  C         57.4900   67.1560   14.0160 C.2   156  MET156      0.2592
     44  O         58.0370   68.0100   13.3530 O.2   156  MET156     -0.2718
     45  CB        55.4150   68.4800   14.5600 C.3   156  MET156      0.0401
     46  CG        54.6700   67.8710   13.3570 C.3   156  MET156      0.0596
     47  SD        53.4190   69.0570   12.7680 S.3   156  MET156     -0.1393
     48  CE        54.3840   70.4010   12.1210 C.3   156  MET156      0.0692
     49  N         57.6720   65.8580   13.8500 N.am  157  TYR157     -0.1976
     50  CA        58.5380   65.3120   12.7880 C.3   157  TYR157      0.1639
     51  C         57.7850   65.2170   11.4970 C.2   157  TYR157      0.2290
     52  O         58.3140   65.6360   10.4590 O.2   157  TYR157     -0.2864
     53  CB        59.1090   63.9880   13.2730 C.3   157  TYR157      0.0560
     54  CG        60.0260   63.3490   12.2390 C.ar  157  TYR157     -0.0198
     55  CD1       61.2990   63.8610   12.0560 C.ar  157  TYR157     -0.0009
     56  CD2       59.5900   62.2750   11.5050 C.ar  157  TYR157     -0.0009
     57  CE1       62.1960   63.2370   11.1610 C.ar  157  TYR157      0.0417
     58  CE2       60.4600   61.6920   10.5430 C.ar  157  TYR157      0.0417
     59  CZ        61.7400   62.1660   10.4380 C.ar  157  TYR157      0.1957
     60  OH        62.5620   61.5540    9.4580 O.3   157  TYR157     -0.2866
     61  N         58.6470   75.6660    9.9040 N.3   167  LEU167     -0.1245
     62  CA        60.0460   75.5130    9.4830 C.3   167  LEU167      0.1561
     63  C         60.4670   76.6010    8.4920 C.2   167  LEU167      0.2260
     64  O         61.5710   77.1250    8.6310 O.2   167  LEU167     -0.2867
     65  CB        60.3940   74.1210    9.0060 C.3   167  LEU167      0.0270
     66  CG        60.3720   72.9800   10.0320 C.3   167  LEU167      0.0019
     67  CD1       60.7480   71.6550    9.4380 C.3   167  LEU167      0.0001
     68  CD2       61.2910   73.3090   11.1340 C.3   167  LEU167      0.0001
     69  N         67.2100   71.9640   12.2090 N.3   178  VAL178     -0.1231
     70  CA        66.0170   71.4730   12.9470 C.3   178  VAL178      0.1692
     71  C         66.3470   70.1390   13.6130 C.2   178  VAL178      0.2592
     72  O         66.9000   69.2500   13.0080 O.2   178  VAL178     -0.2718
     73  CB        64.7650   71.3410   12.0940 C.3   178  VAL178      0.0266
     74  CG1       64.9260   70.4250   10.8370 C.3   178  VAL178      0.0020
     75  CG2       63.5890   70.7900   12.9220 C.3   178  VAL178      0.0020
     76  N         65.9650   70.0040   14.8710 N.am  179  GLU179     -0.1966
     77  CA        66.0580   68.7370   15.5720 C.3   179  GLU179      0.1733
     78  C         64.9010   68.6670   16.6240 C.2   179  GLU179      0.2616
     79  O         63.9510   69.3640   16.4490 O.2   179  GLU179     -0.2715
     80  CB        67.4470   68.3550   16.0940 C.3   179  GLU179      0.0429
     81  CG        68.2280   69.4150   16.7800 C.3   179  GLU179      0.1163
     82  CD        67.6730   69.7080   18.1720 C.2   179  GLU179      0.3649
     83  OE1       67.1250   70.7970   18.3310 O.co2 179  GLU179     -0.2457
     84  OE2       67.8030   68.8470   19.0160 O.co2 179  GLU179     -0.2457
     85  N         65.0600   67.8970   17.7130 N.am  180  MET180     -0.1963
     86  CA        63.8780   67.6610   18.5390 C.3   180  MET180      0.1736
     87  C         64.1060   67.8200   20.0300 C.2   180  MET180      0.2616
     88  O         63.1370   67.6490   20.7670 O.2   180  MET180     -0.2715
     89  CB        63.2890   66.2300   18.2830 C.3   180  MET180      0.0427
     90  CG        62.8160   66.0830   16.8200 C.3   180  MET180      0.0599
     91  SD        61.9620   64.5330   16.4860 S.3   180  MET180     -0.1393
     92  CE        60.3500   64.7370   17.2870 C.3   180  MET180      0.0692
     93  N         65.3160   68.0750   20.4710 N.am  181  GLU181     -0.1977
     94  CA        65.5800   68.0990   21.9400 C.3   181  GLU181      0.1602
     95  C         66.3930   69.2390   22.5370 C.2   181  GLU181      0.2287
     96  O         66.4210   69.4710   23.7790 O.2   181  GLU181     -0.2864
     97  CB        66.2510   66.7380   22.3040 C.3   181  GLU181      0.0415
     98  CG        65.4230   65.5070   22.0510 C.3   181  GLU181      0.1163
     99  CD        65.6860   64.9250   20.6650 C.2   181  GLU181      0.3649
    100  OE1       66.5520   65.4030   19.8790 O.co2 181  GLU181     -0.2457
    101  OE2       65.0200   63.9730   20.2850 O.co2 181  GLU181     -0.2457
    102  N         71.7410   65.7120    8.3840 N.3   203  ASP203     -0.1225
    103  CA        71.2420   64.5350    7.7230 C.3   203  ASP203      0.1805
    104  C         69.9730   64.9060    6.9520 C.2   203  ASP203      0.2598
    105  O         68.8960   64.7830    7.4380 O.2   203  ASP203     -0.2718
    106  CB        70.9660   63.4550    8.7900 C.3   203  ASP203      0.1424
    107  CG        70.8190   62.0620    8.2450 C.2   203  ASP203      0.3668
    108  OD1       70.9210   61.8630    7.0540 O.co2 203  ASP203     -0.2456
    109  OD2       70.5450   61.1730    9.0400 O.co2 203  ASP203     -0.2456
    110  N         70.1280   65.4100    5.7360 N.am  204  GLY204     -0.1957
    111  CA        68.9700   65.7420    5.0030 C.3   204  GLY204      0.1869
    112  C         68.4730   67.1860    5.2380 C.2   204  GLY204      0.2309
    113  O         69.1000   67.9670    5.9290 O.2   204  GLY204     -0.2863
    114  N         64.5020   68.8900    5.4350 N.3   206  PRO206     -0.2116
    115  CA        63.0880   68.6820    5.3710 C.3   206  PRO206      0.1372
    116  C         62.3580   69.3230    4.1420 C.2   206  PRO206      0.2244
    117  O         61.3430   68.8590    3.7460 O.2   206  PRO206     -0.2868
    118  CB        62.5590   69.2850    6.7250 C.3   206  PRO206      0.0268
    119  CG        63.6260   70.1200    7.1750 C.3   206  PRO206      0.0207
    120  CD        64.9380   69.5450    6.6900 C.3   206  PRO206      0.0892
    121  N         62.4060   66.6400    1.3450 N.3   209  TRP209     -0.1241
    122  CA        61.9730   65.2750    1.5200 C.3   209  TRP209      0.1605
    123  C         61.1340   64.7340    0.3380 C.2   209  TRP209      0.2264
    124  O         61.1510   63.5350    0.0930 O.2   209  TRP209     -0.2867
    125  CB        61.1660   65.1140    2.7910 C.3   209  TRP209      0.0550
    126  CG        61.9640   65.1080    4.0720 C.ar  209  TRP209      0.0003
    127  CD1       63.2680   65.2440    4.2620 C.ar  209  TRP209      0.0946
    128  CD2       61.3590   64.9870    5.3830 C.ar  209  TRP209      0.0152
    129  NE1       63.5490   65.1160    5.6500 N.ar  209  TRP209     -0.2442
    130  CE2       62.3740   65.0000    6.3110 C.ar  209  TRP209      0.0810
    131  CE3       60.0630   64.8450    5.8000 C.ar  209  TRP209      0.0012
    132  CZ2       62.1210   64.8490    7.6950 C.ar  209  TRP209      0.0191
    133  CZ3       59.7810   64.7160    7.1770 C.ar  209  TRP209      0.0001
    134  CH2       60.8220   64.7080    8.0750 C.ar  209  TRP209      0.0015
    135  N         66.5190   62.0600    6.4070 N.3   215  ASP215     -0.1239
    136  CA        67.5020   61.8650    7.4140 C.3   215  ASP215      0.1674
    137  C         67.7790   60.3580    7.5030 C.2   215  ASP215      0.2266
    138  O         67.2600   59.6940    8.3720 O.2   215  ASP215     -0.2867
    139  CB        67.0540   62.4430    8.7450 C.3   215  ASP215      0.1410
    140  CG        65.6380   62.2580    9.0370 C.2   215  ASP215      0.3668
    141  OD1       64.8330   62.1050    8.2270 O.co2 215  ASP215     -0.2456
    142  OD2       65.2870   62.3820   10.1630 O.co2 215  ASP215     -0.2456
@<TRIPOS>BOND
     1   124   123    2
     2   123   122    1
     3   121   122    1
     4   122   125    1
     5   125   126    1
     6   117   116    2
     7   126   127   ar
     8   126   128   ar
     9   116   115    1
    10   127   129   ar
    11   111   112    1
    12   111   110    1
    13   112   113    2
    14   115   114    1
    15   115   118    1
    16   128   131   ar
    17   128   130   ar
    18   114   120    1
    19   129   130   ar
    20   110   104   am
    21   131   133   ar
    22   130   132   ar
    23   135   136    1
    24   120   119    1
    25   118   119    1
    26   104   105    2
    27   104   103    1
    28   108   107   ar
    29   133   134   ar
    30   136   137    1
    31   136   139    1
    32   137   138    2
    33   132   134   ar
    34   103   102    1
    35   103   106    1
    36   141   140   ar
    37   107   106    1
    38   107   109   ar
    39    63    64    2
    40    63    62    1
    41   139   140    1
    42    33    32    1
    43    33    34    2
    44    65    62    1
    45    65    66    1
    46   140   142   ar
    47    32    31    1
    48    67    66    1
    49    60    59    1
    50    62    61    1
    51    66    68    1
    52    28    27    2
    53    59    58   ar
    54    59    57   ar
    55    52    51    2
    56    58    56   ar
    57    31    27   am
    58    74    73    1
    59    27    26    1
    60    57    55   ar
    61    51    50    1
    62    56    54   ar
    63    55    54   ar
    64    73    75    1
    65    73    70    1
    66    30    29    1
    67    48    47    1
    68    69    70    1
    69    54    53    1
    70    26    25    1
    71    26    29    1
    72    25    21   am
    73    47    46    1
    74    50    53    1
    75    50    49    1
    76    70    71    1
    77    72    71    2
    78    44    43    2
    79    46    45    1
    80    23    24    1
    81    23    20    1
    82    71    76   am
    83    49    43   am
    84    21    20    1
    85    21    22    2
    86    43    42    1
    87    20    19    1
    88    45    42    1
    89    76    77    1
    90    42    41    1
    91    40    39    1
    92    77    80    1
    93    77    78    1
    94    39    36    1
    95    80    81    1
    96    79    78    2
    97    91    90    1
    98    91    92    1
    99    78    85   am
   100    81    82    1
   101    90    89    1
   102    36    35    1
   103    36    37    1
   104    38    37    2
   105    85    86    1
   106    82    83   ar
   107    82    84   ar
   108    89    86    1
   109     6     5    1
   110    86    87    1
   111     7     5    1
   112    18    16    1
   113     5     2    1
   114   100    99   ar
   115    16    17    1
   116    16    15    2
   117    87    93   am
   118    87    88    2
   119   101    99   ar
   120    93    94    1
   121     2     3    1
   122     2     1    1
   123    99    98    1
   124    15    14    1
   125     3     4    2
   126    11    10    2
   127    94    97    1
   128    94    95    1
   129    13    14    1
   130    13    12    1
   131    98    97    1
   132    10     9    1
   133    95    96    2
   134    12     9    1
   135     9     8    1
