@<TRIPOS>MOLECULE
tmp/5zniA00.pdb
 126 120 0 0 0
SMALL
GASTEIGER

@<TRIPOS>ATOM
      1  N        -11.5090   29.6700   20.6830 N.3    64  VAL64      -0.1245
      2  CA       -10.9400   30.6410   19.8130 C.3    64  VAL64       0.1561
      3  C        -10.7080   32.0000   20.4700 C.2    64  VAL64       0.2260
      4  O        -11.6400   32.6470   20.8930 O.2    64  VAL64      -0.2867
      5  CB       -11.7980   30.8740   18.5670 C.3    64  VAL64       0.0252
      6  CG1      -11.1760   31.9580   17.6880 C.3    64  VAL64       0.0019
      7  CG2      -11.9940   29.5630   17.8100 C.3    64  VAL64       0.0019
      8  N          0.8220   24.3290   23.1940 N.3    86  ARG86      -0.1197
      9  CA        -0.2660   24.5590   22.3210 C.3    86  ARG86       0.1779
     10  C          0.0200   23.9010   20.9490 C.2    86  ARG86       0.2305
     11  O          1.0780   23.9720   20.4390 O.2    86  ARG86      -0.2863
     12  CB        -0.5590   26.0540   22.2310 C.2    86  ARG86      -0.0007
     13  CG        -1.0350   26.5680   20.9120 C.2    86  ARG86       0.0176
     14  CD        -1.7300   27.9200   20.9050 C.3    86  ARG86       0.2464
     15  NE        -3.0070   27.5470   20.4640 N.pl3  86  ARG86      -0.0815
     16  CZ        -3.4410   27.6180   19.2490 C.cat  86  ARG86       0.5349
     17  NH1       -4.5880   27.0950   19.0110 N.pl3  86  ARG86       0.1354
     18  NH2       -2.7830   28.2290   18.3240 N.pl3  86  ARG86       0.1354
     19  N         -3.4750   25.0920   14.2920 N.3    89  SER89      -0.1202
     20  CA        -3.2940   25.5000   12.9400 C.3    89  SER89       0.2020
     21  C         -2.9270   26.9760   12.8170 C.2    89  SER89       0.2619
     22  O         -3.1040   27.7090   13.7350 O.2    89  SER89      -0.2717
     23  CB        -4.4950   25.1370   12.1050 C.3    89  SER89       0.2103
     24  OG        -5.6270   25.7090   12.6510 O.3    89  SER89      -0.2182
     25  N         -2.4290   27.3680   11.6580 N.am   90  CYS90      -0.1955
     26  CA        -1.9850   28.7060   11.4030 C.3    90  CYS90       0.1843
     27  C         -1.9180   29.0330    9.9390 C.2    90  CYS90       0.2626
     28  O         -1.9290   28.1880    9.1030 O.2    90  CYS90      -0.2714
     29  CB        -0.5860   28.9170   11.9960 C.3    90  CYS90       0.0997
     30  SG         0.7300   27.9510   11.2830 S.3    90  CYS90      -0.0797
     31  N         -1.8320   30.3200    9.6790 N.am   91  GLY91      -0.1954
     32  CA        -1.6240   30.8200    8.3420 C.3    91  GLY91       0.1869
     33  C         -0.1390   31.0040    8.1400 C.2    91  GLY91       0.2309
     34  O          0.5800   31.3340    9.1070 O.2    91  GLY91      -0.2863
     35  N         -2.7620   37.2420   16.4140 N.3   155  SER155     -0.1217
     36  CA        -3.6860   38.3210   16.2850 C.3   155  SER155      0.1889
     37  C         -5.1510   38.0800   16.7160 C.2   155  SER155      0.2288
     38  O         -5.6970   37.0480   16.4400 O.2   155  SER155     -0.2866
     39  CB        -3.6550   38.7900   14.8550 C.3   155  SER155      0.2089
     40  OG        -4.5330   39.7930   14.6520 O.3   155  SER155     -0.2183
     41  N         -7.5720   39.7000   15.3960 N.3   157  MET157     -0.1230
     42  CA        -8.3790   39.8910   14.1930 C.3   157  MET157      0.1702
     43  C         -8.2900   38.7320   13.1910 C.2   157  MET157      0.2592
     44  O         -7.2780   38.4720   12.6840 O.2   157  MET157     -0.2718
     45  CB        -7.9730   41.1520   13.4480 C.3   157  MET157      0.0401
     46  CG        -9.0130   41.5210   12.3440 C.3   157  MET157      0.0596
     47  SD        -8.7320   43.2200   11.8620 S.3   157  MET157     -0.1393
     48  CE        -7.0800   42.9590   11.2080 C.3   157  MET157      0.0692
     49  N         -9.3810   38.0810   12.8870 N.am  158  TYR158     -0.1976
     50  CA        -9.4080   37.0370   11.8720 C.3   158  TYR158      0.1639
     51  C         -9.9210   37.6170   10.5500 C.2   158  TYR158      0.2290
     52  O         -9.3180   37.4060    9.5110 O.2   158  TYR158     -0.2864
     53  CB       -10.2620   35.8850   12.3600 C.3   158  TYR158      0.0560
     54  CG       -10.2670   34.7120   11.4350 C.ar  158  TYR158     -0.0198
     55  CD1       -9.1680   33.8350   11.3660 C.ar  158  TYR158     -0.0009
     56  CD2      -11.3520   34.4570   10.6160 C.ar  158  TYR158     -0.0009
     57  CE1       -9.1580   32.7450   10.4900 C.ar  158  TYR158      0.0417
     58  CE2      -11.3490   33.3800    9.7520 C.ar  158  TYR158      0.0417
     59  CZ       -10.2590   32.5180    9.6990 C.ar  158  TYR158      0.1957
     60  OH       -10.2850   31.4420    8.8570 O.3   158  TYR158     -0.2866
     61  N         -0.0190   42.3250    9.1810 N.3   168  LEU168     -0.1245
     62  CA         0.4940   40.9990    8.8200 C.3   168  LEU168      0.1561
     63  C          1.6100   41.0880    7.7950 C.2   168  LEU168      0.2260
     64  O          2.6430   40.4190    7.9580 O.2   168  LEU168     -0.2867
     65  CB        -0.6050   40.0900    8.3040 C.3   168  LEU168      0.0270
     66  CG        -1.6210   39.5440    9.3070 C.3   168  LEU168      0.0019
     67  CD1       -2.6170   38.6160    8.6250 C.3   168  LEU168      0.0001
     68  CD2       -0.9820   38.7750   10.4380 C.3   168  LEU168      0.0001
     69  N          0.9200   32.8730   11.4600 N.3   179  VAL179     -0.1231
     70  CA        -0.0750   33.6350   12.1420 C.3   179  VAL179      0.1692
     71  C         -1.1780   32.7710   12.7540 C.2   179  VAL179      0.2592
     72  O         -1.7470   31.9150   12.1180 O.2   179  VAL179     -0.2718
     73  CB        -0.7040   34.7220   11.2470 C.3   179  VAL179      0.0266
     74  CG1       -1.4320   34.1220   10.0680 C.3   179  VAL179      0.0020
     75  CG2       -1.6370   35.6200   12.0410 C.3   179  VAL179      0.0020
     76  N         -1.4970   33.0800   13.9840 N.am  180  GLU180     -0.1966
     77  CA        -2.5530   32.4290   14.6830 C.3   180  GLU180      0.1733
     78  C         -3.1530   33.3660   15.7570 C.2   180  GLU180      0.2619
     79  O         -2.9830   34.5220   15.6860 O.2   180  GLU180     -0.2715
     80  CB        -2.1680   31.0090   15.1500 C.3   180  GLU180      0.0429
     81  CG        -0.8640   30.8380   15.8830 C.3   180  GLU180      0.1163
     82  CD        -0.8840   31.4370   17.2530 C.2   180  GLU180      0.3649
     83  OE1       -0.2240   32.4390   17.4220 O.co2 180  GLU180     -0.2457
     84  OE2       -1.5690   30.9240   18.1200 O.co2 180  GLU180     -0.2457
     85  N         -3.8110   32.8520   16.7630 N.am  181  MET181     -0.1917
     86  CA        -4.4990   33.7210   17.6710 C.3   181  MET181      0.1952
     87  C         -4.3220   33.5820   19.1770 C.2   181  MET181      0.2658
     88  O         -4.9950   34.2300   19.8820 O.2   181  MET181     -0.2711
     89  CB        -6.0020   33.6300   17.3930 C.2   181  MET181      0.0110
     90  CG        -6.4920   33.8570   15.9820 C.2   181  MET181      0.0285
     91  SD        -8.2450   33.7710   15.6810 S.3   181  MET181     -0.1125
     92  CE        -8.7400   35.3930   16.0660 C.3   181  MET181      0.0742
     93  N         -3.4760   32.7060   19.6570 N.am  182  GLU182     -0.1974
     94  CA        -3.3900   32.4410   21.0840 C.3   182  GLU182      0.1602
     95  C         -2.0380   32.2090   21.7090 C.2   182  GLU182      0.2287
     96  O         -1.9370   32.1980   22.8900 O.2   182  GLU182     -0.2864
     97  CB        -4.2490   31.2260   21.4430 C.3   182  GLU182      0.0415
     98  CG        -5.7410   31.3340   21.1560 C.3   182  GLU182      0.1163
     99  CD        -6.1440   30.8530   19.7660 C.2   182  GLU182      0.3649
    100  OE1       -5.3440   30.3250   19.0340 O.co2 182  GLU182     -0.2457
    101  OE2       -7.2680   31.0350   19.4000 O.co2 182  GLU182     -0.2457
    102  N         -2.3730   25.8840    7.3410 N.3   204  ASP204     -0.1225
    103  CA        -3.6340   25.4840    6.6780 C.3   204  ASP204      0.1805
    104  C         -4.2260   26.6110    5.7930 C.2   204  ASP204      0.2598
    105  O         -5.4170   26.6160    5.4680 O.2   204  ASP204     -0.2718
    106  CB        -4.6270   25.0180    7.7630 C.3   204  ASP204      0.1424
    107  CG        -5.9430   24.4510    7.2000 C.2   204  ASP204      0.3668
    108  OD1       -5.9160   23.7040    6.1610 O.co2 204  ASP204     -0.2456
    109  OD2       -7.0030   24.7610    7.8310 O.co2 204  ASP204     -0.2456
    110  N         -3.3760   27.5440    5.3930 N.am  205  GLY205     -0.1942
    111  CA        -3.7870   28.7070    4.6390 C.3   205  GLY205      0.2014
    112  C         -2.7130   29.7840    4.6420 C.2   205  GLY205      0.2639
    113  O         -1.6350   29.6270    5.2480 O.2   205  GLY205     -0.2714
    114  N         -3.0310   30.8610    3.9320 N.am  206  CYS206     -0.1954
    115  CA        -2.2020   32.0360    3.8020 C.3   206  CYS206      0.1828
    116  C         -3.1200   33.2690    3.6470 C.2   206  CYS206      0.2467
    117  O         -4.0200   33.2740    2.7910 O.2   206  CYS206     -0.2730
    118  CB        -1.2720   31.9420    2.5910 C.3   206  CYS206      0.0996
    119  SG        -0.0520   33.2860    2.5170 S.3   206  CYS206     -0.0797
    120  N         -2.8940   34.3240    4.4800 N.am  207  PRO207     -0.2726
    121  CA        -3.7020   35.5520    4.3410 C.3   207  PRO207      0.1402
    122  C         -3.3870   36.3650    3.0920 C.2   207  PRO207      0.2269
    123  O         -4.1370   37.2450    2.7400 O.2   207  PRO207     -0.2865
    124  CB        -3.3430   36.3400    5.6000 C.3   207  PRO207      0.0296
    125  CG        -1.9480   35.9420    5.8540 C.3   207  PRO207      0.0237
    126  CD        -1.9050   34.4700    5.5550 C.3   207  PRO207      0.0939
@<TRIPOS>BOND
     1   119   118    1
     2   118   115    1
     3   123   122    2
     4   117   116    2
     5   122   121    1
     6   116   115    1
     7   116   120   am
     8   115   114    1
     9   114   112   am
    10   121   120    1
    11   121   124    1
    12   120   126    1
    13   111   112    1
    14   111   110    1
    15   112   113    2
    16   110   104   am
    17   105   104    2
    18   126   125    1
    19   124   125    1
    20   104   103    1
    21   108   107   ar
    22   103   102    1
    23   103   106    1
    24   107   106    1
    25   107   109   ar
    26    63    64    2
    27    63    62    1
    28    33    32    1
    29    33    34    2
    30    65    62    1
    31    65    66    1
    32    32    31    1
    33    67    66    1
    34    62    61    1
    35    60    59    1
    36    28    27    2
    37    66    68    1
    38    52    51    2
    39    31    27   am
    40    59    58   ar
    41    59    57   ar
    42    58    56   ar
    43    27    26    1
    44    74    73    1
    45    57    55   ar
    46    51    50    1
    47    56    54   ar
    48    48    47    1
    49    73    75    1
    50    73    70    1
    51    30    29    1
    52    55    54   ar
    53    26    25    1
    54    26    29    1
    55    54    53    1
    56    69    70    1
    57    25    21   am
    58    47    46    1
    59    50    53    1
    60    50    49    1
    61    23    24    1
    62    23    20    1
    63    72    71    2
    64    70    71    1
    65    46    45    1
    66    44    43    2
    67    71    76   am
    68    21    20    1
    69    21    22    2
    70    49    43   am
    71    20    19    1
    72    43    42    1
    73    45    42    1
    74    76    77    1
    75    42    41    1
    76    40    39    1
    77    77    80    1
    78    77    78    1
    79    39    36    1
    80    80    81    1
    81    91    90    1
    82    91    92    1
    83    79    78    2
    84    78    85   am
    85    81    82    1
    86    90    89    2
    87    36    35    1
    88    36    37    1
    89    38    37    2
    90    85    86    1
    91    82    83   ar
    92    82    84   ar
    93    89    86    1
    94    86    87    1
    95     6     5    1
    96     7     5    1
    97    18    16    1
    98     5     2    1
    99    17    16    1
   100   100    99   ar
   101    87    93   am
   102    87    88    2
   103    16    15    2
   104   101    99   ar
   105    93    94    1
   106    99    98    1
   107     2     3    1
   108     2     1    1
   109    11    10    2
   110    15    14    1
   111     3     4    2
   112    14    13    1
   113    13    12    2
   114    10     9    1
   115    94    97    1
   116    94    95    1
   117    98    97    1
   118    95    96    2
   119    12     9    1
   120     9     8    1
