@<TRIPOS>MOLECULE
tmp/5znlB00.pdb
 214 209 0 0 0
SMALL
GASTEIGER

@<TRIPOS>ATOM
      1  N        -20.2430  -48.3350   14.8080 N.3    64  TYR64      -0.1227
      2  CA       -19.2360  -47.3330   14.4020 C.3    64  TYR64       0.1736
      3  C        -17.7950  -47.8510   14.3170 C.2    64  TYR64       0.2595
      4  O        -17.1650  -47.7030   13.2830 O.2    64  TYR64      -0.2718
      5  CB       -19.2710  -46.1200   15.3430 C.3    64  TYR64       0.0548
      6  CG       -18.3760  -44.9800   14.9040 C.ar   64  TYR64      -0.0200
      7  CD1      -18.5180  -44.4060   13.6370 C.ar   64  TYR64      -0.0009
      8  CD2      -17.3790  -44.4720   15.7470 C.ar   64  TYR64      -0.0009
      9  CE1      -17.6960  -43.3630   13.2230 C.ar   64  TYR64       0.0417
     10  CE2      -16.5560  -43.4240   15.3410 C.ar   64  TYR64       0.0417
     11  CZ       -16.7220  -42.8760   14.0780 C.ar   64  TYR64       0.1957
     12  OH       -15.9230  -41.8490   13.6580 O.3    64  TYR64      -0.2866
     13  N        -17.2650  -48.4210   15.3960 N.am   65  HIS65      -0.1975
     14  CA       -15.8480  -48.8360   15.4330 C.3    65  HIS65       0.1656
     15  C        -15.5860  -50.1410   14.6580 C.2    65  HIS65       0.2291
     16  O        -15.2220  -51.1820   15.2230 O.2    65  HIS65      -0.2864
     17  CB       -15.3480  -48.9060   16.8750 C.3    65  HIS65       0.0771
     18  CG       -15.2860  -47.5690   17.5420 C.ar   65  HIS65       0.0820
     19  ND1      -16.0970  -47.2220   18.6010 N.ar   65  HIS65      -0.2267
     20  CD2      -14.5240  -46.4800   17.2830 C.ar   65  HIS65       0.1154
     21  CE1      -15.8230  -45.9850   18.9780 C.ar   65  HIS65       0.1986
     22  NE2      -14.8720  -45.5110   18.1940 N.ar   65  HIS65      -0.2212
     23  N        -16.4070  -48.0570   25.3560 N.3   111  SER111     -0.1217
     24  CA       -15.3990  -47.0870   25.7650 C.3   111  SER111      0.1889
     25  C        -14.4430  -47.7120   26.7690 C.2   111  SER111      0.2288
     26  O        -14.6770  -48.8270   27.2620 O.2   111  SER111     -0.2866
     27  CB       -16.0770  -45.8740   26.4000 C.3   111  SER111      0.2089
     28  OG       -16.8690  -46.2580   27.5110 O.3   111  SER111     -0.2183
     29  N         -8.8070  -40.1850   23.0870 N.3   175  LEU175     -0.1245
     30  CA        -9.0600  -38.7390   23.2190 C.3   175  LEU175      0.1561
     31  C         -8.5170  -38.1430   24.5180 C.2   175  LEU175      0.2260
     32  O         -7.9250  -37.0630   24.4880 O.2   175  LEU175     -0.2867
     33  CB       -10.5500  -38.3780   23.0940 C.3   175  LEU175      0.0270
     34  CG       -11.1490  -38.0310   21.7290 C.3   175  LEU175      0.0019
     35  CD1      -12.3890  -37.1870   21.9540 C.3   175  LEU175      0.0001
     36  CD2      -10.2000  -37.2730   20.8200 C.3   175  LEU175      0.0001
     37  N         -9.0440  -39.6080   12.9860 N.3   214  ASP214     -0.1225
     38  CA       -10.0070  -40.3540   13.8020 C.3   214  ASP214      0.1805
     39  C        -11.4020  -39.7480   13.7670 C.2   214  ASP214      0.2597
     40  O        -12.3790  -40.4610   13.5430 O.2   214  ASP214     -0.2718
     41  CB        -9.5150  -40.4110   15.2570 C.3   214  ASP214      0.1424
     42  CG       -10.1430  -41.5260   16.0580 C.2   214  ASP214      0.3668
     43  OD1      -10.6110  -42.5290   15.4670 O.co2 214  ASP214     -0.2456
     44  OD2      -10.1340  -41.3940   17.3010 O.co2 214  ASP214     -0.2456
     45  N        -11.4730  -38.4280   13.9450 N.am  215  LEU215     -0.1979
     46  CA       -12.7370  -37.6870   14.0560 C.3   215  LEU215      0.1596
     47  C        -13.2790  -37.1370   12.7290 C.2   215  LEU215      0.2287
     48  O        -14.2060  -36.3190   12.7340 O.2   215  LEU215     -0.2864
     49  CB       -12.5400  -36.5140   15.0110 C.3   215  LEU215      0.0297
     50  CG       -11.9720  -36.8250   16.3920 C.3   215  LEU215      0.0022
     51  CD1      -11.6030  -35.5390   17.1160 C.3   215  LEU215      0.0001
     52  CD2      -12.9720  -37.6350   17.1950 C.3   215  LEU215      0.0001
     53  N        -15.3480  -37.6380   10.3600 N.3   217  SER217     -0.1202
     54  CA       -16.7630  -37.5800    9.9270 C.3   217  SER217      0.2020
     55  C        -17.2790  -36.1410    9.8560 C.2   217  SER217      0.2618
     56  O        -18.1130  -35.7940    9.0140 O.2   217  SER217     -0.2717
     57  CB       -17.6580  -38.3860   10.8740 C.3   217  SER217      0.2103
     58  OG       -17.7090  -37.8120   12.1750 O.3   217  SER217     -0.2182
     59  N        -16.7560  -35.3170   10.7570 N.am  218  VAL218     -0.1979
     60  CA       -17.0230  -33.8830   10.7780 C.3   218  VAL218      0.1595
     61  C        -16.4250  -33.1000    9.5840 C.2   218  VAL218      0.2287
     62  O        -16.8140  -31.9590    9.3760 O.2   218  VAL218     -0.2864
     63  CB       -16.5290  -33.2450   12.1050 C.3   218  VAL218      0.0276
     64  CG1      -17.0550  -34.0190   13.3160 C.3   218  VAL218      0.0022
     65  CG2      -15.0070  -33.1500   12.1400 C.3   218  VAL218      0.0022
     66  N        -22.9640  -39.7630   12.0100 N.3   229  ALA229     -0.1245
     67  CA       -23.3000  -39.4540   13.3950 C.3   229  ALA229      0.1562
     68  C        -24.3130  -40.4390   13.9820 C.2   229  ALA229      0.2260
     69  O        -24.2230  -40.7790   15.1620 O.2   229  ALA229     -0.2867
     70  CB       -23.8230  -38.0270   13.5070 C.3   229  ALA229      0.0290
     71  N        -22.4090  -43.4430   15.3410 N.3   232  ILE232     -0.1231
     72  CA       -21.6650  -43.1480   16.5620 C.3   232  ILE232      0.1692
     73  C        -22.5980  -43.2700   17.7770 C.2   232  ILE232      0.2592
     74  O        -22.2410  -43.8880   18.7860 O.2   232  ILE232     -0.2718
     75  CB       -20.9950  -41.7560   16.5020 C.3   232  ILE232      0.0266
     76  CG1      -19.8720  -41.7690   15.4560 C.3   232  ILE232      0.0019
     77  CG2      -20.4210  -41.3650   17.8620 C.3   232  ILE232      0.0020
     78  CD1      -19.4220  -40.4030   14.9810 C.3   232  ILE232      0.0001
     79  N        -23.7960  -42.7020   17.6540 N.am  233  TYR233     -0.1976
     80  CA       -24.7830  -42.7510   18.7270 C.3   233  TYR233      0.1639
     81  C        -25.3980  -44.1360   18.8870 C.2   233  TYR233      0.2290
     82  O        -25.5040  -44.6290   20.0080 O.2   233  TYR233     -0.2864
     83  CB       -25.8590  -41.6840   18.5320 C.3   233  TYR233      0.0560
     84  CG       -25.3590  -40.2860   18.8160 C.ar  233  TYR233     -0.0198
     85  CD1      -25.0750  -39.8800   20.1180 C.ar  233  TYR233     -0.0009
     86  CD2      -25.1690  -39.3680   17.7820 C.ar  233  TYR233     -0.0009
     87  CE1      -24.6160  -38.6010   20.3840 C.ar  233  TYR233      0.0417
     88  CE2      -24.7160  -38.0830   18.0330 C.ar  233  TYR233      0.0417
     89  CZ       -24.4390  -37.7000   19.3350 C.ar  233  TYR233      0.1957
     90  OH       -23.9840  -36.4220   19.5670 O.3   233  TYR233     -0.2866
     91  N        -22.9410  -45.6170   21.0960 N.3   236  PHE236     -0.1227
     92  CA       -23.0300  -44.9620   22.4110 C.3   236  PHE236      0.1736
     93  C        -24.2680  -45.4210   23.1730 C.2   236  PHE236      0.2595
     94  O        -24.1940  -45.7440   24.3600 O.2   236  PHE236     -0.2718
     95  CB       -23.1280  -43.4380   22.2800 C.3   236  PHE236      0.0547
     96  CG       -21.8530  -42.7380   21.8940 C.ar  236  PHE236     -0.0202
     97  CD1      -20.6090  -43.3790   21.8750 C.ar  236  PHE236     -0.0042
     98  CD2      -21.9000  -41.3780   21.5980 C.ar  236  PHE236     -0.0042
     99  CE1      -19.4580  -42.6760   21.5360 C.ar  236  PHE236     -0.0003
    100  CE2      -20.7550  -40.6770   21.2590 C.ar  236  PHE236     -0.0003
    101  CZ       -19.5310  -41.3270   21.2300 C.ar  236  PHE236     -0.0000
    102  N        -25.4020  -45.4280   22.4820 N.am  237  TRP237     -0.1976
    103  CA       -26.6640  -45.8310   23.0800 C.3   237  TRP237      0.1640
    104  C        -26.6810  -47.3300   23.3980 C.2   237  TRP237      0.2290
    105  O        -27.2040  -47.7270   24.4450 O.2   237  TRP237     -0.2864
    106  CB       -27.8510  -45.4620   22.1800 C.3   237  TRP237      0.0576
    107  CG       -28.0910  -43.9690   21.9850 C.ar  237  TRP237      0.0006
    108  CD1      -27.8390  -42.9710   22.8750 C.ar  237  TRP237      0.0946
    109  CD2      -28.6660  -43.3380   20.8310 C.ar  237  TRP237      0.0152
    110  NE1      -28.2110  -41.7540   22.3490 N.ar  237  TRP237     -0.2442
    111  CE2      -28.7210  -41.9530   21.0940 C.ar  237  TRP237      0.0810
    112  CE3      -29.1350  -43.8110   19.5970 C.ar  237  TRP237      0.0012
    113  CZ2      -29.2210  -41.0330   20.1630 C.ar  237  TRP237      0.0191
    114  CZ3      -29.6410  -42.8980   18.6760 C.ar  237  TRP237      0.0001
    115  CH2      -29.6800  -41.5250   18.9640 C.ar  237  TRP237      0.0015
    116  N        -25.7550  -38.6630   29.6020 N.3   252  PRO252     -0.2102
    117  CA       -26.6660  -38.2250   28.5260 C.3   252  PRO252      0.1504
    118  C        -26.2320  -38.5100   27.0780 C.2   252  PRO252      0.2576
    119  O        -27.0790  -38.7950   26.2400 O.2   252  PRO252     -0.2718
    120  CB       -26.7640  -36.7200   28.7630 C.3   252  PRO252      0.0282
    121  CG       -26.6390  -36.5830   30.2340 C.3   252  PRO252      0.0208
    122  CD       -25.6880  -37.6580   30.6810 C.3   252  PRO252      0.0893
    123  N        -24.9340  -38.4310   26.7960 N.am  253  MET253     -0.1966
    124  CA       -24.3840  -38.7650   25.4700 C.3   253  MET253      0.1736
    125  C        -24.6930  -40.2030   25.0590 C.2   253  MET253      0.2616
    126  O        -24.8810  -40.4840   23.8750 O.2   253  MET253     -0.2715
    127  CB       -22.8630  -38.5490   25.4660 C.3   253  MET253      0.0427
    128  CG       -22.1770  -38.6980   24.1150 C.3   253  MET253      0.0599
    129  SD       -20.3880  -38.5320   24.2290 S.3   253  MET253     -0.1393
    130  CE       -19.9710  -40.1850   24.7670 C.3   253  MET253      0.0692
    131  N        -24.7340  -41.0920   26.0520 N.am  254  MET254     -0.1963
    132  CA       -24.9910  -42.5180   25.8650 C.3   254  MET254      0.1736
    133  C        -26.4090  -42.9260   26.2900 C.2   254  MET254      0.2616
    134  O        -26.6550  -44.0820   26.6140 O.2   254  MET254     -0.2715
    135  CB       -23.9490  -43.3110   26.6650 C.3   254  MET254      0.0427
    136  CG       -22.5170  -42.8430   26.4330 C.3   254  MET254      0.0599
    137  SD       -21.2890  -44.0830   26.8670 S.3   254  MET254     -0.1393
    138  CE       -19.8800  -43.0590   27.3010 C.3   254  MET254      0.0692
    139  N        -27.3480  -41.9840   26.2580 N.am  255  ASP255     -0.1971
    140  CA       -28.7270  -42.2360   26.6640 C.3   255  ASP255      0.1709
    141  C        -29.5750  -42.0410   25.4300 C.2   255  ASP255      0.2293
    142  O        -29.6070  -40.9380   24.8790 O.2   255  ASP255     -0.2864
    143  CB       -29.1310  -41.2490   27.7640 C.3   255  ASP255      0.1436
    144  CG       -30.1420  -41.8200   28.7270 C.2   255  ASP255      0.3671
    145  OD1      -31.0430  -42.5640   28.2900 O.co2 255  ASP255     -0.2456
    146  OD2      -30.0340  -41.5080   29.9320 O.co2 255  ASP255     -0.2456
    147  N        -32.3740  -39.5040   25.6280 N.3   258  LYS258     -0.1245
    148  CA       -32.0290  -38.0810   25.5470 C.3   258  LYS258      0.1561
    149  C        -31.4690  -37.6700   24.1690 C.2   258  LYS258      0.2260
    150  O        -30.7580  -36.6720   24.0560 O.2   258  LYS258     -0.2867
    151  CB       -31.0750  -37.7420   26.6960 C.3   258  LYS258      0.0271
    152  CG       -31.7930  -37.7300   28.0390 C.3   258  LYS258      0.0035
    153  CD       -30.8920  -37.9960   29.2300 C.3   258  LYS258      0.0206
    154  CE       -31.7330  -38.3970   30.4350 C.3   258  LYS258      0.1093
    155  NZ       -30.9810  -38.3830   31.7200 N.3   258  LYS258     -0.1314
    156  N        -31.2190  -33.9530   22.4380 N.3   261  GLU261     -0.1231
    157  CA       -30.0820  -33.0510   22.6820 C.3   261  GLU261      0.1699
    158  C        -28.8240  -33.3370   21.8340 C.2   261  GLU261      0.2592
    159  O        -27.7880  -32.7030   22.0470 O.2   261  GLU261     -0.2718
    160  CB       -29.6910  -33.1030   24.1640 C.3   261  GLU261      0.0402
    161  CG       -30.8240  -32.8210   25.1370 C.3   261  GLU261      0.1161
    162  CD       -30.3700  -32.9500   26.5750 C.2   261  GLU261      0.3649
    163  OE1      -29.5140  -32.1410   26.9940 O.co2 261  GLU261     -0.2457
    164  OE2      -30.8600  -33.8590   27.2830 O.co2 261  GLU261     -0.2457
    165  N        -28.9040  -34.2840   20.8930 N.am  262  VAL262     -0.1980
    166  CA       -27.7910  -34.5870   19.9680 C.3   262  VAL262      0.1595
    167  C        -27.2840  -33.3620   19.1810 C.2   262  VAL262      0.2287
    168  O        -26.0770  -33.1670   19.0830 O.2   262  VAL262     -0.2864
    169  CB       -28.1430  -35.7670   19.0210 C.3   262  VAL262      0.0276
    170  CG1      -27.2170  -35.8490   17.8090 C.3   262  VAL262      0.0022
    171  CG2      -28.1030  -37.0700   19.8050 C.3   262  VAL262      0.0022
    172  N        -25.3230  -31.3680   21.7090 N.3   265  GLY265     -0.1210
    173  CA       -24.1070  -32.1260   21.9840 C.3   265  GLY265      0.1956
    174  C        -23.0780  -32.0890   20.8650 C.2   265  GLY265      0.2611
    175  O        -21.8740  -32.0290   21.1320 O.2   265  GLY265     -0.2717
    176  N        -23.5520  -32.1330   19.6180 N.am  266  GLN266     -0.1979
    177  CA       -22.6810  -32.0080   18.4440 C.3   266  GLN266      0.1601
    178  C        -22.0300  -30.6410   18.3920 C.2   266  GLN266      0.2287
    179  O        -20.8120  -30.5380   18.2310 O.2   266  GLN266     -0.2864
    180  CB       -23.4470  -32.2710   17.1440 C.3   266  GLN266      0.0394
    181  CG       -23.7890  -33.7350   16.9460 C.3   266  GLN266      0.0908
    182  CD       -22.5740  -34.5580   16.5960 C.2   266  GLN266      0.2608
    183  OE1      -22.1090  -34.5460   15.4570 O.2   266  GLN266     -0.2717
    184  NE2      -22.0460  -35.2730   17.5800 N.am  266  GLN266     -0.0878
    185  N        -19.2830  -30.4180   20.9440 N.3   269  PHE269     -0.1227
    186  CA       -18.1200  -31.2250   20.5920 C.3   269  PHE269      0.1736
    187  C        -17.2690  -30.5690   19.5200 C.2   269  PHE269      0.2595
    188  O        -16.0430  -30.5080   19.6530 O.2   269  PHE269     -0.2718
    189  CB       -18.5570  -32.5960   20.1020 C.3   269  PHE269      0.0547
    190  CG       -17.4140  -33.4880   19.6660 C.ar  269  PHE269     -0.0202
    191  CD1      -16.6430  -34.1700   20.6150 C.ar  269  PHE269     -0.0042
    192  CD2      -17.1090  -33.6510   18.3070 C.ar  269  PHE269     -0.0042
    193  CE1      -15.6070  -34.9960   20.2180 C.ar  269  PHE269     -0.0003
    194  CE2      -16.0600  -34.4660   17.9090 C.ar  269  PHE269     -0.0003
    195  CZ       -15.3130  -35.1420   18.8650 C.ar  269  PHE269     -0.0000
    196  N        -17.9170  -30.1160   18.4480 N.am  270  TYR270     -0.1976
    197  CA       -17.2200  -29.4180   17.3750 C.3   270  TYR270      0.1639
    198  C        -16.4110  -28.2530   17.9440 C.2   270  TYR270      0.2290
    199  O        -15.2310  -28.0930   17.6290 O.2   270  TYR270     -0.2864
    200  CB       -18.1990  -28.8970   16.3220 C.3   270  TYR270      0.0560
    201  CG       -18.5940  -29.8900   15.2450 C.ar  270  TYR270     -0.0198
    202  CD1      -19.2020  -31.1040   15.5620 C.ar  270  TYR270     -0.0009
    203  CD2      -18.3990  -29.5940   13.9040 C.ar  270  TYR270     -0.0009
    204  CE1      -19.5850  -31.9990   14.5780 C.ar  270  TYR270      0.0417
    205  CE2      -18.7780  -30.4860   12.9130 C.ar  270  TYR270      0.0417
    206  CZ       -19.3730  -31.6880   13.2530 C.ar  270  TYR270      0.1957
    207  OH       -19.7470  -32.5790   12.2700 O.3   270  TYR270     -0.2866
    208  N        -13.5560  -29.6050   20.8080 N.3   273  VAL273     -0.1245
    209  CA       -12.6150  -30.6350   20.3620 C.3   273  VAL273      0.1561
    210  C        -12.2670  -30.4930   18.8860 C.2   273  VAL273      0.2260
    211  O        -11.1160  -30.2460   18.5560 O.2   273  VAL273     -0.2867
    212  CB       -13.1770  -32.0530   20.6100 C.3   273  VAL273      0.0252
    213  CG1      -12.1340  -33.1200   20.2600 C.3   273  VAL273      0.0019
    214  CG2      -13.6500  -32.1910   22.0550 C.3   273  VAL273      0.0019
@<TRIPOS>BOND
     1    56    55    2
     2    62    61    2
     3    61    60    1
     4    55    54    1
     5    55    59   am
     6    54    53    1
     7    54    57    1
     8    59    60    1
     9    60    63    1
    10    57    58    1
    11    66    67    1
    12    63    65    1
    13    63    64    1
    14   207   206    1
    15    47    48    2
    16    47    46    1
    17   205   206   ar
    18   205   203   ar
    19    37    38    1
    20     9     7   ar
    21     9    11   ar
    22   206   204   ar
    23     4     3    2
    24    67    70    1
    25    67    68    1
    26    40    39    2
    27     7     6   ar
    28    12    11    1
    29    39    38    1
    30    39    45   am
    31    38    41    1
    32   203   201   ar
    33    45    46    1
    34    68    69    2
    35    46    49    1
    36    11    10   ar
    37     3     2    1
    38     3    13   am
    39     2     1    1
    40     2     5    1
    41   204   202   ar
    42    15    16    2
    43    15    14    1
    44     6     5    1
    45     6     8   ar
    46    78    76    1
    47    49    50    1
    48   201   202   ar
    49   201   200    1
    50    41    42    1
    51    71    72    1
    52    10     8   ar
    53    13    14    1
    54    14    17    1
    55    76    75    1
    56   183   182    2
    57    43    42   ar
    58    42    44   ar
    59   200   197    1
    60    50    51    1
    61    50    52    1
    62    75    72    1
    63    75    77    1
    64    72    73    1
    65   182   181    1
    66   182   184   am
    67    17    18    1
    68   181   180    1
    69   180   177    1
    70    20    18   ar
    71    20    22   ar
    72   197   198    1
    73   197   196    1
    74    18    19   ar
    75   199   198    2
    76    79    73   am
    77    79    80    1
    78    73    74    2
    79    86    88   ar
    80    86    84   ar
    81   170   169    1
    82   194   192   ar
    83   194   195   ar
    84    88    89   ar
    85    22    21   ar
    86   179   178    2
    87   192   190   ar
    88   178   177    1
    89   177   176    1
    90   196   187   am
    91    83    80    1
    92    83    84    1
    93   211   210    2
    94    19    21   ar
    95   114   115   ar
    96   114   112   ar
    97    80    81    1
    98    84    85   ar
    99   195   193   ar
   100   210   209    1
   101    81    82    2
   102   115   113   ar
   103   169   171    1
   104   169   166    1
   105   168   167    2
   106   167   166    1
   107    89    90    1
   108    89    87   ar
   109   187   188    2
   110   187   186    1
   111   112   109   ar
   112   176   174   am
   113   190   189    1
   114   190   191   ar
   115   166   165    1
   116   189   186    1
   117    85    87   ar
   118   113   111   ar
   119   193   191   ar
   120   213   212    1
   121   209   212    1
   122   209   208    1
   123   186   185    1
   124   212   214    1
   125    36    34    1
   126   109   111   ar
   127   109   107   ar
   128   174   175    2
   129   174   173    1
   130   165   158   am
   131   111   110   ar
   132    91    92    1
   133   101   100   ar
   134   101    99   ar
   135   100    98   ar
   136    99    97   ar
   137    98    96   ar
   138   172   173    1
   139    34    35    1
   140    34    33    1
   141   158   159    2
   142   158   157    1
   143    97    96   ar
   144    96    95    1
   145   107   106    1
   146   107   108   ar
   147   106   103    1
   148    95    92    1
   149   110   108   ar
   150    92    93    1
   151   156   157    1
   152   102   103    1
   153   102    93   am
   154   157   160    1
   155   103   104    1
   156    29    30    1
   157    33    30    1
   158    93    94    2
   159    30    31    1
   160   104   105    2
   161   126   125    2
   162   150   149    2
   163   128   129    1
   164   128   127    1
   165   160   161    1
   166   149   148    1
   167   129   130    1
   168    32    31    2
   169   142   141    2
   170   125   124    1
   171   125   131   am
   172   161   162    1
   173    23    24    1
   174   141   140    1
   175   127   124    1
   176   124   123    1
   177   148   147    1
   178   148   151    1
   179    24    27    1
   180    24    25    1
   181   132   131    1
   182   132   133    1
   183   132   135    1
   184   119   118    2
   185   139   133   am
   186   139   140    1
   187   133   134    2
   188    27    28    1
   189   136   135    1
   190   136   137    1
   191   162   163   ar
   192   162   164   ar
   193   140   143    1
   194   151   152    1
   195    25    26    2
   196   123   118   am
   197   137   138    1
   198   118   117    1
   199   143   144    1
   200   152   153    1
   201   145   144   ar
   202   117   120    1
   203   117   116    1
   204   144   146   ar
   205   120   121    1
   206   153   154    1
   207   116   122    1
   208   121   122    1
   209   154   155    1
