@<TRIPOS>MOLECULE
tmp/5zntA00.pdb
 104 97 0 0 0
SMALL
GASTEIGER

@<TRIPOS>ATOM
      1  N         16.1540  121.3120   39.2540 N.3    48  ASN48      -0.1225
      2  CA        15.4880  122.4200   38.5610 C.3    48  ASN48       0.1785
      3  C         16.5330  123.1450   37.7290 C.2    48  ASN48       0.2597
      4  O         17.6620  122.6650   37.5690 O.2    48  ASN48      -0.2718
      5  CB        14.7640  123.3580   39.5520 C.3    48  ASN48       0.1169
      6  CG        15.6930  123.9580   40.5990 C.2    48  ASN48       0.2627
      7  OD1       16.8710  124.1600   40.3570 O.2    48  ASN48      -0.2716
      8  ND2       15.1420  124.2830   41.7650 N.am   48  ASN48      -0.0877
      9  N         16.1780  124.3290   37.2140 N.am   49  ASN49      -0.1974
     10  CA        17.1050  124.9780   36.3030 C.3    49  ASN49       0.1688
     11  C         18.3570  125.4950   37.0140 C.2    49  ASN49       0.2292
     12  O         19.2820  125.9590   36.3410 O.2    49  ASN49      -0.2864
     13  CB        16.3930  126.1070   35.5330 C.3    49  ASN49       0.1181
     14  CG        15.7150  125.6070   34.2550 C.2    49  ASN49       0.2629
     15  OD1       15.9950  124.4970   33.7870 O.2    49  ASN49      -0.2716
     16  ND2       14.8350  126.4270   33.6780 N.am   49  ASN49      -0.0877
     17  N         20.0180  121.6490   36.0770 N.3    52  ILE52      -0.1245
     18  CA        19.7040  120.7400   34.9750 C.3    52  ILE52       0.1561
     19  C         20.8430  120.7190   33.9580 C.2    52  ILE52       0.2260
     20  O         21.2480  119.6520   33.4800 O.2    52  ILE52      -0.2867
     21  CB        18.3470  121.1220   34.3390 C.3    52  ILE52       0.0252
     22  CG1       17.1780  120.6200   35.2310 C.3    52  ILE52       0.0019
     23  CG2       18.2500  120.5620   32.9100 C.3    52  ILE52       0.0019
     24  CD1       15.8020  121.3760   34.9920 C.3    52  ILE52       0.0001
     25  N         23.5620  117.6480   32.6550 N.3    56  LYS56      -0.1245
     26  CA        23.8120  117.3110   31.2500 C.3    56  LYS56       0.1561
     27  C         25.3000  117.2780   30.9440 C.2    56  LYS56       0.2260
     28  O         25.7560  116.4450   30.1470 O.2    56  LYS56      -0.2867
     29  CB        23.1090  118.3030   30.3190 C.3    56  LYS56       0.0271
     30  CG        21.6420  118.0250   30.1460 C.3    56  LYS56       0.0035
     31  CD        20.9490  119.1260   29.3350 C.3    56  LYS56       0.0206
     32  CE        19.4200  119.0580   29.5100 C.3    56  LYS56       0.1093
     33  NZ        18.7200  120.1840   28.8330 N.3    56  LYS56      -0.1314
     34  N         11.4700  120.6470   39.5690 N.3    83  ASN83      -0.1240
     35  CA        10.8730  120.5800   38.2400 C.3    83  ASN83       0.1653
     36  C         10.6010  119.1070   37.9510 C.2    83  ASN83       0.2266
     37  O         11.5380  118.3310   37.7330 O.2    83  ASN83      -0.2867
     38  CB        11.8440  121.2260   37.2630 C.3    83  ASN83       0.1155
     39  CG        11.4480  121.0870   35.8130 C.2    83  ASN83       0.2627
     40  OD1       10.6700  120.2130   35.4070 O.2    83  ASN83      -0.2716
     41  ND2       12.0090  121.9730   35.0110 N.am   83  ASN83      -0.0877
     42  N          9.0550  117.6000   35.4360 N.3    85  SER85      -0.1202
     43  CA         9.4050  117.1490   34.0850 C.3    85  SER85       0.2020
     44  C         10.8680  116.7570   34.0170 C.2    85  SER85       0.2618
     45  O         11.2340  115.8130   33.3080 O.2    85  SER85      -0.2717
     46  CB         9.1480  118.2530   33.0610 C.3    85  SER85       0.2103
     47  OG         7.7680  118.5140   33.0100 O.3    85  SER85      -0.2182
     48  N         11.7230  117.5120   34.7130 N.am   86  ALA86      -0.1979
     49  CA        13.1480  117.2000   34.7350 C.3    86  ALA86       0.1597
     50  C         13.4120  115.9210   35.5110 C.2    86  ALA86       0.2287
     51  O         14.2540  115.1080   35.1040 O.2    86  ALA86      -0.2864
     52  CB        13.9360  118.3730   35.3290 C.3    86  ALA86       0.0319
     53  N         12.5550  113.1650   33.2190 N.3    89  GLU89      -0.1245
     54  CA        13.5340  112.9490   32.1670 C.3    89  GLU89       0.1567
     55  C         14.7950  112.2850   32.7170 C.2    89  GLU89       0.2260
     56  O         15.3690  111.3900   32.0840 O.2    89  GLU89      -0.2867
     57  CB        13.8560  114.2870   31.5010 C.3    89  GLU89       0.0388
     58  CG        14.9230  114.2110   30.4370 C.3    89  GLU89       0.1160
     59  CD        14.4650  113.4730   29.1740 C.2    89  GLU89       0.3649
     60  OE1       15.3140  113.3380   28.2690 O.co2  89  GLU89      -0.2457
     61  OE2       13.2860  113.0190   29.0850 O.co2  89  GLU89      -0.2457
     62  N         11.8710  113.2900   25.0930 N.3   334  PRO334     -0.2116
     63  CA        11.2410  113.5000   26.4100 C.3   334  PRO334      0.1372
     64  C          9.7530  113.1920   26.3710 C.2   334  PRO334      0.2244
     65  O          9.1240  113.1740   25.3120 O.2   334  PRO334     -0.2868
     66  CB        11.4890  114.9860   26.6950 C.3   334  PRO334      0.0268
     67  CG        11.7410  115.5990   25.3700 C.3   334  PRO334      0.0207
     68  CD        12.4280  114.5340   24.5380 C.3   334  PRO334      0.0892
     69  N          7.1300  117.7350   25.0950 N.3   337  TRP337     -0.1241
     70  CA         8.0600  118.6980   24.5130 C.3   337  TRP337      0.1605
     71  C          8.0680  120.0140   25.2760 C.2   337  TRP337      0.2264
     72  O          9.1300  120.6100   25.4740 O.2   337  TRP337     -0.2867
     73  CB         7.7100  118.9500   23.0420 C.3   337  TRP337      0.0550
     74  CG         8.0270  117.7910   22.1360 C.ar  337  TRP337      0.0003
     75  CD1        7.1320  116.9960   21.4630 C.ar  337  TRP337      0.0946
     76  CD2        9.3330  117.2890   21.8140 C.ar  337  TRP337      0.0152
     77  NE1        7.8060  116.0350   20.7420 N.ar  337  TRP337     -0.2442
     78  CE2        9.1540  116.1910   20.9410 C.ar  337  TRP337      0.0810
     79  CE3       10.6370  117.6610   22.1830 C.ar  337  TRP337      0.0012
     80  CZ2       10.2280  115.4690   20.4230 C.ar  337  TRP337      0.0191
     81  CZ3       11.7020  116.9440   21.6720 C.ar  337  TRP337      0.0001
     82  CH2       11.4930  115.8590   20.7990 C.ar  337  TRP337      0.0015
     83  N          6.6820  121.2950   28.8480 N.3   339  PRO339     -0.2116
     84  CA         5.9740  121.0200   30.1030 C.3   339  PRO339      0.1372
     85  C          5.1200  122.1970   30.5330 C.2   339  PRO339      0.2244
     86  O          5.4230  123.3580   30.2440 O.2   339  PRO339     -0.2868
     87  CB         7.1080  120.7700   31.1060 C.3   339  PRO339      0.0268
     88  CG         8.2930  120.3830   30.2510 C.3   339  PRO339      0.0207
     89  CD         8.1430  121.1950   28.9940 C.3   339  PRO339      0.0892
     90  N          3.9200  124.8780   33.1270 N.3   341  SER341     -0.1217
     91  CA         4.5120  125.6350   34.2210 C.3   341  SER341      0.1889
     92  C          3.3780  126.0820   35.1450 C.2   341  SER341      0.2288
     93  O          2.6630  127.0370   34.8450 O.2   341  SER341     -0.2866
     94  CB         5.2990  126.8300   33.6910 C.3   341  SER341      0.2089
     95  OG         5.8990  127.5260   34.7750 O.3   341  SER341     -0.2183
     96  N          6.8220  122.5770   37.4350 N.3   357  GLN357     -0.1245
     97  CA         6.7620  122.1630   36.0410 C.3   357  GLN357      0.1566
     98  C          6.4980  120.6590   35.9710 C.2   357  GLN357      0.2260
     99  O          7.0700  119.8780   36.7420 O.2   357  GLN357     -0.2867
    100  CB         8.0510  122.5380   35.3030 C.3   357  GLN357      0.0367
    101  CG         8.4380  124.0140   35.3980 C.3   357  GLN357      0.0905
    102  CD         9.0700  124.3470   36.7520 C.2   357  GLN357      0.2608
    103  OE1        9.5460  123.4530   37.4620 O.2   357  GLN357     -0.2717
    104  NE2        9.0490  125.6280   37.1270 N.am  357  GLN357     -0.0878
@<TRIPOS>BOND
     1    80    82   ar
     2    80    78   ar
     3    77    78   ar
     4    77    75   ar
     5    82    81   ar
     6    78    76   ar
     7    75    74   ar
     8    81    79   ar
     9    76    74   ar
    10    76    79   ar
    11    74    73    1
    12    73    70    1
    13    70    69    1
    14    70    71    1
    15    68    62    1
    16    68    67    1
    17    62    63    1
    18    71    72    2
    19    65    64    2
    20    67    66    1
    21    64    63    1
    22    63    66    1
    23    60    59   ar
    24    33    32    1
    25    83    89    1
    26    83    84    1
    27    89    88    1
    28    61    59   ar
    29    59    58    1
    30    31    32    1
    31    31    30    1
    32    84    85    1
    33    84    87    1
    34    30    29    1
    35    28    27    2
    36    86    85    2
    37    88    87    1
    38    29    26    1
    39    58    57    1
    40    27    26    1
    41    26    25    1
    42    57    54    1
    43    56    55    2
    44    54    55    1
    45    54    53    1
    46    23    21    1
    47    47    46    1
    48    46    43    1
    49    90    91    1
    50    45    44    2
    51    20    19    2
    52    16    14   am
    53    94    91    1
    54    94    95    1
    55    15    14    2
    56    19    18    1
    57    44    43    1
    58    44    48   am
    59    43    42    1
    60    91    92    1
    61    14    13    1
    62    21    18    1
    63    21    22    1
    64    48    49    1
    65    49    52    1
    66    49    50    1
    67    93    92    2
    68    18    17    1
    69    24    22    1
    70    41    39   am
    71    51    50    2
    72   100   101    1
    73   100    97    1
    74   101   102    1
    75    40    39    2
    76    13    10    1
    77    39    38    1
    78    98    97    1
    79    98    99    2
    80    97    96    1
    81    10    11    1
    82    10     9    1
    83    12    11    2
    84   102   104   am
    85   102   103    2
    86     9     3   am
    87    38    35    1
    88     4     3    2
    89     3     2    1
    90    37    36    2
    91    36    35    1
    92    35    34    1
    93     2     1    1
    94     2     5    1
    95     5     6    1
    96     7     6    2
    97     6     8   am
