@<TRIPOS>MOLECULE
tmp/5zo7A01.pdb
 146 139 0 0 0
SMALL
GASTEIGER

@<TRIPOS>ATOM
      1  N         25.7940   -6.3840   -1.4490 N.3    93  THR93      -0.1218
      2  CA        25.6160   -5.9820   -2.8480 C.3    93  THR93       0.1862
      3  C         24.5490   -6.8620   -3.4880 C.2    93  THR93       0.2287
      4  O         23.6850   -6.3670   -4.2100 O.2    93  THR93      -0.2866
      5  CB        26.9410   -5.9730   -3.6610 C.3    93  THR93       0.1770
      6  OG1       27.9120   -5.0720   -3.0640 O.3    93  THR93      -0.2211
      7  CG2       26.6700   -5.6080   -5.1270 C.3    93  THR93       0.0375
      8  N         21.5160   -4.7190   -4.9690 N.3    97  GLU97      -0.1231
      9  CA        21.6190   -4.6960   -6.4040 C.3    97  GLU97       0.1699
     10  C         21.2060   -6.0140   -6.9410 C.2    97  GLU97       0.2593
     11  O         20.4300   -6.0830   -7.8950 O.2    97  GLU97      -0.2718
     12  CB        23.0720   -4.3780   -6.8450 C.3    97  GLU97       0.0402
     13  CG        23.4450   -2.8930   -6.7980 C.3    97  GLU97       0.1161
     14  CD        24.8520   -2.5770   -7.2980 C.2    97  GLU97       0.3649
     15  OE1       25.5230   -3.4070   -7.9680 O.co2  97  GLU97      -0.2457
     16  OE2       25.3090   -1.4590   -6.9940 O.co2  97  GLU97      -0.2457
     17  N         21.8090   -7.0560   -6.3760 N.am   98  GLY98      -0.1942
     18  CA        21.6640   -8.4000   -6.8820 C.3    98  GLY98       0.2014
     19  C         22.6890   -8.7420   -7.9410 C.2    98  GLY98       0.2639
     20  O         23.6460   -8.0060   -8.1520 O.2    98  GLY98      -0.2714
     21  N         22.4850   -9.8820   -8.5890 N.am   99  GLU99      -0.1963
     22  CA        23.3190  -10.3310   -9.6820 C.3    99  GLU99       0.1733
     23  C         22.4690  -10.6470  -10.9020 C.2    99  GLU99       0.2616
     24  O         21.2520  -10.7440  -10.8150 O.2    99  GLU99      -0.2715
     25  CB        24.1110  -11.5600   -9.2520 C.3    99  GLU99       0.0429
     26  CG        25.1410  -11.2510   -8.1870 C.3    99  GLU99       0.1163
     27  CD        25.5700  -12.4710   -7.4160 C.2    99  GLU99       0.3649
     28  OE1       25.2360  -13.5970   -7.8540 O.co2  99  GLU99      -0.2457
     29  OE2       26.2340  -12.3040   -6.3630 O.co2  99  GLU99      -0.2457
     30  N         23.1250  -10.8080  -12.0400 N.am  100  ARG100     -0.1977
     31  CA        22.4530  -11.0780  -13.3100 C.3   100  ARG100      0.1597
     32  C         22.6430  -12.5460  -13.6930 C.2   100  ARG100      0.2287
     33  O         23.7300  -13.1040  -13.5700 O.2   100  ARG100     -0.2864
     34  CB        23.0010  -10.1490  -14.3960 C.3   100  ARG100      0.0334
     35  CG        22.2000  -10.1380  -15.6850 C.3   100  ARG100      0.0492
     36  CD        20.9980   -9.1930  -15.6880 C.3   100  ARG100      0.2205
     37  NE        20.2750   -9.2910  -16.9670 N.pl3 100  ARG100     -0.0865
     38  CZ        19.2750  -10.1320  -17.2200 C.cat 100  ARG100      0.5346
     39  NH1       18.8300  -10.9760  -16.2970 N.pl3 100  ARG100      0.1354
     40  NH2       18.7090  -10.1360  -18.4180 N.pl3 100  ARG100      0.1354
     41  N         15.8730   -8.9720  -17.5820 N.3   108  TRP108     -0.1241
     42  CA        16.2440   -8.2950  -16.3290 C.3   108  TRP108      0.1605
     43  C         15.0360   -8.1680  -15.3800 C.2   108  TRP108      0.2264
     44  O         15.1940   -8.2640  -14.1620 O.2   108  TRP108     -0.2867
     45  CB        16.8620   -6.9150  -16.5970 C.3   108  TRP108      0.0550
     46  CG        15.8880   -5.8260  -16.9510 C.ar  108  TRP108      0.0003
     47  CD1       15.4010   -5.5360  -18.1920 C.ar  108  TRP108      0.0946
     48  CD2       15.3070   -4.8660  -16.0570 C.ar  108  TRP108      0.0152
     49  NE1       14.5420   -4.4640  -18.1220 N.ar  108  TRP108     -0.2442
     50  CE2       14.4670   -4.0360  -16.8240 C.ar  108  TRP108      0.0810
     51  CE3       15.4060   -4.6400  -14.6830 C.ar  108  TRP108      0.0012
     52  CZ2       13.7340   -2.9990  -16.2680 C.ar  108  TRP108      0.0191
     53  CZ3       14.6770   -3.5980  -14.1260 C.ar  108  TRP108      0.0001
     54  CH2       13.8540   -2.7900  -14.9190 C.ar  108  TRP108      0.0015
     55  N         14.4200  -11.6430  -13.5990 N.3   111  ASP111     -0.1239
     56  CA        15.6080  -12.3140  -13.0280 C.3   111  ASP111      0.1674
     57  C         15.5040  -12.5610  -11.5170 C.2   111  ASP111      0.2266
     58  O         15.4910  -11.6130  -10.7530 O.2   111  ASP111     -0.2867
     59  CB        16.8750  -11.4740  -13.3140 C.3   111  ASP111      0.1410
     60  CG        18.1830  -12.2460  -13.0710 C.2   111  ASP111      0.3668
     61  OD1       18.2100  -13.2690  -12.3480 O.co2 111  ASP111     -0.2456
     62  OD2       19.1970  -11.8130  -13.6330 O.co2 111  ASP111     -0.2456
     63  N         17.8280  -10.6390   -9.3890 N.3   114  ALA114     -0.1245
     64  CA        17.5910   -9.1820   -9.2710 C.3   114  ALA114      0.1562
     65  C         17.3830   -8.7380   -7.8050 C.2   114  ALA114      0.2260
     66  O         16.7390   -9.4180   -7.0030 O.2   114  ALA114     -0.2867
     67  CB        16.4110   -8.7470  -10.1320 C.3   114  ALA114      0.0290
     68  N         17.4000   -2.3630   -6.1190 N.3   117  ILE117     -0.1231
     69  CA        17.4870   -1.2820   -7.1140 C.3   117  ILE117      0.1678
     70  C         16.7340   -1.6360   -8.3900 C.2   117  ILE117      0.2434
     71  O         15.7620   -0.9750   -8.7290 O.2   117  ILE117     -0.2733
     72  CB        18.9710   -0.8860   -7.3790 C.3   117  ILE117      0.0265
     73  CG1       19.5140   -0.1230   -6.1590 C.3   117  ILE117      0.0019
     74  CG2       19.1210   -0.0280   -8.6250 C.3   117  ILE117      0.0020
     75  CD1       21.0300   -0.0830   -5.9840 C.3   117  ILE117      0.0001
     76  N         17.1410   -2.6960   -9.0820 N.am  118  PRO118     -0.2729
     77  CA        16.4300   -2.9370  -10.3350 C.3   118  PRO118      0.1401
     78  C         14.9280   -3.1610  -10.1600 C.2   118  PRO118      0.2269
     79  O         14.1550   -2.7720  -11.0320 O.2   118  PRO118     -0.2865
     80  CB        17.1040   -4.1950  -10.9000 C.3   118  PRO118      0.0296
     81  CG        17.7900   -4.8230   -9.7290 C.3   118  PRO118      0.0237
     82  CD        18.1570   -3.7140   -8.8040 C.3   118  PRO118      0.0939
     83  N         24.2400    7.6590   -9.3620 N.3   141  LEU141     -0.1245
     84  CA        25.0490    6.6380   -8.6830 C.3   141  LEU141      0.1561
     85  C         26.3840    7.2360   -8.3660 C.2   141  LEU141      0.2260
     86  O         27.1540    7.6000   -9.2740 O.2   141  LEU141     -0.2867
     87  CB        25.2190    5.3850   -9.5440 C.3   141  LEU141      0.0270
     88  CG        26.0510    4.2270   -8.9940 C.3   141  LEU141      0.0019
     89  CD1       25.6640    3.8270   -7.5940 C.3   141  LEU141      0.0001
     90  CD2       25.8990    3.0530   -9.9400 C.3   141  LEU141      0.0001
     91  N         17.6960   -0.5230  -17.6600 N.3   192  TYR192     -0.1241
     92  CA        18.7620   -1.5330  -17.7040 C.3   192  TYR192      0.1605
     93  C         20.0580   -0.9070  -18.2040 C.2   192  TYR192      0.2264
     94  O         21.0850   -0.9350  -17.5090 O.2   192  TYR192     -0.2867
     95  CB        18.3430   -2.7030  -18.6010 C.3   192  TYR192      0.0534
     96  CG        19.2740   -3.8810  -18.5280 C.ar  192  TYR192     -0.0201
     97  CD1       19.4410   -4.5890  -17.3390 C.ar  192  TYR192     -0.0009
     98  CD2       19.9960   -4.3010  -19.6500 C.ar  192  TYR192     -0.0009
     99  CE1       20.3020   -5.6660  -17.2630 C.ar  192  TYR192      0.0417
    100  CE2       20.8540   -5.3790  -19.5780 C.ar  192  TYR192      0.0417
    101  CZ        21.0010   -6.0480  -18.3790 C.ar  192  TYR192      0.1957
    102  OH        21.8440   -7.1180  -18.3050 O.3   192  TYR192     -0.2866
    103  N         21.7520    1.2440  -15.7140 N.3   195  LEU195     -0.1231
    104  CA        22.3700    0.5440  -14.5780 C.3   195  LEU195      0.1693
    105  C         23.5600   -0.3340  -15.0240 C.2   195  LEU195      0.2591
    106  O         24.5440   -0.4910  -14.2920 O.2   195  LEU195     -0.2718
    107  CB        21.3370   -0.3140  -13.8360 C.3   195  LEU195      0.0284
    108  CG        20.1570    0.3690  -13.1380 C.3   195  LEU195      0.0019
    109  CD1       19.0900   -0.6560  -12.8100 C.3   195  LEU195      0.0001
    110  CD2       20.5830    1.0940  -11.8700 C.3   195  LEU195      0.0001
    111  N         23.4280   -0.9330  -16.2040 N.am  196  GLU196     -0.1979
    112  CA        24.4920   -1.7030  -16.7990 C.3   196  GLU196      0.1602
    113  C         25.7570   -0.8230  -16.9320 C.2   196  GLU196      0.2287
    114  O         26.8520   -1.1770  -16.4430 O.2   196  GLU196     -0.2864
    115  CB        24.0350   -2.2110  -18.1630 C.3   196  GLU196      0.0415
    116  CG        24.9970   -3.1540  -18.8620 C.3   196  GLU196      0.1163
    117  CD        24.4460   -3.6730  -20.1880 C.2   196  GLU196      0.3649
    118  OE1       25.0850   -4.5670  -20.7900 O.co2 196  GLU196     -0.2457
    119  OE2       23.3690   -3.1920  -20.6410 O.co2 196  GLU196     -0.2457
    120  N         27.3960   -0.2170  -13.7190 N.3   199  ALA199     -0.1245
    121  CA        28.1850   -1.3280  -13.1840 C.3   199  ALA199      0.1562
    122  C         29.5080   -1.5440  -13.9340 C.2   199  ALA199      0.2260
    123  O         30.4990   -1.9840  -13.3630 O.2   199  ALA199     -0.2867
    124  CB        27.3520   -2.6090  -13.1730 C.3   199  ALA199      0.0290
    125  N         32.0850    0.9410  -12.6910 N.3   202  ARG202     -0.1245
    126  CA        32.6290    0.4270  -11.4590 C.3   202  ARG202      0.1563
    127  C         33.8620   -0.4980  -11.7210 C.2   202  ARG202      0.2260
    128  O         34.8430   -0.5030  -10.9570 O.2   202  ARG202     -0.2867
    129  CB        31.5430   -0.3310  -10.6900 C.3   202  ARG202      0.0307
    130  CG        31.9390   -0.6950   -9.2600 C.3   202  ARG202      0.0489
    131  CD        30.8330   -1.4820   -8.5890 C.3   202  ARG202      0.2205
    132  NE        29.7420   -0.6130   -8.1670 N.pl3 202  ARG202     -0.0865
    133  CZ        28.4460   -0.9410   -8.1650 C.cat 202  ARG202      0.5346
    134  NH1       28.0190   -2.1290   -8.6180 N.pl3 202  ARG202      0.1354
    135  NH2       27.5520   -0.0560   -7.7330 N.pl3 202  ARG202      0.1354
    136  N         23.1880    4.8620   -4.3800 N.3   220  PHE220     -0.1241
    137  CA        22.2690    5.0280   -5.5020 C.3   220  PHE220      0.1605
    138  C         21.0150    5.8360   -5.0670 C.2   220  PHE220      0.2264
    139  O         20.2430    5.4050   -4.2140 O.2   220  PHE220     -0.2867
    140  CB        21.8660    3.6600   -6.0320 C.3   220  PHE220      0.0534
    141  CG        21.0010    3.7150   -7.2690 C.ar  220  PHE220     -0.0203
    142  CD1       19.6400    3.8990   -7.1700 C.ar  220  PHE220     -0.0042
    143  CD2       21.5690    3.5550   -8.5370 C.ar  220  PHE220     -0.0042
    144  CE1       18.8670    3.9270   -8.3140 C.ar  220  PHE220     -0.0003
    145  CE2       20.8020    3.6100   -9.6810 C.ar  220  PHE220     -0.0003
    146  CZ        19.4490    3.7780   -9.5700 C.ar  220  PHE220     -0.0000
@<TRIPOS>BOND
     1   118   117   ar
     2   119   117   ar
     3   117   116    1
     4    98   100   ar
     5    98    96   ar
     6   100   101   ar
     7   116   115    1
     8    95    96    1
     9    95    92    1
    10    96    97   ar
    11    40    38    1
    12   101   102    1
    13   101    99   ar
    14    93    92    1
    15    93    94    2
    16    47    49   ar
    17    47    46   ar
    18   115   112    1
    19    49    50   ar
    20    92    91    1
    21    41    42    1
    22    97    99   ar
    23    38    37    2
    24    38    39    1
    25    37    36    1
    26    46    45    1
    27    46    48   ar
    28   113   112    1
    29   113   114    2
    30    50    52   ar
    31    50    48   ar
    32   112   111    1
    33    45    42    1
    34    42    43    1
    35    52    54   ar
    36   111   105   am
    37    48    51   ar
    38   103   104    1
    39    36    35    1
    40    35    34    1
    41    43    44    2
    42   105   104    1
    43   105   106    2
    44    54    53   ar
    45    51    53   ar
    46   104   107    1
    47    34    31    1
    48   122   123    2
    49   122   121    1
    50   107   108    1
    51   120   121    1
    52    32    33    2
    53    32    31    1
    54    62    60   ar
    55    55    56    1
    56    59    60    1
    57    59    56    1
    58    31    30    1
    59   121   124    1
    60   108   109    1
    61   108   110    1
    62    60    61   ar
    63    56    57    1
    64   125   126    1
    65    30    23   am
    66   127   126    1
    67   127   128    2
    68    57    58    2
    69   126   129    1
    70    79    78    2
    71    23    24    2
    72    23    22    1
    73    80    77    1
    74    80    81    1
    75   129   130    1
    76    77    78    1
    77    77    76    1
    78    67    64    1
    79    90    88    1
    80    81    82    1
    81    22    25    1
    82    22    21    1
    83   145   146   ar
    84   145   143   ar
    85   146   144   ar
    86    87    88    1
    87    87    84    1
    88    63    64    1
    89    83    84    1
    90    86    85    2
    91    64    65    1
    92   130   131    1
    93    25    26    1
    94    76    82    1
    95    76    70   am
    96    88    89    1
    97    71    70    2
    98    84    85    1
    99    74    72    1
   100   134   133    1
   101    21    19   am
   102   131   132    1
   103   143   141   ar
   104    70    69    1
   105   144   142   ar
   106    26    27    1
   107   132   133    2
   108   133   135    1
   109    20    19    2
   110    15    14   ar
   111    19    18    1
   112    11    10    2
   113    28    27   ar
   114    65    66    2
   115    27    29   ar
   116    72    69    1
   117    72    73    1
   118    14    16   ar
   119    14    13    1
   120   141   142   ar
   121   141   140    1
   122    69    68    1
   123    10     9    1
   124    10    17   am
   125    18    17    1
   126    12    13    1
   127    12     9    1
   128     9     8    1
   129    73    75    1
   130   140   137    1
   131   137   138    1
   132   137   136    1
   133     7     5    1
   134   138   139    2
   135     4     3    2
   136     5     6    1
   137     5     2    1
   138     3     2    1
   139     2     1    1
