@<TRIPOS>MOLECULE
tmp/5zobD00.pdb
 193 189 0 0 0
SMALL
GASTEIGER

@<TRIPOS>ATOM
      1  N         10.3550    3.7470   68.7060 N.3    16  LEU16      -0.1245
      2  CA         9.1590    4.0430   67.9280 C.3    16  LEU16       0.1561
      3  C          8.8150    2.8770   67.0090 C.2    16  LEU16       0.2260
      4  O          9.5170    1.8680   66.9870 O.2    16  LEU16      -0.2867
      5  CB         9.3480    5.3300   67.1200 C.3    16  LEU16       0.0270
      6  CG         9.3250    6.6180   67.9490 C.3    16  LEU16       0.0019
      7  CD1       10.6860    7.3030   67.9660 C.3    16  LEU16       0.0001
      8  CD2        8.2460    7.5640   67.4410 C.3    16  LEU16       0.0001
      9  N         13.7880    4.4350   63.5170 N.3    20  THR20      -0.1218
     10  CA        13.9730    5.8660   63.2890 C.3    20  THR20       0.1862
     11  C         15.4190    6.3230   63.5030 C.2    20  THR20       0.2287
     12  O         16.0790    5.9190   64.4660 O.2    20  THR20      -0.2866
     13  CB        13.0500    6.7020   64.2070 C.3    20  THR20       0.1770
     14  OG1       11.7160    6.1790   64.1580 O.3    20  THR20      -0.2211
     15  CG2       13.0330    8.1570   63.7620 C.3    20  THR20       0.0375
     16  N         17.6120    9.0450   64.7680 N.3    22  VAL22      -0.1245
     17  CA        17.5140   10.1830   65.6750 C.3    22  VAL22       0.1561
     18  C         18.8220   10.9580   65.7920 C.2    22  VAL22       0.2260
     19  O         18.9940   11.7540   66.7150 O.2    22  VAL22      -0.2867
     20  CB        17.0880    9.7400   67.0880 C.3    22  VAL22       0.0252
     21  CG1       15.6650    9.2110   67.0750 C.3    22  VAL22       0.0019
     22  CG2       18.0510    8.6950   67.6290 C.3    22  VAL22       0.0019
     23  N         24.6740   16.1240   72.2100 N.3    36  TRP36      -0.1227
     24  CA        24.0850   15.6430   73.4530 C.3    36  TRP36       0.1737
     25  C         22.5920   15.3800   73.2900 C.2    36  TRP36       0.2595
     26  O         22.0910   14.3500   73.7330 O.2    36  TRP36      -0.2718
     27  CB        24.3180   16.6400   74.5910 C.3    36  TRP36       0.0564
     28  CG        23.7550   16.1780   75.9070 C.ar   36  TRP36       0.0003
     29  CD1       22.4700   16.3280   76.3470 C.ar   36  TRP36       0.0946
     30  CD2       24.4570   15.4910   76.9500 C.ar   36  TRP36       0.0152
     31  NE1       22.3300   15.7770   77.5950 N.ar   36  TRP36      -0.2442
     32  CE2       23.5350   15.2570   77.9890 C.ar   36  TRP36       0.0810
     33  CE3       25.7750   15.0510   77.1070 C.ar   36  TRP36       0.0012
     34  CZ2       23.8880   14.6020   79.1680 C.ar   36  TRP36       0.0191
     35  CZ3       26.1220   14.4020   78.2780 C.ar   36  TRP36       0.0001
     36  CH2       25.1840   14.1840   79.2930 C.ar   36  TRP36       0.0015
     37  N         21.8870   16.3020   72.6400 N.am   37  HIS37      -0.1961
     38  CA        20.4350   16.2030   72.5130 C.3    37  HIS37       0.1787
     39  C         20.0020   15.0010   71.6730 C.2    37  HIS37       0.2620
     40  O         18.8200   14.6590   71.6310 O.2    37  HIS37      -0.2715
     41  CB        19.8600   17.4930   71.9190 C.3    37  HIS37       0.0785
     42  CG        20.2300   17.7210   70.4870 C.ar   37  HIS37       0.0821
     43  ND1       21.3060   18.4980   70.1100 N.ar   37  HIS37      -0.2267
     44  CD2       19.6640   17.2820   69.3390 C.ar   37  HIS37       0.1154
     45  CE1       21.3860   18.5230   68.7930 C.ar   37  HIS37       0.1986
     46  NE2       20.4020   17.7930   68.2990 N.ar   37  HIS37      -0.2212
     47  N         20.9600   14.3630   71.0100 N.am   38  VAL38      -0.1977
     48  CA        20.6800   13.1610   70.2350 C.3    38  VAL38       0.1596
     49  C         20.4780   11.9570   71.1490 C.2    38  VAL38       0.2287
     50  O         19.4550   11.2760   71.0790 O.2    38  VAL38      -0.2864
     51  CB        21.8140   12.8510   69.2400 C.3    38  VAL38       0.0276
     52  CG1       21.5890   11.4970   68.5820 C.3    38  VAL38       0.0022
     53  CG2       21.9180   13.9500   68.1940 C.3    38  VAL38       0.0022
     54  N         21.0830   12.1530   74.6420 N.3    40  LYS40      -0.1245
     55  CA        20.8170   12.6330   76.0000 C.3    40  LYS40       0.1561
     56  C         21.7610   11.9950   77.0160 C.2    40  LYS40       0.2260
     57  O         21.4100   11.8260   78.1840 O.2    40  LYS40      -0.2867
     58  CB        19.3590   12.3770   76.4000 C.3    40  LYS40       0.0271
     59  CG        18.3250   13.1690   75.6040 C.3    40  LYS40       0.0035
     60  CD        18.0230   14.5320   76.2280 C.3    40  LYS40       0.0206
     61  CE        18.9870   15.6110   75.7530 C.3    40  LYS40       0.1093
     62  NZ        18.6270   16.9620   76.2670 N.3    40  LYS40      -0.1314
     63  N         25.8630   19.6050   78.4510 N.3    58  VAL58      -0.1231
     64  CA        24.6250   20.0200   77.8030 C.3    58  VAL58       0.1692
     65  C         24.7680   21.3760   77.1180 C.2    58  VAL58       0.2591
     66  O         24.2750   21.5730   76.0060 O.2    58  VAL58      -0.2718
     67  CB        23.4620   20.0690   78.8180 C.3    58  VAL58       0.0266
     68  CG1       22.2870   20.8630   78.2710 C.3    58  VAL58       0.0020
     69  CG2       23.0320   18.6610   79.1940 C.3    58  VAL58       0.0020
     70  N         25.4580   22.3010   77.7760 N.am   59  LYS59      -0.1980
     71  CA        25.6400   23.6400   77.2270 C.3    59  LYS59       0.1596
     72  C         26.4390   23.5980   75.9260 C.2    59  LYS59       0.2287
     73  O         26.1540   24.3480   74.9930 O.2    59  LYS59      -0.2864
     74  CB        26.3260   24.5520   78.2430 C.3    59  LYS59       0.0298
     75  CG        26.1980   26.0280   77.9140 C.3    59  LYS59       0.0038
     76  CD        26.6670   26.8900   79.0690 C.3    59  LYS59       0.0206
     77  CE        26.3940   28.3590   78.8010 C.3    59  LYS59       0.1093
     78  NZ        26.8010   29.2100   79.9500 N.3    59  LYS59      -0.1314
     79  N         26.3750   20.9360   74.1870 N.3    61  ASP61      -0.1239
     80  CA        25.5370   20.0250   73.4070 C.3    61  ASP61       0.1674
     81  C         26.3920   18.9840   72.6880 C.2    61  ASP61       0.2266
     82  O         26.1930   18.7030   71.5070 O.2    61  ASP61      -0.2867
     83  CB        24.6740   20.8000   72.4060 C.3    61  ASP61       0.1410
     84  CG        23.5400   19.9640   71.8400 C.2    61  ASP61       0.3668
     85  OD1       23.0100   19.1010   72.5720 O.co2  61  ASP61      -0.2456
     86  OD2       23.1800   20.1690   70.6630 O.co2  61  ASP61      -0.2456
     87  N         19.1330   23.5310   56.1000 N.3   115  ASP115     -0.1225
     88  CA        18.0420   22.8820   56.8200 C.3   115  ASP115      0.1805
     89  C         17.9190   21.4130   56.4190 C.2   115  ASP115      0.2598
     90  O         17.9770   21.0730   55.2380 O.2   115  ASP115     -0.2718
     91  CB        16.7220   23.6160   56.5630 C.3   115  ASP115      0.1424
     92  CG        15.6570   23.2890   57.5970 C.2   115  ASP115      0.3668
     93  OD1       15.5390   22.1100   57.9920 O.co2 115  ASP115     -0.2456
     94  OD2       14.9360   24.2180   58.0190 O.co2 115  ASP115     -0.2456
     95  N         17.7430   20.5510   57.4150 N.am  116  TYR116     -0.1963
     96  CA        17.6510   19.1140   57.1890 C.3   116  TYR116      0.1756
     97  C         16.6350   18.4840   58.1410 C.2   116  TYR116      0.2461
     98  O         16.3900   19.0160   59.2210 O.2   116  TYR116     -0.2730
     99  CB        19.0300   18.4670   57.3460 C.3   116  TYR116      0.0574
    100  CG        19.8160   18.4420   56.0550 C.ar  116  TYR116     -0.0198
    101  CD1       20.6600   19.4890   55.7080 C.ar  116  TYR116     -0.0009
    102  CD2       19.6970   17.3770   55.1740 C.ar  116  TYR116     -0.0009
    103  CE1       21.3710   19.4690   54.5220 C.ar  116  TYR116      0.0417
    104  CE2       20.4020   17.3470   53.9890 C.ar  116  TYR116      0.0417
    105  CZ        21.2370   18.3940   53.6680 C.ar  116  TYR116      0.1957
    106  OH        21.9360   18.3600   52.4860 O.3   116  TYR116     -0.2866
    107  N         16.0310   17.3510   57.7360 N.am  117  PRO117     -0.2716
    108  CA        14.9810   16.7080   58.5380 C.3   117  PRO117      0.1536
    109  C         15.4290   16.3300   59.9490 C.2   117  PRO117      0.2598
    110  O         16.6260   16.1990   60.2110 O.2   117  PRO117     -0.2715
    111  CB        14.6390   15.4500   57.7270 C.3   117  PRO117      0.0310
    112  CG        15.8100   15.2330   56.8260 C.3   117  PRO117      0.0237
    113  CD        16.2960   16.6040   56.4940 C.3   117  PRO117      0.0939
    114  N         14.4610   16.1610   60.8450 N.am  118  ALA118     -0.1964
    115  CA        14.7370   15.8290   62.2370 C.3   118  ALA118      0.1728
    116  C         15.4460   14.4860   62.3630 C.2   118  ALA118      0.2617
    117  O         14.8770   13.4400   62.0510 O.2   118  ALA118     -0.2715
    118  CB        13.4470   15.8220   63.0430 C.3   118  ALA118      0.0334
    119  N         16.6920   14.5230   62.8240 N.am  119  GLY119     -0.1940
    120  CA        17.4820   13.3170   62.9870 C.3   119  GLY119      0.2014
    121  C         18.7830   13.3850   62.2140 C.2   119  GLY119      0.2640
    122  O         19.4400   12.3680   61.9910 O.2   119  GLY119     -0.2714
    123  N         19.1560   14.5940   61.8050 N.am  120  THR120     -0.1936
    124  CA        20.3740   14.8030   61.0330 C.3   120  THR120      0.2028
    125  C         21.4830   15.3460   61.9320 C.2   120  THR120      0.2642
    126  O         22.6210   15.5300   61.4960 O.2   120  THR120     -0.2714
    127  CB        20.1310   15.7710   59.8530 C.3   120  THR120      0.1808
    128  OG1       18.8210   15.5520   59.3150 O.3   120  THR120     -0.2208
    129  CG2       21.1630   15.5600   58.7540 C.3   120  THR120      0.0379
    130  N         21.1430   15.5920   63.1950 N.am  121  SER121     -0.1949
    131  CA        22.1000   16.1200   64.1620 C.3   121  SER121      0.1924
    132  C         23.2980   15.1960   64.3410 C.2   121  SER121      0.2314
    133  O         23.1630   13.9740   64.3060 O.2   121  SER121     -0.2863
    134  CB        21.4230   16.3580   65.5120 C.3   121  SER121      0.2116
    135  OG        20.6760   17.5590   65.5020 O.3   121  SER121     -0.2180
    136  N         26.9200   19.2700   63.0460 N.3   136  TYR136     -0.1227
    137  CA        25.6710   19.9110   62.6530 C.3   136  TYR136      0.1736
    138  C         24.5400   19.4470   63.5640 C.2   136  TYR136      0.2596
    139  O         24.4370   18.2600   63.8650 O.2   136  TYR136     -0.2718
    140  CB        25.3640   19.5880   61.1840 C.3   136  TYR136      0.0548
    141  CG        23.9790   19.9680   60.7010 C.ar  136  TYR136     -0.0200
    142  CD1       22.9130   19.0830   60.8130 C.ar  136  TYR136     -0.0009
    143  CD2       23.7470   21.1960   60.0980 C.ar  136  TYR136     -0.0009
    144  CE1       21.6510   19.4210   60.3620 C.ar  136  TYR136      0.0417
    145  CE2       22.4880   21.5440   59.6440 C.ar  136  TYR136      0.0417
    146  CZ        21.4440   20.6520   59.7780 C.ar  136  TYR136      0.1957
    147  OH        20.1890   20.9910   59.3270 O.3   136  TYR136     -0.2866
    148  N         23.6970   20.3770   64.0090 N.am  137  GLY137     -0.1942
    149  CA        22.5600   20.0080   64.8330 C.3   137  GLY137      0.2014
    150  C         22.0200   21.0720   65.7730 C.2   137  GLY137      0.2639
    151  O         20.8100   21.1550   65.9870 O.2   137  GLY137     -0.2714
    152  N         22.9070   21.8800   66.3440 N.am  138  ASN138     -0.1958
    153  CA        22.4930   22.8940   67.3090 C.3   138  ASN138      0.1819
    154  C         22.6580   24.3080   66.7650 C.2   138  ASN138      0.2622
    155  O         23.7740   24.7570   66.5110 O.2   138  ASN138     -0.2715
    156  CB        23.2850   22.7440   68.6080 C.3   138  ASN138      0.1195
    157  CG        22.6950   23.5490   69.7480 C.2   138  ASN138      0.2630
    158  OD1       21.4950   23.8250   69.7730 O.2   138  ASN138     -0.2716
    159  ND2       23.5370   23.9290   70.7020 N.am  138  ASN138     -0.0877
    160  N         21.5430   25.0080   66.5900 N.am  139  GLY139     -0.1940
    161  CA        21.5830   26.3620   66.0710 C.3   139  GLY139      0.2014
    162  C         20.2450   27.0670   66.1510 C.2   139  GLY139      0.2639
    163  O         19.4880   26.8780   67.1040 O.2   139  GLY139     -0.2714
    164  N         19.9550   27.8840   65.1440 N.am  140  VAL140     -0.1963
    165  CA        18.7140   28.6470   65.1140 C.3   140  VAL140      0.1727
    166  C         18.0470   28.6360   63.7480 C.2   140  VAL140      0.2616
    167  O         18.6920   28.4240   62.7210 O.2   140  VAL140     -0.2715
    168  CB        18.9410   30.1190   65.5080 C.3   140  VAL140      0.0290
    169  CG1       19.2150   30.2450   66.9950 C.3   140  VAL140      0.0023
    170  CG2       20.0700   30.7210   64.6840 C.3   140  VAL140      0.0023
    171  N         16.7400   28.8680   63.7550 N.am  141  VAL141     -0.1977
    172  CA        16.0100   29.1660   62.5330 C.3   141  VAL141      0.1596
    173  C         15.7450   30.6710   62.4740 C.2   141  VAL141      0.2287
    174  O         15.3020   31.2730   63.4540 O.2   141  VAL141     -0.2864
    175  CB        14.6810   28.3860   62.4370 C.3   141  VAL141      0.0276
    176  CG1       14.9420   26.9240   62.1070 C.3   141  VAL141      0.0022
    177  CG2       13.8770   28.5050   63.7250 C.3   141  VAL141      0.0022
    178  N         12.6070   30.8700   58.1130 N.3   145  GLY145     -0.1225
    179  CA        12.3640   29.5290   58.6170 C.3   145  GLY145      0.1811
    180  C         13.4560   28.5300   58.2720 C.2   145  GLY145      0.2280
    181  O         13.4140   27.3750   58.7060 O.2   145  GLY145     -0.2866
    182  N         17.0920   26.7870   58.4560 N.3   147  TYR147     -0.1241
    183  CA        17.9090   26.4670   59.6290 C.3   147  TYR147      0.1605
    184  C         19.3650   26.9040   59.4880 C.2   147  TYR147      0.2264
    185  O         20.0030   26.6570   58.4650 O.2   147  TYR147     -0.2867
    186  CB        17.8410   24.9610   59.9200 C.3   147  TYR147      0.0534
    187  CG        18.4200   24.5490   61.2580 C.ar  147  TYR147     -0.0201
    188  CD1       17.9300   25.0780   62.4440 C.ar  147  TYR147     -0.0009
    189  CD2       19.4360   23.6060   61.3350 C.ar  147  TYR147     -0.0009
    190  CE1       18.4470   24.6930   63.6710 C.ar  147  TYR147      0.0417
    191  CE2       19.9580   23.2120   62.5550 C.ar  147  TYR147      0.0417
    192  CZ        19.4620   23.7600   63.7200 C.ar  147  TYR147      0.1957
    193  OH        19.9790   23.3720   64.9350 O.3   147  TYR147     -0.2866
@<TRIPOS>BOND
     1   106   105    1
     2   105   104   ar
     3   105   103   ar
     4   104   102   ar
     5   103   101   ar
     6   102   100   ar
     7    90    89    2
     8   101   100   ar
     9   100    99    1
    10    87    88    1
    11    89    88    1
    12    89    95   am
    13   113   112    1
    14   113   107    1
    15    91    88    1
    16    91    92    1
    17   112   111    1
    18    96    99    1
    19    96    95    1
    20    96    97    1
    21    92    93   ar
    22    92    94   ar
    23   111   108    1
    24   107    97   am
    25   107   108    1
    26   178   179    1
    27    97    98    2
    28   180   179    1
    29   180   181    2
    30   182   183    1
    31   185   184    2
    32   108   109    1
    33   129   127    1
    34   128   127    1
    35   147   146    1
    36   184   183    1
    37   183   186    1
    38   145   146   ar
    39   145   143   ar
    40   146   144   ar
    41   127   124    1
    42   186   187    1
    43   109   110    2
    44   109   114   am
    45   143   141   ar
    46   144   142   ar
    47   141   142   ar
    48   141   140    1
    49   114   115    1
    50   124   123    1
    51   124   125    1
    52   140   137    1
    53   187   189   ar
    54   187   188   ar
    55   189   191   ar
    56   126   125    2
    57   123   121   am
    58   125   130   am
    59   122   121    2
    60   117   116    2
    61   176   175    1
    62   121   120    1
    63   115   116    1
    64   115   118    1
    65   116   119   am
    66   175   172    1
    67   175   177    1
    68   188   190   ar
    69   173   172    1
    70   173   174    2
    71   172   171    1
    72   191   192   ar
    73   137   136    1
    74   137   138    1
    75   167   166    2
    76   119   120    1
    77   130   131    1
    78    10    11    1
    79    10     9    1
    80    10    13    1
    81    11    12    2
    82   138   139    2
    83   138   148   am
    84   190   192   ar
    85   192   193    1
    86   166   171   am
    87   166   165    1
    88    15    13    1
    89   148   149    1
    90    14    13    1
    91   131   132    1
    92   131   134    1
    93   133   132    2
    94   170   168    1
    95    16    17    1
    96   149   150    1
    97   165   164    1
    98   165   168    1
    99   164   162   am
   100   135   134    1
   101   168   169    1
   102    17    18    1
   103    17    20    1
   104   150   151    2
   105   150   152   am
   106    18    19    2
   107   161   162    1
   108   161   160    1
   109   162   163    2
   110   152   153    1
   111   155   154    2
   112   160   154   am
   113   154   153    1
   114     4     3    2
   115     3     2    1
   116    21    20    1
   117    20    22    1
   118     5     2    1
   119     5     6    1
   120   153   156    1
   121     8     6    1
   122     2     1    1
   123     6     7    1
   124    53    51    1
   125    46    45   ar
   126    46    44   ar
   127    52    51    1
   128   156   157    1
   129    45    43   ar
   130    51    48    1
   131    44    42   ar
   132   157   158    2
   133   157   159   am
   134    43    42   ar
   135    48    47    1
   136    48    49    1
   137    42    41    1
   138    86    84   ar
   139    47    39   am
   140    50    49    2
   141    82    81    2
   142    40    39    2
   143    39    38    1
   144    84    83    1
   145    84    85   ar
   146    41    38    1
   147    23    24    1
   148    83    80    1
   149    38    37    1
   150    37    25   am
   151    81    80    1
   152    25    24    1
   153    25    26    2
   154    80    79    1
   155    24    27    1
   156    27    28    1
   157    54    55    1
   158    73    72    2
   159    59    60    1
   160    59    58    1
   161    61    60    1
   162    61    62    1
   163    28    29   ar
   164    28    30   ar
   165    72    71    1
   166    55    58    1
   167    55    56    1
   168    66    65    2
   169    29    31   ar
   170    30    33   ar
   171    30    32   ar
   172    56    57    2
   173    33    35   ar
   174    65    70   am
   175    65    64    1
   176    71    70    1
   177    71    74    1
   178    31    32   ar
   179    64    63    1
   180    64    67    1
   181    75    74    1
   182    75    76    1
   183    32    34   ar
   184    68    67    1
   185    35    36   ar
   186    77    76    1
   187    77    78    1
   188    67    69    1
   189    34    36   ar
