@<TRIPOS>MOLECULE
tmp/5zovA00.pdb
 122 118 0 0 0
SMALL
GASTEIGER

@<TRIPOS>ATOM
      1  N         38.6960    2.0220  -24.8950 N.3    50  PRO50      -0.2102
      2  CA        37.4010    1.3190  -24.8890 C.3    50  PRO50       0.1504
      3  C         36.6110    1.5020  -23.6050 C.2    50  PRO50       0.2575
      4  O         35.3890    1.6970  -23.6580 O.2    50  PRO50      -0.2718
      5  CB        37.8030   -0.1460  -25.1090 C.3    50  PRO50       0.0282
      6  CG        39.2090   -0.2310  -24.6110 C.3    50  PRO50       0.0208
      7  CD        39.8370    1.0910  -24.9410 C.3    50  PRO50       0.0893
      8  N         37.2700    1.4430  -22.4470 N.am   51  TYR51      -0.1977
      9  CA        36.5420    1.5450  -21.1860 C.3    51  TYR51       0.1639
     10  C         36.0240    2.9550  -20.9370 C.2    51  TYR51       0.2290
     11  O         34.9490    3.1210  -20.3490 O.2    51  TYR51      -0.2864
     12  CB        37.4290    1.0880  -20.0310 C.3    51  TYR51       0.0560
     13  CG        37.6210   -0.4080  -19.9880 C.ar   51  TYR51      -0.0198
     14  CD1       36.7180   -1.2210  -19.3170 C.ar   51  TYR51      -0.0009
     15  CD2       38.6990   -1.0080  -20.6230 C.ar   51  TYR51      -0.0009
     16  CE1       36.8840   -2.5880  -19.2750 C.ar   51  TYR51       0.0417
     17  CE2       38.8750   -2.3780  -20.5860 C.ar   51  TYR51       0.0417
     18  CZ        37.9640   -3.1620  -19.9100 C.ar   51  TYR51       0.1957
     19  OH        38.1300   -4.5250  -19.8680 O.3    51  TYR51      -0.2866
     20  N         32.6960   -9.0130  -22.6780 N.3    99  HIS99      -0.1226
     21  CA        32.9230   -7.5850  -22.4740 C.3    99  HIS99       0.1752
     22  C         33.1620   -6.8620  -23.7930 C.2    99  HIS99       0.2595
     23  O         32.7850   -5.6930  -23.9350 O.2    99  HIS99      -0.2718
     24  CB        34.0820   -7.3600  -21.4950 C.3    99  HIS99       0.0759
     25  CG        35.4440   -7.5690  -22.0840 C.ar   99  HIS99       0.0818
     26  ND1       35.9680   -8.8200  -22.3350 N.ar   99  HIS99      -0.2268
     27  CD2       36.4050   -6.6830  -22.4390 C.ar   99  HIS99       0.1154
     28  CE1       37.1850   -8.6930  -22.8360 C.ar   99  HIS99       0.1986
     29  NE2       37.4740   -7.4070  -22.9090 N.ar   99  HIS99      -0.2212
     30  N         33.7650   -7.5400  -24.7730 N.am  100  ILE100     -0.1980
     31  CA        33.8560   -6.9770  -26.1160 C.3   100  ILE100      0.1595
     32  C         32.4640   -6.8330  -26.7190 C.2   100  ILE100      0.2287
     33  O         32.1620   -5.8430  -27.3970 O.2   100  ILE100     -0.2864
     34  CB        34.7740   -7.8450  -26.9970 C.3   100  ILE100      0.0276
     35  CG1       36.2070   -7.8060  -26.4660 C.3   100  ILE100      0.0022
     36  CG2       34.7330   -7.3850  -28.4490 C.3   100  ILE100      0.0022
     37  CD1       36.8200   -6.4250  -26.4840 C.3   100  ILE100      0.0001
     38  N         30.8520   -3.8020  -25.0830 N.3   103  GLN103     -0.1245
     39  CA        31.4580   -2.5570  -25.5490 C.3   103  GLN103      0.1566
     40  C         31.0020   -2.2190  -26.9650 C.2   103  GLN103      0.2260
     41  O         30.5830   -1.0870  -27.2420 O.2   103  GLN103     -0.2867
     42  CB        32.9820   -2.6590  -25.4890 C.3   103  GLN103      0.0367
     43  CG        33.5670   -2.6660  -24.0840 C.3   103  GLN103      0.0905
     44  CD        35.0490   -2.9960  -24.0760 C.2   103  GLN103      0.2608
     45  OE1       35.5170   -3.8200  -24.8590 O.2   103  GLN103     -0.2717
     46  NE2       35.7950   -2.3460  -23.1940 N.am  103  GLN103     -0.0878
     47  N         37.7960   -9.9810  -31.4840 N.3   158  HIS158     -0.1226
     48  CA        38.1950   -8.8070  -30.7210 C.3   158  HIS158      0.1752
     49  C         37.7480   -7.5210  -31.4060 C.2   158  HIS158      0.2595
     50  O         36.5520   -7.3270  -31.6440 O.2   158  HIS158     -0.2718
     51  CB        39.7080   -8.8090  -30.5060 C.3   158  HIS158      0.0759
     52  CG        40.1260   -8.2030  -29.2060 C.ar  158  HIS158      0.0818
     53  ND1       40.8310   -7.0210  -29.1270 N.ar  158  HIS158     -0.2268
     54  CD2       39.9230   -8.6070  -27.9300 C.ar  158  HIS158      0.1154
     55  CE1       41.0520   -6.7280  -27.8580 C.ar  158  HIS158      0.1986
     56  NE2       40.5100   -7.6740  -27.1120 N.ar  158  HIS158     -0.2212
     57  N         38.6950   -6.6320  -31.7250 N.am  159  GLN159     -0.1979
     58  CA        38.3570   -5.3000  -32.2140 C.3   159  GLN159      0.1601
     59  C         39.1220   -4.8980  -33.4710 C.2   159  GLN159      0.2287
     60  O         39.1240   -3.7120  -33.8210 O.2   159  GLN159     -0.2864
     61  CB        38.6080   -4.2520  -31.1240 C.3   159  GLN159      0.0394
     62  CG        38.2050   -4.6650  -29.7200 C.3   159  GLN159      0.0908
     63  CD        36.9060   -4.0290  -29.2740 C.2   159  GLN159      0.2608
     64  OE1       35.9140   -4.0370  -30.0030 O.2   159  GLN159     -0.2717
     65  NE2       36.9070   -3.4660  -28.0710 N.am  159  GLN159     -0.0878
     66  N         34.6560   -6.3880  -16.0370 N.3   227  ARG227     -0.1245
     67  CA        34.9510   -7.8160  -16.0820 C.3   227  ARG227      0.1563
     68  C         34.0390   -8.5930  -15.1430 C.2   227  ARG227      0.2260
     69  O         33.5230   -9.6580  -15.5040 O.2   227  ARG227     -0.2867
     70  CB        36.4120   -8.0760  -15.7370 C.3   227  ARG227      0.0307
     71  CG        37.4190   -7.3270  -16.5920 C.3   227  ARG227      0.0489
     72  CD        37.4160   -7.7790  -18.0430 C.3   227  ARG227      0.2205
     73  NE        38.7420   -8.2270  -18.4670 N.pl3 227  ARG227     -0.0865
     74  CZ        39.7230   -7.4190  -18.8630 C.cat 227  ARG227      0.5346
     75  NH1       40.8930   -7.9250  -19.2280 N.pl3 227  ARG227      0.1354
     76  NH2       39.5400   -6.1060  -18.8930 N.pl3 227  ARG227      0.1354
     77  N         39.9080  -14.0810  -27.3510 N.3   253  ASP253     -0.1225
     78  CA        40.6220  -12.8180  -27.2460 C.3   253  ASP253      0.1805
     79  C         41.8800  -12.8420  -28.1050 C.2   253  ASP253      0.2598
     80  O         42.4710  -13.8960  -28.3540 O.2   253  ASP253     -0.2718
     81  CB        40.9780  -12.5250  -25.7870 C.3   253  ASP253      0.1424
     82  CG        41.2850  -11.0560  -25.5420 C.2   253  ASP253      0.3668
     83  OD1       42.0340  -10.4560  -26.3430 O.co2 253  ASP253     -0.2456
     84  OD2       40.7700  -10.4960  -24.5500 O.co2 253  ASP253     -0.2456
     85  N         42.2830  -11.6550  -28.5640 N.am  254  CYS254     -0.1956
     86  CA        43.4130  -11.5660  -29.4830 C.3   254  CYS254      0.1843
     87  C         44.7240  -11.9080  -28.7870 C.2   254  CYS254      0.2625
     88  O         45.5960  -12.5550  -29.3800 O.2   254  CYS254     -0.2714
     89  CB        43.4760  -10.1700  -30.1080 C.3   254  CYS254      0.0997
     90  SG        43.6440   -8.7890  -28.9430 S.3   254  CYS254     -0.0797
     91  N         44.8730  -11.5020  -27.5230 N.am  255  ALA255     -0.1977
     92  CA        46.1230  -11.7280  -26.8060 C.3   255  ALA255      0.1597
     93  C         46.5120  -13.2000  -26.7600 C.2   255  ALA255      0.2287
     94  O         47.6920  -13.5120  -26.5670 O.2   255  ALA255     -0.2864
     95  CB        46.0210  -11.1700  -25.3870 C.3   255  ALA255      0.0319
     96  N         45.4010    0.6740  -24.1740 N.3   297  ILE297     -0.1245
     97  CA        44.7310   -0.5180  -24.6970 C.3   297  ILE297      0.1561
     98  C         44.6510   -0.5060  -26.2210 C.2   297  ILE297      0.2260
     99  O         45.0990   -1.4820  -26.8480 O.2   297  ILE297     -0.2867
    100  CB        43.3530   -0.6850  -24.0300 C.3   297  ILE297      0.0252
    101  CG1       43.3610   -0.0860  -22.6230 C.3   297  ILE297      0.0019
    102  CG2       42.9550   -2.1510  -23.9690 C.3   297  ILE297      0.0019
    103  CD1       42.0260   -0.1780  -21.9150 C.3   297  ILE297      0.0001
    104  N         47.1810   -3.2430  -27.9630 N.3   301  PHE301     -0.1241
    105  CA        46.4970   -4.4700  -28.3550 C.3   301  PHE301      0.1605
    106  C         46.1330   -4.4700  -29.8360 C.2   301  PHE301      0.2264
    107  O         46.3620   -5.4650  -30.5340 O.2   301  PHE301     -0.2867
    108  CB        45.2680   -4.6830  -27.4770 C.3   301  PHE301      0.0534
    109  CG        45.6070   -5.0290  -26.0570 C.ar  301  PHE301     -0.0203
    110  CD1       45.9220   -6.3300  -25.7050 C.ar  301  PHE301     -0.0042
    111  CD2       45.6380   -4.0500  -25.0800 C.ar  301  PHE301     -0.0042
    112  CE1       46.2420   -6.6510  -24.4000 C.ar  301  PHE301     -0.0003
    113  CE2       45.9560   -4.3640  -23.7730 C.ar  301  PHE301     -0.0003
    114  CZ        46.2580   -5.6670  -23.4330 C.ar  301  PHE301     -0.0000
    115  N         39.8880    1.4940  -31.3260 N.3   354  MET354     -0.1245
    116  CA        40.5920    0.3320  -31.8450 C.3   354  MET354      0.1570
    117  C         40.7440    0.4720  -33.3600 C.2   354  MET354      0.2261
    118  O         40.4080    1.4960  -33.9610 O.2   354  MET354     -0.2867
    119  CB        39.8570   -0.9470  -31.4600 C.3   354  MET354      0.0387
    120  CG        39.5750   -1.0760  -29.9720 C.3   354  MET354      0.0595
    121  SD        41.0530   -1.2970  -28.9630 S.3   354  MET354     -0.1393
    122  CE        41.5800   -2.9370  -29.4560 C.3   354  MET354      0.0692
@<TRIPOS>BOND
     1   118   117    2
     2    60    59    2
     3    59    58    1
     4   117   116    1
     5    58    57    1
     6    58    61    1
     7   116   119    1
     8   116   115    1
     9    57    49   am
    10    50    49    2
    11    47    48    1
    12   119   120    1
    13    49    48    1
    14    61    62    1
    15    48    51    1
    16   107   106    2
    17    51    52    1
    18    89    86    1
    19    89    90    1
    20    64    63    2
    21   120   121    1
    22   106   105    1
    23    62    63    1
    24    86    87    1
    25    86    85    1
    26   122   121    1
    27    88    87    2
    28    63    65   am
    29    52    53   ar
    30    52    54   ar
    31    53    55   ar
    32    87    91   am
    33    85    79   am
    34    36    34    1
    35   105   104    1
    36   105   108    1
    37    80    79    2
    38    79    78    1
    39    54    56   ar
    40    55    56   ar
    41    91    92    1
    42   108   109    1
    43    33    32    2
    44    77    78    1
    45    78    81    1
    46    41    40    2
    47    34    35    1
    48    34    31    1
    49    40    39    1
    50    99    98    2
    51    92    93    1
    52    92    95    1
    53    93    94    2
    54    32    31    1
    55    37    35    1
    56    83    82   ar
    57    98    97    1
    58    31    30    1
    59   109   110   ar
    60   109   111   ar
    61    81    82    1
    62   110   112   ar
    63    39    42    1
    64    39    38    1
    65    82    84   ar
    66    42    43    1
    67     5     2    1
    68     5     6    1
    69   111   113   ar
    70     7     1    1
    71     7     6    1
    72     1     2    1
    73     2     3    1
    74    45    44    2
    75    30    22   am
    76    97    96    1
    77    97   100    1
    78   112   114   ar
    79    43    44    1
    80    44    46   am
    81   100   102    1
    82   100   101    1
    83    23    22    2
    84    22    21    1
    85   113   114   ar
    86     4     3    2
    87     3     8   am
    88    29    28   ar
    89    29    27   ar
    90    28    26   ar
    91    20    21    1
    92   101   103    1
    93    21    24    1
    94     8     9    1
    95    27    25   ar
    96    26    25   ar
    97    25    24    1
    98     9    10    1
    99     9    12    1
   100    10    11    2
   101    15    17   ar
   102    15    13   ar
   103    17    18   ar
   104    12    13    1
   105    13    14   ar
   106    18    19    1
   107    18    16   ar
   108    14    16   ar
   109    75    74    1
   110    76    74    1
   111    74    73    2
   112    73    72    1
   113    72    71    1
   114    71    70    1
   115    67    66    1
   116    67    70    1
   117    67    68    1
   118    69    68    2
