@<TRIPOS>MOLECULE
tmp/5zppB00.pdb
 108 107 0 0 0
SMALL
GASTEIGER

@<TRIPOS>ATOM
      1  N        154.3360   -6.0880   33.7510 N.3    97  PHE97      -0.1241
      2  CA       153.1100   -6.1000   34.5510 C.3    97  PHE97       0.1605
      3  C        151.8710   -5.9450   33.6740 C.2    97  PHE97       0.2264
      4  O        150.8650   -6.6340   33.8820 O.2    97  PHE97      -0.2867
      5  CB       153.1320   -4.9780   35.5870 C.3    97  PHE97       0.0534
      6  CG       153.8250   -5.3280   36.8760 C.ar   97  PHE97      -0.0203
      7  CD1      154.9990   -6.0590   36.8780 C.ar   97  PHE97      -0.0042
      8  CD2      153.3020   -4.9030   38.0890 C.ar   97  PHE97      -0.0042
      9  CE1      155.6440   -6.3710   38.0680 C.ar   97  PHE97      -0.0003
     10  CE2      153.9370   -5.2130   39.2870 C.ar   97  PHE97      -0.0003
     11  CZ       155.1110   -5.9490   39.2740 C.ar   97  PHE97      -0.0000
     12  N        146.0690   -9.5010   37.4200 N.3   127  ALA127     -0.1231
     13  CA       147.2830   -9.4440   38.2340 C.3   127  ALA127      0.1679
     14  C        148.3930  -10.2640   37.5870 C.2   127  ALA127      0.2434
     15  O        148.1640  -11.4230   37.2210 O.2   127  ALA127     -0.2733
     16  CB       147.0060   -9.9790   39.6320 C.3   127  ALA127      0.0304
     17  N        149.6160   -9.7150   37.4620 N.am  128  PRO128     -0.2718
     18  CA       150.7170  -10.4670   36.8420 C.3   128  PRO128      0.1535
     19  C        151.5020  -11.2810   37.8640 C.2   128  PRO128      0.2598
     20  O        152.3730  -10.7590   38.5670 O.2   128  PRO128     -0.2715
     21  CB       151.5690   -9.3550   36.2230 C.3   128  PRO128      0.0310
     22  CG       151.3940   -8.1960   37.1910 C.3   128  PRO128      0.0237
     23  CD       150.0000   -8.3260   37.7760 C.3   128  PRO128      0.0939
     24  N        151.1960  -12.5660   37.9770 N.am  129  LEU129     -0.1978
     25  CA       151.6900  -13.3810   39.0790 C.3   129  LEU129      0.1596
     26  C        152.7920  -14.3160   38.6030 C.2   129  LEU129      0.2287
     27  O        152.7300  -14.8470   37.4890 O.2   129  LEU129     -0.2864
     28  CB       150.5460  -14.1770   39.6960 C.3   129  LEU129      0.0297
     29  CG       149.3920  -13.2350   40.0600 C.3   129  LEU129      0.0022
     30  CD1      148.1560  -13.9970   40.5110 C.3   129  LEU129      0.0001
     31  CD2      149.8260  -12.2480   41.1100 C.3   129  LEU129      0.0001
     32  N        140.2920   -5.4380   44.0930 N.3   160  TRP160     -0.1241
     33  CA       140.4360   -6.5770   44.9970 C.3   160  TRP160      0.1605
     34  C        139.1050   -7.0160   45.5930 C.2   160  TRP160      0.2264
     35  O        138.9760   -8.1710   46.0120 O.2   160  TRP160     -0.2867
     36  CB       141.4230   -6.2200   46.1310 C.3   160  TRP160      0.0550
     37  CG       142.6530   -5.5910   45.5670 C.ar  160  TRP160      0.0003
     38  CD1      142.9820   -4.2630   45.5850 C.ar  160  TRP160      0.0946
     39  CD2      143.6740   -6.2490   44.8180 C.ar  160  TRP160      0.0152
     40  NE1      144.1590   -4.0620   44.9120 N.ar  160  TRP160     -0.2442
     41  CE2      144.6080   -5.2670   44.4350 C.ar  160  TRP160      0.0810
     42  CE3      143.8930   -7.5790   44.4350 C.ar  160  TRP160      0.0012
     43  CZ2      145.7540   -5.5710   43.7010 C.ar  160  TRP160      0.0191
     44  CZ3      145.0310   -7.8800   43.6960 C.ar  160  TRP160      0.0001
     45  CH2      145.9420   -6.8780   43.3320 C.ar  160  TRP160      0.0015
     46  N        154.5190  -16.1680   45.7190 N.3   288  TYR288     -0.1241
     47  CA       155.3440  -15.0790   45.2050 C.3   288  TYR288      0.1605
     48  C        156.5320  -14.8640   46.1220 C.2   288  TYR288      0.2264
     49  O        156.3560  -14.8070   47.3460 O.2   288  TYR288     -0.2867
     50  CB       154.5770  -13.7630   45.1080 C.3   288  TYR288      0.0534
     51  CG       153.1370  -13.8550   44.7030 C.ar  288  TYR288     -0.0201
     52  CD1      152.7670  -14.4100   43.4890 C.ar  288  TYR288     -0.0009
     53  CD2      152.1450  -13.3300   45.5200 C.ar  288  TYR288     -0.0009
     54  CE1      151.4430  -14.4720   43.1190 C.ar  288  TYR288      0.0417
     55  CE2      150.8280  -13.3820   45.1600 C.ar  288  TYR288      0.0417
     56  CZ       150.4800  -13.9510   43.9600 C.ar  288  TYR288      0.1957
     57  OH       149.1550  -13.9940   43.6050 O.3   288  TYR288     -0.2866
     58  N        158.5400  -11.9990   46.8310 N.3   290  ASP290     -0.1239
     59  CA       158.5790  -10.5690   46.5300 C.3   290  ASP290      0.1674
     60  C        160.0110  -10.0780   46.3770 C.2   290  ASP290      0.2266
     61  O        160.3010   -9.2470   45.5090 O.2   290  ASP290     -0.2867
     62  CB       157.8390   -9.7730   47.6050 C.3   290  ASP290      0.1410
     63  CG       156.3230   -9.8890   47.4550 C.2   290  ASP290      0.3668
     64  OD1      155.8330   -9.6660   46.3330 O.co2 290  ASP290     -0.2456
     65  OD2      155.6270  -10.2250   48.4370 O.co2 290  ASP290     -0.2456
     66  N        160.4010  -10.3420   42.3580 N.3   294  TYR294     -0.1241
     67  CA       159.9210   -9.0240   41.9600 C.3   294  TYR294      0.1605
     68  C        160.8790   -7.8830   42.2720 C.2   294  TYR294      0.2264
     69  O        160.7890   -6.8430   41.6030 O.2   294  TYR294     -0.2867
     70  CB       158.5610   -8.7240   42.6180 C.3   294  TYR294      0.0534
     71  CG       157.4140   -9.5340   42.0340 C.ar  294  TYR294     -0.0201
     72  CD1      157.0910  -10.7970   42.5420 C.ar  294  TYR294     -0.0009
     73  CD2      156.6670   -9.0470   40.9750 C.ar  294  TYR294     -0.0009
     74  CE1      156.0480  -11.5440   42.0090 C.ar  294  TYR294      0.0417
     75  CE2      155.6150   -9.7820   40.4330 C.ar  294  TYR294      0.0417
     76  CZ       155.3110  -11.0290   40.9550 C.ar  294  TYR294      0.1957
     77  OH       154.2670  -11.7560   40.4230 O.3   294  TYR294     -0.2866
     78  N        153.9920   -4.1240   46.4950 N.3   371  ILE371     -0.1231
     79  CA       154.0410   -5.0610   45.3600 C.3   371  ILE371      0.1692
     80  C        152.6120   -5.5270   45.1170 C.2   371  ILE371      0.2593
     81  O        152.1630   -6.4920   45.7410 O.2   371  ILE371     -0.2718
     82  CB       154.9400   -6.2810   45.6000 C.3   371  ILE371      0.0266
     83  CG1      156.2830   -5.9350   46.2280 C.3   371  ILE371      0.0019
     84  CG2      155.2730   -6.9020   44.2500 C.3   371  ILE371      0.0020
     85  CD1      157.0650   -4.9960   45.4630 C.3   371  ILE371      0.0001
     86  N        151.9030   -4.8700   44.2100 N.am  372  GLY372     -0.1942
     87  CA       150.5260   -5.2490   43.9640 C.3   372  GLY372      0.2014
     88  C        149.6080   -4.9230   45.1240 C.2   372  GLY372      0.2638
     89  O        149.4830   -3.7600   45.5100 O.2   372  GLY372     -0.2714
     90  N        148.9600   -5.9330   45.6940 N.am  373  ASN373     -0.1972
     91  CA       148.0270   -5.6810   46.7880 C.3   373  ASN373      0.1688
     92  C        148.7090   -5.4890   48.1550 C.2   373  ASN373      0.2292
     93  O        148.1440   -4.8280   49.0150 O.2   373  ASN373     -0.2864
     94  CB       147.0060   -6.8210   46.8760 C.3   373  ASN373      0.1181
     95  CG       147.6540   -8.1690   47.0130 C.2   373  ASN373      0.2629
     96  OD1      148.3850   -8.6030   46.1300 O.2   373  ASN373     -0.2716
     97  ND2      147.3930   -8.8440   48.1300 N.am  373  ASN373     -0.0877
     98  N        144.7860  -10.6690   49.4830 N.3   398  PHE398     -0.1241
     99  CA       144.4410  -11.2510   48.1940 C.3   398  PHE398      0.1605
    100  C        143.1340  -12.0360   48.3220 C.2   398  PHE398      0.2264
    101  O        142.9620  -12.8220   49.2560 O.2   398  PHE398     -0.2867
    102  CB       145.5740  -12.1570   47.7210 C.3   398  PHE398      0.0534
    103  CG       145.5540  -12.4210   46.2450 C.ar  398  PHE398     -0.0203
    104  CD1      144.7400  -13.4120   45.7170 C.ar  398  PHE398     -0.0042
    105  CD2      146.3550  -11.6830   45.3860 C.ar  398  PHE398     -0.0042
    106  CE1      144.7250  -13.6670   44.3420 C.ar  398  PHE398     -0.0003
    107  CE2      146.3350  -11.9280   44.0100 C.ar  398  PHE398     -0.0003
    108  CZ       145.5240  -12.9160   43.4960 C.ar  398  PHE398     -0.0000
@<TRIPOS>BOND
     1     3     4    2
     2     3     2    1
     3     1     2    1
     4     2     5    1
     5     5     6    1
     6    21    18    1
     7    21    22    1
     8    18    17    1
     9    18    19    1
    10     6     7   ar
    11     6     8   ar
    12     7     9   ar
    13    22    23    1
    14    15    14    2
    15    12    13    1
    16    17    14   am
    17    17    23    1
    18    27    26    2
    19    14    13    1
    20    19    24   am
    21    19    20    2
    22    24    25    1
    23     9    11   ar
    24     8    10   ar
    25    13    16    1
    26    26    25    1
    27    25    28    1
    28    11    10   ar
    29    28    29    1
    30    29    30    1
    31    29    31    1
    32    77    76    1
    33    75    76   ar
    34    75    73   ar
    35    76    74   ar
    36    73    71   ar
    37    69    68    2
    38    67    68    1
    39    67    66    1
    40    67    70    1
    41    74    72   ar
    42    71    72   ar
    43    71    70    1
    44    54    52   ar
    45    54    56   ar
    46    45    44   ar
    47    45    43   ar
    48    52    51   ar
    49   108   107   ar
    50   108   106   ar
    51    57    56    1
    52    44    42   ar
    53    43    41   ar
    54    56    55   ar
    55    87    86    1
    56    87    88    1
    57   107   105   ar
    58    32    33    1
    59    86    80   am
    60    84    82    1
    61   106   104   ar
    62    41    39   ar
    63    41    40   ar
    64    42    39   ar
    65    51    50    1
    66    51    53   ar
    67    39    37   ar
    68    40    38   ar
    69    33    34    1
    70    33    36    1
    71    50    47    1
    72    80    79    1
    73    80    81    2
    74    88    89    2
    75    88    90   am
    76    55    53   ar
    77    47    46    1
    78    47    48    1
    79    79    82    1
    80    79    78    1
    81   105   103   ar
    82    85    83    1
    83    61    60    2
    84    37    38   ar
    85    37    36    1
    86    34    35    2
    87    82    83    1
    88    90    91    1
    89   104   103   ar
    90    48    49    2
    91    96    95    2
    92   103   102    1
    93    64    63   ar
    94    60    59    1
    95    59    58    1
    96    59    62    1
    97    91    94    1
    98    91    92    1
    99    94    95    1
   100    95    97   am
   101    63    62    1
   102    63    65   ar
   103   102    99    1
   104    92    93    2
   105    99   100    1
   106    99    98    1
   107   100   101    2
