@<TRIPOS>MOLECULE
tmp/5zq6A00.pdb
 165 160 0 0 0
SMALL
GASTEIGER

@<TRIPOS>ATOM
      1  N         87.5040   91.4050  131.3990 N.3    52  HIS52      -0.1241
      2  CA        86.7190   92.5900  131.0910 C.3    52  HIS52       0.1621
      3  C         87.3670   93.3250  129.9230 C.2    52  HIS52       0.2264
      4  O         87.7660   94.4820  130.0170 O.2    52  HIS52      -0.2867
      5  CB        86.5820   93.4930  132.3200 C.3    52  HIS52       0.0745
      6  CG        85.6340   92.9660  133.3530 C.ar   52  HIS52       0.0817
      7  ND1       85.7420   93.2830  134.6900 N.ar   52  HIS52      -0.2268
      8  CD2       84.5540   92.1510  133.2450 C.ar   52  HIS52       0.1154
      9  CE1       84.7780   92.6770  135.3630 C.ar   52  HIS52       0.1986
     10  NE2       84.0420   91.9850  134.5100 N.ar   52  HIS52      -0.2212
     11  N         81.2560  100.7020  128.7890 N.3   106  PHE106     -0.1241
     12  CA        80.8370  100.4400  130.1610 C.3   106  PHE106      0.1605
     13  C         81.9830   99.9780  131.0630 C.2   106  PHE106      0.2264
     14  O         81.8870  100.0950  132.2910 O.2   106  PHE106     -0.2867
     15  CB        79.6920   99.4240  130.1420 C.3   106  PHE106      0.0534
     16  CG        79.0030   99.2690  131.4660 C.ar  106  PHE106     -0.0203
     17  CD1       78.3460  100.3540  132.0430 C.ar  106  PHE106     -0.0042
     18  CD2       78.9760   98.0350  132.1060 C.ar  106  PHE106     -0.0042
     19  CE1       77.7070  100.2290  133.2450 C.ar  106  PHE106     -0.0003
     20  CE2       78.3320   97.8880  133.3080 C.ar  106  PHE106     -0.0003
     21  CZ        77.6930   98.9900  133.8870 C.ar  106  PHE106     -0.0000
     22  N         87.9950  100.8680  133.5610 N.3   110  ARG110     -0.1245
     23  CA        88.6180   99.9360  134.4910 C.3   110  ARG110      0.1563
     24  C         90.1310  100.0450  134.4080 C.2   110  ARG110      0.2260
     25  O         90.6990  100.0510  133.3110 O.2   110  ARG110     -0.2867
     26  CB        88.1890   98.5100  134.1700 C.3   110  ARG110      0.0307
     27  CG        87.0340   98.0410  134.9860 C.3   110  ARG110      0.0489
     28  CD        87.1470   96.5460  135.2350 C.3   110  ARG110      0.2205
     29  NE        85.8850   96.0280  135.7230 N.pl3 110  ARG110     -0.0865
     30  CZ        85.6670   95.7310  137.0000 C.cat 110  ARG110      0.5346
     31  NH1       86.6390   95.9010  137.9000 N.pl3 110  ARG110      0.1354
     32  NH2       84.4760   95.2770  137.3810 N.pl3 110  ARG110      0.1354
     33  N         87.3950   95.0490  142.3580 N.3   115  SER115     -0.1202
     34  CA        85.9360   94.9410  142.3970 C.3   115  SER115      0.2020
     35  C         85.1940   96.0830  143.1130 C.2   115  SER115      0.2619
     36  O         85.1190   97.1980  142.5970 O.2   115  SER115     -0.2717
     37  CB        85.5210   93.5770  142.9680 C.3   115  SER115      0.2103
     38  OG        86.6510   92.8440  143.4100 O.3   115  SER115     -0.2182
     39  N         84.6360   95.7930  144.2880 N.am  116  SER116     -0.1951
     40  CA        83.7260   96.7130  144.9690 C.3   116  SER116      0.1924
     41  C         84.3670   98.0440  145.3480 C.2   116  SER116      0.2314
     42  O         83.7570   99.1010  145.1810 O.2   116  SER116     -0.2863
     43  CB        83.1330   96.0480  146.2150 C.3   116  SER116      0.2116
     44  OG        81.7210   95.9730  146.1300 O.3   116  SER116     -0.2180
     45  N         84.6460  101.1960  142.5200 N.3   119  TYR119     -0.1241
     46  CA        83.6240  101.0670  141.5210 C.3   119  TYR119      0.1605
     47  C         83.1700  102.3420  140.9140 C.2   119  TYR119      0.2264
     48  O         82.8570  102.3550  139.7820 O.2   119  TYR119     -0.2867
     49  CB        82.4570  100.3710  142.1370 C.3   119  TYR119      0.0534
     50  CG        81.2200  100.2640  141.3040 C.ar  119  TYR119     -0.0201
     51  CD1       80.4220  101.3520  141.0740 C.ar  119  TYR119     -0.0009
     52  CD2       80.8210   99.0580  140.8000 C.ar  119  TYR119     -0.0009
     53  CE1       79.2790  101.2390  140.3350 C.ar  119  TYR119      0.0417
     54  CE2       79.6860   98.9550  140.0680 C.ar  119  TYR119      0.0417
     55  CZ        78.9310  100.0490  139.8510 C.ar  119  TYR119      0.1957
     56  OH        77.8040   99.9320  139.1380 O.3   119  TYR119     -0.2866
     57  N         83.6210  103.5710  136.8850 N.3   123  HIS123     -0.1241
     58  CA        82.5230  103.9550  136.0140 C.3   123  HIS123      0.1621
     59  C         82.6540  105.3970  135.5680 C.2   123  HIS123      0.2264
     60  O         82.4260  105.7030  134.3900 O.2   123  HIS123     -0.2867
     61  CB        81.1910  103.7040  136.7070 C.3   123  HIS123      0.0745
     62  CG        80.7730  102.2740  136.6490 C.ar  123  HIS123      0.0817
     63  ND1       80.3450  101.6740  135.4810 N.ar  123  HIS123     -0.2268
     64  CD2       80.7570  101.3120  137.5970 C.ar  123  HIS123      0.1154
     65  CE1       80.0580  100.4080  135.7210 C.ar  123  HIS123      0.1986
     66  NE2       80.2980  100.1630  136.9970 N.ar  123  HIS123     -0.2212
     67  N         76.3310  105.1100  136.3130 N.3   161  ASP161     -0.1239
     68  CA        75.6020  104.2930  137.2910 C.3   161  ASP161      0.1674
     69  C         75.6490  104.8430  138.7200 C.2   161  ASP161      0.2266
     70  O         75.8790  104.0970  139.6720 O.2   161  ASP161     -0.2867
     71  CB        76.1190  102.8520  137.2700 C.3   161  ASP161      0.1410
     72  CG        75.2030  101.8950  138.0080 C.2   161  ASP161      0.3668
     73  OD1       74.0480  102.2750  138.2920 O.co2 161  ASP161     -0.2456
     74  OD2       75.6390  100.7620  138.3040 O.co2 161  ASP161     -0.2456
     75  N         69.1790  100.4290  138.1430 N.3   166  TRP166     -0.1241
     76  CA        69.4150   99.4770  137.0700 C.3   166  TRP166      0.1605
     77  C         68.1520   99.1220  136.3200 C.2   166  TRP166      0.2264
     78  O         68.1780   98.2010  135.4900 O.2   166  TRP166     -0.2867
     79  CB        70.0200   98.2010  137.6470 C.3   166  TRP166      0.0550
     80  CG        71.3840   98.3840  138.2290 C.ar  166  TRP166      0.0003
     81  CD1       72.2720   99.3810  137.9410 C.ar  166  TRP166      0.0946
     82  CD2       71.9950   97.5840  139.2610 C.ar  166  TRP166      0.0152
     83  NE1       73.4160   99.2240  138.6930 N.ar  166  TRP166     -0.2442
     84  CE2       73.2710   98.1340  139.5140 C.ar  166  TRP166      0.0810
     85  CE3       71.5840   96.4580  139.9940 C.ar  166  TRP166      0.0012
     86  CZ2       74.1490   97.5910  140.4690 C.ar  166  TRP166      0.0191
     87  CZ3       72.4570   95.9170  140.9450 C.ar  166  TRP166      0.0001
     88  CH2       73.7260   96.4860  141.1720 C.ar  166  TRP166      0.0015
     89  N         73.0250   97.2790  132.1560 N.3   176  ASN176     -0.1225
     90  CA        73.3930   96.6770  133.4260 C.3   176  ASN176      0.1785
     91  C         73.1760   95.1710  133.3850 C.2   176  ASN176      0.2597
     92  O         74.0610   94.3970  133.7620 O.2   176  ASN176     -0.2718
     93  CB        72.6020   97.3240  134.5680 C.3   176  ASN176      0.1169
     94  CG        73.2280   98.6320  135.0230 C.2   176  ASN176      0.2627
     95  OD1       74.3420   98.6390  135.5530 O.2   176  ASN176     -0.2716
     96  ND2       72.4990   99.7470  134.8500 N.am  176  ASN176     -0.0877
     97  N         72.0130   94.7340  132.9010 N.am  177  GLN177     -0.1979
     98  CA        71.7430   93.3040  132.8240 C.3   177  GLN177      0.1601
     99  C         72.5690   92.6390  131.7340 C.2   177  GLN177      0.2287
    100  O         72.8930   91.4570  131.8420 O.2   177  GLN177     -0.2864
    101  CB        70.2520   93.0640  132.5980 C.3   177  GLN177      0.0394
    102  CG        69.3550   93.5820  133.7370 C.3   177  GLN177      0.0908
    103  CD        68.3410   92.5570  134.1980 C.2   177  GLN177      0.2608
    104  OE1       68.3950   91.3820  133.8150 O.2   177  GLN177     -0.2717
    105  NE2       67.3780   93.0060  134.9870 N.am  177  GLN177     -0.0878
    106  N         75.6470   93.4890  131.1570 N.3   179  HIS179     -0.1241
    107  CA        76.8920   93.2740  131.8900 C.3   179  HIS179      0.1621
    108  C         76.7670   92.1080  132.8540 C.2   179  HIS179      0.2264
    109  O         77.6820   91.2840  132.9780 O.2   179  HIS179     -0.2867
    110  CB        77.2800   94.5470  132.6440 C.3   179  HIS179      0.0745
    111  CG        78.5720   94.4240  133.3770 C.ar  179  HIS179      0.0817
    112  ND1       78.6360   94.0550  134.7020 N.ar  179  HIS179     -0.2268
    113  CD2       79.8530   94.5700  132.9610 C.ar  179  HIS179      0.1154
    114  CE1       79.9030   93.9950  135.0790 C.ar  179  HIS179      0.1986
    115  NE2       80.6620   94.3040  134.0430 N.ar  179  HIS179     -0.2212
    116  N         78.4020   87.3660  133.6320 N.3   182  LEU182     -0.1245
    117  CA        79.1120   86.9840  134.8530 C.3   182  LEU182      0.1561
    118  C         78.9300   85.5270  135.2730 C.2   182  LEU182      0.2260
    119  O         79.4600   85.1000  136.2990 O.2   182  LEU182     -0.2867
    120  CB        78.7130   87.9080  136.0080 C.3   182  LEU182      0.0270
    121  CG        79.5600   89.1690  136.1910 C.3   182  LEU182      0.0019
    122  CD1       79.7860   89.8640  134.8570 C.3   182  LEU182      0.0001
    123  CD2       78.9090   90.1140  137.1890 C.3   182  LEU182      0.0001
    124  N         81.5590   82.4230  138.2130 N.3   186  LYS186     -0.1245
    125  CA        80.8160   82.4880  139.4540 C.3   186  LYS186      0.1561
    126  C         80.2370   81.2520  140.1500 C.2   186  LYS186      0.2260
    127  O         79.0970   81.2670  140.5240 O.2   186  LYS186     -0.2867
    128  CB        79.7790   83.5920  139.3420 C.3   186  LYS186      0.0271
    129  CG        80.3270   84.8390  138.7250 C.3   186  LYS186      0.0035
    130  CD        79.7920   86.0530  139.4420 C.3   186  LYS186      0.0206
    131  CE        80.9240   86.8850  140.0150 C.3   186  LYS186      0.1093
    132  NZ        80.4950   88.2510  140.3990 N.3   186  LYS186     -0.1314
    133  N         69.8460   83.2820  139.9360 N.3   195  TYR195     -0.1227
    134  CA        69.7370   84.6950  140.2840 C.3   195  TYR195      0.1736
    135  C         69.5410   85.5540  139.0430 C.2   195  TYR195      0.2595
    136  O         68.5500   86.2870  138.9200 O.2   195  TYR195     -0.2718
    137  CB        70.9740   85.1510  141.0640 C.3   195  TYR195      0.0548
    138  CG        70.9450   86.6200  141.4040 C.ar  195  TYR195     -0.0200
    139  CD1       69.9860   87.1290  142.2670 C.ar  195  TYR195     -0.0009
    140  CD2       71.8830   87.5030  140.8740 C.ar  195  TYR195     -0.0009
    141  CE1       69.9520   88.4860  142.5930 C.ar  195  TYR195      0.0417
    142  CE2       71.8620   88.8610  141.1970 C.ar  195  TYR195      0.0417
    143  CZ        70.8910   89.3400  142.0570 C.ar  195  TYR195      0.1957
    144  OH        70.8490   90.6700  142.3860 O.3   195  TYR195     -0.2866
    145  N         70.4810   85.4660  138.1050 N.am  196  TYR196     -0.1976
    146  CA        70.4040   86.2820  136.9010 C.3   196  TYR196      0.1639
    147  C         69.1400   85.9840  136.1200 C.2   196  TYR196      0.2290
    148  O         68.4980   86.8990  135.5900 O.2   196  TYR196     -0.2864
    149  CB        71.6480   86.0500  136.0470 C.3   196  TYR196      0.0560
    150  CG        72.9280   86.3830  136.7790 C.ar  196  TYR196     -0.0198
    151  CD1       72.9780   87.4550  137.6650 C.ar  196  TYR196     -0.0009
    152  CD2       74.0790   85.6330  136.5930 C.ar  196  TYR196     -0.0009
    153  CE1       74.1440   87.7830  138.3280 C.ar  196  TYR196      0.0417
    154  CE2       75.2590   85.9510  137.2550 C.ar  196  TYR196      0.0417
    155  CZ        75.2830   87.0280  138.1200 C.ar  196  TYR196      0.1957
    156  OH        76.4380   87.3580  138.7990 O.3   196  TYR196     -0.2866
    157  N         66.5210   87.9050  137.5940 N.3   199  GLN199     -0.1245
    158  CA        66.6420   89.3340  137.3390 C.3   199  GLN199      0.1566
    159  C         66.1890   89.7010  135.9320 C.2   199  GLN199      0.2260
    160  O         65.6290   90.7840  135.7240 O.2   199  GLN199     -0.2867
    161  CB        68.0860   89.7720  137.5790 C.3   199  GLN199      0.0367
    162  CG        68.5460   89.6080  139.0460 C.3   199  GLN199      0.0905
    163  CD        67.7530   90.4930  140.0110 C.2   199  GLN199      0.2608
    164  OE1       67.9750   91.7090  140.0710 O.2   199  GLN199     -0.2717
    165  NE2       66.8190   89.8830  140.7620 N.am  199  GLN199     -0.0878
@<TRIPOS>BOND
     1    11    12    1
     2     3     4    2
     3     3     2    1
     4    15    12    1
     5    15    16    1
     6    12    13    1
     7    13    14    2
     8     2     1    1
     9     2     5    1
    10   106   107    1
    11    16    17   ar
    12    16    18   ar
    13    99   100    2
    14    99    98    1
    15   107   110    1
    16   107   108    1
    17    17    19   ar
    18    18    20   ar
    19    89    90    1
    20     5     6    1
    21   101    98    1
    22   101   102    1
    23   110   111    1
    24    98    97    1
    25   108   109    2
    26    97    91   am
    27   113   111   ar
    28   113   115   ar
    29     8     6   ar
    30     8    10   ar
    31    19    21   ar
    32    20    21   ar
    33    25    24    2
    34     6     7   ar
    35   111   112   ar
    36    91    90    1
    37    91    92    2
    38    90    93    1
    39    22    23    1
    40   116   117    1
    41   102   103    1
    42   104   103    2
    43   115   114   ar
    44    26    23    1
    45    26    27    1
    46   103   105   am
    47    60    59    2
    48    24    23    1
    49    10     9   ar
    50    93    94    1
    51     7     9   ar
    52   112   114   ar
    53    96    94   am
    54   117   118    1
    55   117   120    1
    56   122   121    1
    57    27    28    1
    58    94    95    2
    59    28    29    1
    60   118   119    2
    61    63    65   ar
    62    63    62   ar
    63    78    77    2
    64    59    58    1
    65   148   147    2
    66    65    66   ar
    67    29    30    2
    68   160   159    2
    69   159   158    1
    70   120   121    1
    71    58    61    1
    72    58    57    1
    73   149   150    1
    74   149   146    1
    75   147   146    1
    76   121   123    1
    77    67    68    1
    78    77    76    1
    79   152   150   ar
    80   152   154   ar
    81    62    61    1
    82    62    64   ar
    83   150   151   ar
    84   146   145    1
    85    66    64   ar
    86    30    32    1
    87    30    31    1
    88    76    79    1
    89    76    75    1
    90   154   155   ar
    91    71    68    1
    92    71    72    1
    93    68    69    1
    94   158   161    1
    95   158   157    1
    96   161   162    1
    97    79    80    1
    98   151   153   ar
    99    81    80   ar
   100    81    83   ar
   101    72    73   ar
   102    72    74   ar
   103   145   135   am
   104   155   153   ar
   105   155   156    1
   106   124   125    1
   107    80    82   ar
   108    83    84   ar
   109    69    70    2
   110   129   128    1
   111   129   130    1
   112   136   135    2
   113   135   134    1
   114   162   163    1
   115    56    55    1
   116    82    84   ar
   117    82    85   ar
   118   128   125    1
   119   130   131    1
   120   125   126    1
   121    84    86   ar
   122    48    47    2
   123    55    54   ar
   124    55    53   ar
   125   133   134    1
   126    85    87   ar
   127   163   164    2
   128   163   165   am
   129   131   132    1
   130    54    52   ar
   131   126   127    2
   132   134   137    1
   133    53    51   ar
   134    86    88   ar
   135    52    50   ar
   136   140   142   ar
   137   140   138   ar
   138    47    46    1
   139    87    88   ar
   140   137   138    1
   141    51    50   ar
   142   142   143   ar
   143    50    49    1
   144   138   139   ar
   145    46    49    1
   146    46    45    1
   147   143   144    1
   148   143   141   ar
   149   139   141   ar
   150    33    34    1
   151    34    37    1
   152    34    35    1
   153    36    35    2
   154    37    38    1
   155    35    39   am
   156    39    40    1
   157    40    41    1
   158    40    43    1
   159    42    41    2
   160    44    43    1
