@<TRIPOS>MOLECULE
tmp/5zq7A01.pdb
 130 127 0 0 0
SMALL
GASTEIGER

@<TRIPOS>ATOM
      1  N         82.0580  101.8900  129.5190 N.3   106  PHE106     -0.1241
      2  CA        81.6390  101.6650  130.8990 C.3   106  PHE106      0.1605
      3  C         82.7810  101.1970  131.7970 C.2   106  PHE106      0.2264
      4  O         82.6920  101.3390  133.0210 O.2   106  PHE106     -0.2867
      5  CB        80.5020  100.6470  130.9110 C.3   106  PHE106      0.0534
      6  CG        79.7230  100.6130  132.1930 C.ar  106  PHE106     -0.0203
      7  CD1       79.0670  101.7530  132.6430 C.ar  106  PHE106     -0.0042
      8  CD2       79.6160   99.4460  132.9300 C.ar  106  PHE106     -0.0042
      9  CE1       78.3340  101.7290  133.8050 C.ar  106  PHE106     -0.0003
     10  CE2       78.8860   99.4190  134.0880 C.ar  106  PHE106     -0.0003
     11  CZ        78.2450  100.5620  134.5280 C.ar  106  PHE106     -0.0000
     12  N         87.9810   96.1560  143.0720 N.3   115  SER115     -0.1217
     13  CA        86.5350   96.1300  143.1100 C.3   115  SER115      0.1889
     14  C         85.9840   96.9860  144.3070 C.2   115  SER115      0.2288
     15  O         85.2870   97.9570  144.0710 O.2   115  SER115     -0.2866
     16  CB        86.0460   94.6940  143.2440 C.3   115  SER115      0.2089
     17  OG        86.5430   94.1080  144.4370 O.3   115  SER115     -0.2183
     18  N         85.3020  102.3530  143.0940 N.3   119  TYR119     -0.1241
     19  CA        84.1490  102.3370  142.1820 C.3   119  TYR119      0.1605
     20  C         83.7170  103.7160  141.6590 C.2   119  TYR119      0.2264
     21  O         83.4230  103.8740  140.4740 O.2   119  TYR119     -0.2867
     22  CB        82.9580  101.6390  142.8460 C.3   119  TYR119      0.0534
     23  CG        81.7500  101.5030  141.9470 C.ar  119  TYR119     -0.0201
     24  CD1       80.8580  102.5550  141.7860 C.ar  119  TYR119     -0.0009
     25  CD2       81.5000  100.3220  141.2610 C.ar  119  TYR119     -0.0009
     26  CE1       79.7520  102.4350  140.9660 C.ar  119  TYR119      0.0417
     27  CE2       80.3970  100.1920  140.4390 C.ar  119  TYR119      0.0417
     28  CZ        79.5270  101.2520  140.2950 C.ar  119  TYR119      0.1957
     29  OH        78.4270  101.1280  139.4770 O.3   119  TYR119     -0.2866
     30  N         84.5120  104.9390  137.6950 N.3   123  HIS123     -0.1241
     31  CA        83.3720  105.3260  136.8680 C.3   123  HIS123      0.1621
     32  C         83.4150  106.7910  136.4790 C.2   123  HIS123      0.2264
     33  O         82.9100  107.1610  135.4120 O.2   123  HIS123     -0.2867
     34  CB        82.0710  105.0040  137.5880 C.3   123  HIS123      0.0745
     35  CG        81.6550  103.5810  137.4270 C.ar  123  HIS123      0.0817
     36  ND1       81.2530  103.0590  136.2150 N.ar  123  HIS123     -0.2268
     37  CD2       81.6490  102.5500  138.3000 C.ar  123  HIS123      0.1154
     38  CE1       80.9750  101.7770  136.3610 C.ar  123  HIS123      0.1986
     39  NE2       81.2050  101.4440  137.6180 N.ar  123  HIS123     -0.2212
     40  N         69.8510  101.8070  138.8090 N.3   166  TRP166     -0.1241
     41  CA        70.0670  100.8130  137.7670 C.3   166  TRP166      0.1605
     42  C         68.7840  100.4110  137.0580 C.2   166  TRP166      0.2264
     43  O         68.8310   99.5790  136.1480 O.2   166  TRP166     -0.2867
     44  CB        70.7160   99.5740  138.3760 C.3   166  TRP166      0.0550
     45  CG        72.0860   99.8160  138.9050 C.ar  166  TRP166      0.0003
     46  CD1       72.9130  100.8570  138.5990 C.ar  166  TRP166      0.0946
     47  CD2       72.7800   99.0250  139.8750 C.ar  166  TRP166      0.0152
     48  NE1       74.0910  100.7470  139.2960 N.ar  166  TRP166     -0.2442
     49  CE2       74.0330   99.6340  140.0910 C.ar  166  TRP166      0.0810
     50  CE3       72.4630   97.8580  140.5820 C.ar  166  TRP166      0.0012
     51  CZ2       74.9700   99.1170  140.9810 C.ar  166  TRP166      0.0191
     52  CZ3       73.3950   97.3440  141.4670 C.ar  166  TRP166      0.0001
     53  CH2       74.6350   97.9730  141.6580 C.ar  166  TRP166      0.0015
     54  N         73.7190   98.3910  132.9890 N.3   176  ASN176     -0.1225
     55  CA        74.1390   97.7490  134.2250 C.3   176  ASN176      0.1785
     56  C         73.9640   96.2420  134.1530 C.2   176  ASN176      0.2597
     57  O         74.8720   95.4910  134.5220 O.2   176  ASN176     -0.2718
     58  CB        73.3620   98.3240  135.4050 C.3   176  ASN176      0.1169
     59  CG        73.7510   99.7550  135.7070 C.2   176  ASN176      0.2627
     60  OD1       74.8050  100.0010  136.2860 O.2   176  ASN176     -0.2716
     61  ND2       72.8900  100.7030  135.3450 N.am  176  ASN176     -0.0877
     62  N         72.8180   95.7810  133.6600 N.am  177  GLN177     -0.1979
     63  CA        72.6140   94.3430  133.5510 C.3   177  GLN177      0.1601
     64  C         73.3880   93.7750  132.3700 C.2   177  GLN177      0.2287
     65  O         73.7220   92.5870  132.3500 O.2   177  GLN177     -0.2864
     66  CB        71.1360   94.0130  133.4180 C.3   177  GLN177      0.0394
     67  CG        70.3160   94.5340  134.5850 C.3   177  GLN177      0.0908
     68  CD        69.2030   93.6090  134.9840 C.2   177  GLN177      0.2608
     69  OE1       69.2570   92.4090  134.7130 O.2   177  GLN177     -0.2717
     70  NE2       68.2280   94.1370  135.6980 N.am  177  GLN177     -0.0878
     71  N         76.3780   94.6940  131.8690 N.3   179  HIS179     -0.1241
     72  CA        77.6700   94.4500  132.5090 C.3   179  HIS179      0.1621
     73  C         77.5830   93.3270  133.5340 C.2   179  HIS179      0.2264
     74  O         78.5860   92.6650  133.8300 O.2   179  HIS179     -0.2867
     75  CB        78.1600   95.7430  133.1770 C.3   179  HIS179      0.0745
     76  CG        79.3440   95.5750  134.0850 C.ar  179  HIS179      0.0817
     77  ND1       80.6330   95.8200  133.6630 N.ar  179  HIS179     -0.2268
     78  CD2       79.4350   95.2680  135.4010 C.ar  179  HIS179      0.1154
     79  CE1       81.4730   95.6140  134.6610 C.ar  179  HIS179      0.1986
     80  NE2       80.7710   95.2820  135.7300 N.ar  179  HIS179     -0.2212
     81  N         78.9530   88.7260  134.5430 N.3   182  LEU182     -0.1245
     82  CA        79.5370   88.4840  135.8620 C.3   182  LEU182      0.1561
     83  C         79.6600   86.9910  136.1170 C.2   182  LEU182      0.2260
     84  O         80.3670   86.5430  137.0190 O.2   182  LEU182     -0.2867
     85  CB        78.6890   89.1380  136.9540 C.3   182  LEU182      0.0270
     86  CG        79.1530   90.5130  137.4400 C.3   182  LEU182      0.0019
     87  CD1       78.5990   90.8080  138.8260 C.3   182  LEU182      0.0001
     88  CD2       80.6710   90.6000  137.4350 C.3   182  LEU182      0.0001
     89  N         82.1720   83.7190  138.9440 N.3   186  LYS186     -0.1245
     90  CA        81.6590   83.3910  140.2490 C.3   186  LYS186      0.1561
     91  C         81.2910   81.9250  140.4460 C.2   186  LYS186      0.2260
     92  O         80.5810   81.3550  139.6630 O.2   186  LYS186     -0.2867
     93  CB        80.4650   84.3010  140.5810 C.3   186  LYS186      0.0271
     94  CG        80.4690   85.6360  139.8470 C.3   186  LYS186      0.0035
     95  CD        80.2980   86.8110  140.7790 C.3   186  LYS186      0.0206
     96  CE        81.2990   87.9150  140.4990 C.3   186  LYS186      0.1093
     97  NZ        81.1340   89.0930  141.3800 N.3   186  LYS186     -0.1314
     98  N         70.6560   84.3290  140.8220 N.3   195  TYR195     -0.1227
     99  CA        70.5190   85.7350  141.1720 C.3   195  TYR195      0.1736
    100  C         70.4680   86.6720  139.9750 C.2   195  TYR195      0.2595
    101  O         69.5910   87.5320  139.8920 O.2   195  TYR195     -0.2718
    102  CB        71.6700   86.1720  142.0740 C.3   195  TYR195      0.0548
    103  CG        71.6550   87.6520  142.3640 C.ar  195  TYR195     -0.0200
    104  CD1       70.6590   88.1830  143.1520 C.ar  195  TYR195     -0.0009
    105  CD2       72.6270   88.4760  141.8460 C.ar  195  TYR195     -0.0009
    106  CE1       70.6280   89.5100  143.4230 C.ar  195  TYR195      0.0417
    107  CE2       72.6060   89.8070  142.1100 C.ar  195  TYR195      0.0417
    108  CZ        71.6010   90.2930  142.8970 C.ar  195  TYR195      0.1957
    109  OH        71.5760   91.6420  143.1680 O.3   195  TYR195     -0.2866
    110  N         71.3960   86.5040  139.0440 N.am  196  TYR196     -0.1976
    111  CA        71.3140   87.3270  137.8410 C.3   196  TYR196      0.1639
    112  C         70.0340   87.0360  137.0630 C.2   196  TYR196      0.2290
    113  O         69.3630   87.9620  136.5830 O.2   196  TYR196     -0.2864
    114  CB        72.5580   87.1040  136.9820 C.3   196  TYR196      0.0560
    115  CG        73.8220   87.5200  137.6990 C.ar  196  TYR196     -0.0198
    116  CD1       73.8410   88.6610  138.4820 C.ar  196  TYR196     -0.0009
    117  CD2       74.9880   86.7700  137.6080 C.ar  196  TYR196     -0.0009
    118  CE1       74.9780   89.0540  139.1510 C.ar  196  TYR196      0.0417
    119  CE2       76.1410   87.1600  138.2720 C.ar  196  TYR196      0.0417
    120  CZ        76.1280   88.3050  139.0440 C.ar  196  TYR196      0.1957
    121  OH        77.2610   88.7110  139.7170 O.3   196  TYR196     -0.2866
    122  N         67.3400   88.9540  138.5200 N.3   199  GLN199     -0.1245
    123  CA        67.2900   90.4010  138.3040 C.3   199  GLN199      0.1566
    124  C         66.9280   90.7740  136.8700 C.2   199  GLN199      0.2260
    125  O         66.3780   91.8610  136.6390 O.2   199  GLN199     -0.2867
    126  CB        68.6100   91.0610  138.6800 C.3   199  GLN199      0.0367
    127  CG        68.9790   90.8160  140.1280 C.3   199  GLN199      0.0905
    128  CD        68.1050   91.6090  141.0540 C.2   199  GLN199      0.2608
    129  OE1       67.2210   91.0490  141.7060 O.2   199  GLN199     -0.2717
    130  NE2       68.2990   92.9120  141.0850 N.am  199  GLN199     -0.0878
@<TRIPOS>BOND
     1     1     2    1
     2     2     5    1
     3     2     3    1
     4     5     6    1
     5     3     4    2
     6    71    72    1
     7     6     7   ar
     8     6     8   ar
     9    65    64    2
    10    64    63    1
    11    72    75    1
    12    72    73    1
    13     7     9   ar
    14     8    10   ar
    15    54    55    1
    16    75    76    1
    17    66    63    1
    18    66    67    1
    19    73    74    2
    20    63    62    1
    21    62    56   am
    22    77    76   ar
    23    77    79   ar
    24     9    11   ar
    25    76    78   ar
    26    10    11   ar
    27    56    55    1
    28    56    57    2
    29    55    58    1
    30    81    82    1
    31    67    68    1
    32    79    80   ar
    33    69    68    2
    34    68    70   am
    35    61    59   am
    36    78    80   ar
    37    58    59    1
    38    33    32    2
    39    59    60    2
    40    82    83    1
    41    82    85    1
    42    83    84    2
    43    43    42    2
    44    36    38   ar
    45    36    35   ar
    46    38    39   ar
    47    32    31    1
    48   113   112    2
    49   125   124    2
    50    31    34    1
    51    31    30    1
    52   124   123    1
    53    85    86    1
    54   114   115    1
    55   114   111    1
    56    42    41    1
    57   112   111    1
    58    35    34    1
    59    35    37   ar
    60    88    86    1
    61    86    87    1
    62   117   115   ar
    63   117   119   ar
    64    39    37   ar
    65   115   116   ar
    66    41    44    1
    67    41    40    1
    68   111   110    1
    69   119   120   ar
    70   123   122    1
    71   123   126    1
    72    44    45    1
    73   116   118   ar
    74    46    45   ar
    75    46    48   ar
    76   126   127    1
    77    45    47   ar
    78    89    90    1
    79   110   100   am
    80   120   118   ar
    81   120   121    1
    82    48    49   ar
    83    29    28    1
    84    92    91    2
    85    94    93    1
    86    94    95    1
    87    47    49   ar
    88    47    50   ar
    89   101   100    2
    90   100    99    1
    91    49    51   ar
    92   127   128    1
    93    90    91    1
    94    90    93    1
    95    28    27   ar
    96    28    26   ar
    97    27    25   ar
    98    21    20    2
    99    96    95    1
   100    96    97    1
   101    50    52   ar
   102    98    99    1
   103    26    24   ar
   104    51    53   ar
   105   128   130   am
   106   128   129    2
   107    99   102    1
   108    25    23   ar
   109    52    53   ar
   110    20    19    1
   111    24    23   ar
   112   105   107   ar
   113   105   103   ar
   114    23    22    1
   115   102   103    1
   116   107   108   ar
   117    19    22    1
   118    19    18    1
   119   103   104   ar
   120   108   109    1
   121   108   106   ar
   122    12    13    1
   123    13    16    1
   124    13    14    1
   125   104   106   ar
   126    16    17    1
   127    15    14    2
