@<TRIPOS>MOLECULE
tmp/5zq7A00.pdb
 192 182 0 0 0
SMALL
GASTEIGER

@<TRIPOS>ATOM
      1  N         65.7560   83.0340   81.1490 N.3   468  GLN468     -0.1231
      2  CA        66.3130   84.2090   81.7960 C.3   468  GLN468      0.1698
      3  C         65.8470   85.4910   81.1320 C.2   468  GLN468      0.2592
      4  O         65.7910   86.5400   81.7830 O.2   468  GLN468     -0.2718
      5  CB        67.8380   84.1430   81.7880 C.3   468  GLN468      0.0381
      6  CG        68.4870   85.3140   82.4960 C.3   468  GLN468      0.0905
      7  CD        69.9940   85.2850   82.4270 C.2   468  GLN468      0.2608
      8  OE1       70.5800   84.8510   81.4280 O.2   468  GLN468     -0.2717
      9  NE2       70.6380   85.7520   83.4930 N.am  468  GLN468     -0.0878
     10  N         65.4880   85.4320   79.8540 N.am  469  ASN469     -0.1974
     11  CA        65.4070   86.6470   79.0700 C.3   469  ASN469      0.1688
     12  C         64.0040   86.9970   78.5990 C.2   469  ASN469      0.2292
     13  O         63.7480   88.1750   78.3390 O.2   469  ASN469     -0.2864
     14  CB        66.3420   86.5450   77.8560 C.3   469  ASN469      0.1181
     15  CG        66.4270   87.8330   77.0810 C.2   469  ASN469      0.2629
     16  OD1       67.0270   88.8090   77.5360 O.2   469  ASN469     -0.2716
     17  ND2       65.8200   87.8540   75.9150 N.am  469  ASN469     -0.0877
     18  N         58.6550   83.0660   80.9420 N.3   474  HIS474     -0.1226
     19  CA        58.9140   82.6030   82.3020 C.3   474  HIS474      0.1752
     20  C         57.8170   83.0220   83.2770 C.2   474  HIS474      0.2596
     21  O         57.5820   82.3080   84.2550 O.2   474  HIS474     -0.2718
     22  CB        60.3050   83.0330   82.7960 C.3   474  HIS474      0.0759
     23  CG        60.5240   84.5110   82.8730 C.ar  474  HIS474      0.0818
     24  ND1       61.6200   85.1270   82.3070 N.ar  474  HIS474     -0.2268
     25  CD2       59.8270   85.4880   83.4980 C.ar  474  HIS474      0.1154
     26  CE1       61.5740   86.4230   82.5560 C.ar  474  HIS474      0.1986
     27  NE2       60.4960   86.6680   83.2780 N.ar  474  HIS474     -0.2212
     28  N         57.1000   84.1250   83.0300 N.am  475  THR475     -0.1953
     29  CA        56.0370   84.4810   83.9750 C.3   475  THR475      0.1897
     30  C         54.8850   83.4790   83.9030 C.2   475  THR475      0.2313
     31  O         54.3620   83.0310   84.9360 O.2   475  THR475     -0.2863
     32  CB        55.5270   85.9030   83.7120 C.3   475  THR475      0.1794
     33  OG1       54.8280   85.9540   82.4570 O.3   475  THR475     -0.2208
     34  CG2       56.6610   86.9270   83.7420 C.3   475  THR475      0.0378
     35  N         56.2280   80.0440   85.4060 N.3   478  ASN478     -0.1240
     36  CA        56.2780   80.0780   86.8630 C.3   478  ASN478      0.1653
     37  C         54.8820   80.0480   87.4710 C.2   478  ASN478      0.2266
     38  O         54.6190   79.2780   88.4040 O.2   478  ASN478     -0.2867
     39  CB        57.0380   81.3170   87.3270 C.3   478  ASN478      0.1155
     40  CG        58.5080   81.2340   87.0190 C.2   478  ASN478      0.2627
     41  OD1       59.0980   80.1510   87.0430 O.2   478  ASN478     -0.2716
     42  ND2       59.1200   82.3780   86.7520 N.am  478  ASN478     -0.0877
     43  N         53.6190   76.9090   89.8990 N.3   482  GLN482     -0.1245
     44  CA        53.2290   77.1900   91.2730 C.3   482  GLN482      0.1566
     45  C         51.7220   77.1250   91.4970 C.2   482  GLN482      0.2260
     46  O         51.2640   77.4900   92.5830 O.2   482  GLN482     -0.2867
     47  CB        53.7390   78.5670   91.6910 C.3   482  GLN482      0.0367
     48  CG        55.2170   78.6130   91.9710 C.3   482  GLN482      0.0905
     49  CD        55.5960   79.8420   92.7600 C.2   482  GLN482      0.2608
     50  OE1       54.9420   80.8800   92.6430 O.2   482  GLN482     -0.2717
     51  NE2       56.6570   79.7380   93.5720 N.am  482  GLN482     -0.0878
     52  N         49.2380   78.9770   90.4250 N.3   484  ARG484     -0.1245
     53  CA        48.6700   80.2800   90.7510 C.3   484  ARG484      0.1563
     54  C         48.3710   81.0560   89.4770 C.2   484  ARG484      0.2260
     55  O         48.2910   82.2890   89.5090 O.2   484  ARG484     -0.2867
     56  CB        49.6130   81.0830   91.6590 C.3   484  ARG484      0.0307
     57  CG        50.9510   81.3810   91.0040 C.3   484  ARG484      0.0489
     58  CD        51.7610   82.4110   91.7500 C.3   484  ARG484      0.2205
     59  NE        53.1040   82.5000   91.1900 N.pl3 484  ARG484     -0.0865
     60  CZ        53.4380   83.3070   90.1850 C.cat 484  ARG484      0.5346
     61  NH1       52.5280   84.1130   89.6470 N.pl3 484  ARG484      0.1354
     62  NH2       54.6850   83.3220   89.7240 N.pl3 484  ARG484      0.1354
     63  N         66.2430   87.1090   96.4430 N.3   519  ARG519     -0.1231
     64  CA        65.1500   86.9610   95.5010 C.3   519  ARG519      0.1694
     65  C         64.1430   88.0740   95.7170 C.2   519  ARG519      0.2593
     66  O         63.6290   88.2460   96.8250 O.2   519  ARG519     -0.2718
     67  CB        64.4530   85.6170   95.6680 C.3   519  ARG519      0.0321
     68  CG        63.4660   85.3830   94.5750 C.3   519  ARG519      0.0489
     69  CD        63.0330   83.9270   94.4910 C.3   519  ARG519      0.2205
     70  NE        61.7160   83.7660   93.8840 N.pl3 519  ARG519     -0.0865
     71  CZ        61.3760   84.2020   92.6680 C.cat 519  ARG519      0.5346
     72  NH1       60.1420   84.0210   92.2240 N.pl3 519  ARG519      0.1354
     73  NH2       62.2480   84.8280   91.8910 N.pl3 519  ARG519      0.1354
     74  N         63.8000   88.7760   94.6500 N.am  520  GLY520     -0.1942
     75  CA        62.9390   89.9440   94.7330 C.3   520  GLY520      0.2014
     76  C         61.5550   89.6180   94.2100 C.2   520  GLY520      0.2639
     77  O         61.4050   88.8920   93.2250 O.2   520  GLY520     -0.2714
     78  N         60.5480   90.1790   94.8610 N.am  521  LEU521     -0.1963
     79  CA        59.1670   89.9980   94.4620 C.3   521  LEU521      0.1728
     80  C         58.4500   91.3270   94.6050 C.2   521  LEU521      0.2616
     81  O         58.7910   92.1530   95.4620 O.2   521  LEU521     -0.2715
     82  CB        58.4490   88.9390   95.3060 C.3   521  LEU521      0.0311
     83  CG        59.0400   87.5280   95.3090 C.3   521  LEU521      0.0022
     84  CD1       58.7740   86.8700   96.6630 C.3   521  LEU521      0.0001
     85  CD2       58.4990   86.6870   94.1660 C.3   521  LEU521      0.0001
     86  N         57.4540   91.5230   93.7480 N.am  522  ASP522     -0.1957
     87  CA        56.5800   92.6880   93.7960 C.3   522  ASP522      0.1840
     88  C         55.2070   92.1840   94.2170 C.2   522  ASP522      0.2621
     89  O         54.4450   91.6600   93.3990 O.2   522  ASP522     -0.2715
     90  CB        56.5380   93.4120   92.4600 C.3   522  ASP522      0.1450
     91  CG        55.8990   94.7740   92.5650 C.2   522  ASP522      0.3671
     92  OD1       56.4970   95.6610   93.2190 O.co2 522  ASP522     -0.2456
     93  OD2       54.8060   94.9580   91.9850 O.co2 522  ASP522     -0.2456
     94  N         54.9200   92.3130   95.5040 N.am  523  LEU523     -0.1977
     95  CA        53.7230   91.7690   96.1160 C.3   523  LEU523      0.1596
     96  C         52.7370   92.8880   96.4380 C.2   523  LEU523      0.2287
     97  O         53.1100   94.0570   96.5700 O.2   523  LEU523     -0.2864
     98  CB        54.1010   90.9890   97.3790 C.3   523  LEU523      0.0297
     99  CG        55.0160   89.7970   97.0890 C.3   523  LEU523      0.0022
    100  CD1       55.2820   89.0150   98.3440 C.3   523  LEU523      0.0001
    101  CD2       54.4130   88.8930   96.0340 C.3   523  LEU523      0.0001
    102  N         49.0780   91.0830  100.7210 N.3   527  PHE527     -0.1241
    103  CA        49.8350   89.8440  100.8190 C.3   527  PHE527      0.1605
    104  C         51.1230   90.0530  101.6020 C.2   527  PHE527      0.2264
    105  O         51.4750   89.2420  102.4710 O.2   527  PHE527     -0.2867
    106  CB        50.1110   89.3380   99.4060 C.3   527  PHE527      0.0534
    107  CG        50.7470   87.9750   99.3430 C.ar  527  PHE527     -0.0203
    108  CD1       50.4980   87.0370  100.3200 C.ar  527  PHE527     -0.0042
    109  CD2       51.5690   87.6250   98.2730 C.ar  527  PHE527     -0.0042
    110  CE1       51.0700   85.7900  100.2630 C.ar  527  PHE527     -0.0003
    111  CE2       52.1450   86.3770   98.2110 C.ar  527  PHE527     -0.0003
    112  CZ        51.8970   85.4550   99.2080 C.ar  527  PHE527     -0.0000
    113  N         55.8680   80.1280   98.3450 N.3   566  VAL566     -0.1245
    114  CA        55.9750   81.1910   97.3580 C.3   566  VAL566      0.1561
    115  C         57.3160   81.1030   96.6450 C.2   566  VAL566      0.2260
    116  O         57.5350   81.8110   95.6590 O.2   566  VAL566     -0.2867
    117  CB        55.7320   82.5760   97.9820 C.3   566  VAL566      0.0252
    118  CG1       54.5240   82.4830   98.9360 C.3   566  VAL566      0.0019
    119  CG2       56.9230   83.0120   98.7010 C.3   566  VAL566      0.0019
    120  N         63.1090   78.9300   90.4160 N.3   572  ALA572     -0.1231
    121  CA        62.9900   80.2670   90.9730 C.3   572  ALA572      0.1694
    122  C         64.2840   81.0590   90.8170 C.2   572  ALA572      0.2593
    123  O         65.3890   80.5630   91.0910 O.2   572  ALA572     -0.2718
    124  CB        62.6020   80.1850   92.4490 C.3   572  ALA572      0.0304
    125  N         64.1210   82.3110   90.3940 N.am  573  SER573     -0.1938
    126  CA        65.2170   83.1780   89.9960 C.3   573  SER573      0.2055
    127  C         65.7340   83.9650   91.1990 C.2   573  SER573      0.2644
    128  O         64.9540   84.5960   91.9190 O.2   573  SER573     -0.2714
    129  CB        64.7240   84.1180   88.8990 C.3   573  SER573      0.2130
    130  OG        65.7180   85.0370   88.5160 O.3   573  SER573     -0.2179
    131  N         67.0530   83.9370   91.3980 N.am  574  THR574     -0.1936
    132  CA        67.7130   84.5820   92.5310 C.3   574  THR574      0.2028
    133  C         69.0230   85.2140   92.0770 C.2   574  THR574      0.2642
    134  O         69.5410   84.9140   90.9970 O.2   574  THR574     -0.2714
    135  CB        68.0280   83.5910   93.6570 C.3   574  THR574      0.1808
    136  OG1       69.1010   82.7250   93.2470 O.3   574  THR574     -0.2208
    137  CG2       66.7990   82.7710   94.0570 C.3   574  THR574      0.0379
    138  N         69.5660   86.0920   92.9230 N.am  575  SER575     -0.1949
    139  CA        70.8540   86.7130   92.6440 C.3   575  SER575      0.1924
    140  C         71.7010   86.7800   93.9050 C.2   575  SER575      0.2314
    141  O         71.1770   86.8890   95.0140 O.2   575  SER575     -0.2863
    142  CB        70.6920   88.1240   92.0750 C.3   575  SER575      0.2116
    143  OG        71.9580   88.7340   91.9000 O.3   575  SER575     -0.2180
    144  N         70.4300   93.6780   92.5060 N.3   580  VAL580     -0.1231
    145  CA        69.6520   93.2240   91.3540 C.3   580  VAL580      0.1678
    146  C         68.1700   93.2870   91.7180 C.2   580  VAL580      0.2434
    147  O         67.4120   93.9700   91.0130 O.2   580  VAL580     -0.2733
    148  CB        70.0990   91.8330   90.8610 C.3   580  VAL580      0.0265
    149  CG1       69.0900   91.2560   89.8800 C.3   580  VAL580      0.0020
    150  CG2       71.4630   91.9190   90.1920 C.3   580  VAL580      0.0020
    151  N         67.6920   92.6090   92.7750 N.am  581  PRO581     -0.2729
    152  CA        66.2620   92.7410   93.1060 C.3   581  PRO581      0.1401
    153  C         65.8980   94.1010   93.6680 C.2   581  PRO581      0.2269
    154  O         64.7990   94.5990   93.3840 O.2   581  PRO581     -0.2865
    155  CB        66.0280   91.6420   94.1530 C.3   581  PRO581      0.0296
    156  CG        67.2430   90.7890   94.1330 C.3   581  PRO581      0.0237
    157  CD        68.3590   91.6520   93.6740 C.3   581  PRO581      0.0939
    158  N         65.2820   95.7980   89.6280 N.3   585  PHE585     -0.1241
    159  CA        63.8810   95.4530   89.4460 C.3   585  PHE585      0.1605
    160  C         62.9480   96.1910   90.3980 C.2   585  PHE585      0.2264
    161  O         61.7280   96.1520   90.1990 O.2   585  PHE585     -0.2867
    162  CB        63.7030   93.9410   89.6040 C.3   585  PHE585      0.0534
    163  CG        64.3680   93.1580   88.5190 C.ar  585  PHE585     -0.0203
    164  CD1       63.8500   93.1430   87.2390 C.ar  585  PHE585     -0.0042
    165  CD2       65.5380   92.4700   88.7690 C.ar  585  PHE585     -0.0042
    166  CE1       64.4770   92.4380   86.2320 C.ar  585  PHE585     -0.0003
    167  CE2       66.1670   91.7590   87.7680 C.ar  585  PHE585     -0.0003
    168  CZ        65.6370   91.7440   86.4980 C.ar  585  PHE585     -0.0000
    169  N         62.0280   95.6610   93.5460 N.3   587  SER587     -0.1217
    170  CA        61.1160   94.8390   94.3260 C.3   587  SER587      0.1889
    171  C         60.8110   95.5020   95.6630 C.2   587  SER587      0.2288
    172  O         61.6660   96.1640   96.2570 O.2   587  SER587     -0.2866
    173  CB        61.7110   93.4520   94.5540 C.3   587  SER587      0.2089
    174  OG        62.0240   92.8300   93.3250 O.3   587  SER587     -0.2183
    175  N         73.4840   90.0400   86.1210 N.3   613  GLU613     -0.1245
    176  CA        72.5080   89.8140   87.1740 C.3   613  GLU613      0.1567
    177  C         72.9840   88.8360   88.2450 C.2   613  GLU613      0.2260
    178  O         72.2810   88.6630   89.2480 O.2   613  GLU613     -0.2867
    179  CB        71.1980   89.3310   86.5540 C.3   613  GLU613      0.0388
    180  CG        70.7060   90.2410   85.4370 C.3   613  GLU613      0.1160
    181  CD        69.6990   89.5690   84.5160 C.2   613  GLU613      0.3649
    182  OE1       68.4930   89.5890   84.8420 O.co2 613  GLU613     -0.2457
    183  OE2       70.1190   89.0220   83.4680 O.co2 613  GLU613     -0.2457
    184  N         72.9380   85.7130   88.5060 N.3   615  GLU615     -0.1245
    185  CA        71.7260   84.9540   88.7600 C.3   615  GLU615      0.1567
    186  C         72.0290   83.4830   89.0210 C.2   615  GLU615      0.2260
    187  O         72.8900   82.8750   88.3730 O.2   615  GLU615     -0.2867
    188  CB        70.7670   85.0910   87.5760 C.3   615  GLU615      0.0388
    189  CG        69.4710   84.3150   87.7040 C.3   615  GLU615      0.1160
    190  CD        68.4130   84.7970   86.7280 C.2   615  GLU615      0.3649
    191  OE1       68.6560   85.8210   86.0600 O.co2 615  GLU615     -0.2457
    192  OE2       67.3390   84.1630   86.6330 O.co2 615  GLU615     -0.2457
@<TRIPOS>BOND
     1    17    15   am
     2    15    16    2
     3    15    14    1
     4    14    11    1
     5    13    12    2
     6    12    11    1
     7    11    10    1
     8    10     3   am
     9    18    19    1
    10     3     4    2
    11     3     2    1
    12     1     2    1
    13     8     7    2
    14     5     2    1
    15     5     6    1
    16    19    22    1
    17    19    20    1
    18    24    26   ar
    19    24    23   ar
    20     7     6    1
    21     7     9   am
    22    33    32    1
    23    26    27   ar
    24    22    23    1
    25    23    25   ar
    26    28    20   am
    27    28    29    1
    28    20    21    2
    29    27    25   ar
    30   183   181   ar
    31    32    34    1
    32    32    29    1
    33    30    29    1
    34    30    31    2
    35   181   182   ar
    36   181   180    1
    37    35    36    1
    38   180   179    1
    39   191   190   ar
    40   175   176    1
    41   166   168   ar
    42   166   164   ar
    43   168   167   ar
    44   179   176    1
    45   192   190   ar
    46   190   189    1
    47    42    40   am
    48    36    39    1
    49    36    37    1
    50    40    41    2
    51    40    39    1
    52   176   177    1
    53   164   163   ar
    54    37    38    2
    55   188   189    1
    56   188   185    1
    57   167   165   ar
    58   177   178    2
    59   187   186    2
    60   184   185    1
    61   130   129    1
    62   163   165   ar
    63   163   162    1
    64   185   186    1
    65   129   126    1
    66   159   162    1
    67   159   158    1
    68   159   160    1
    69    54    55    2
    70    54    53    1
    71    61    60    1
    72    62    60    1
    73   149   148    1
    74    43    44    1
    75   126   125    1
    76   126   127    1
    77    60    59    2
    78   150   148    1
    79   161   160    2
    80   125   122   am
    81   120   121    1
    82    52    53    1
    83    53    56    1
    84   122   121    1
    85   122   123    2
    86   148   145    1
    87   121   124    1
    88   134   133    2
    89    57    56    1
    90    57    58    1
    91   147   146    2
    92    59    58    1
    93   127   131   am
    94   127   128    2
    95    44    45    1
    96    44    47    1
    97   145   146    1
    98   145   144    1
    99   131   132    1
   100    45    46    2
   101    47    48    1
   102   146   151   am
   103    73    71    1
   104   143   142    1
   105    48    49    1
   106    93    91   ar
   107   142   139    1
   108   133   132    1
   109   133   138   am
   110    72    71    1
   111    90    91    1
   112    90    87    1
   113   132   135    1
   114    91    92   ar
   115    50    49    2
   116   139   138    1
   117   139   140    1
   118    71    70    2
   119    49    51   am
   120   151   152    1
   121   151   157    1
   122   152   153    1
   123   152   155    1
   124    77    76    2
   125   136   135    1
   126   174   173    1
   127   154   153    2
   128    89    88    2
   129   169   170    1
   130   135   137    1
   131   157   156    1
   132    86    87    1
   133    86    80   am
   134    87    88    1
   135    70    69    1
   136   140   141    2
   137   156   155    1
   138    85    83    1
   139    76    75    1
   140    76    78   am
   141    88    94   am
   142   170   173    1
   143   170   171    1
   144    79    80    1
   145    79    78    1
   146    79    82    1
   147    69    68    1
   148    68    67    1
   149    80    81    2
   150    74    75    1
   151    74    65   am
   152    82    83    1
   153    83    84    1
   154    64    67    1
   155    64    65    1
   156    64    63    1
   157    94    95    1
   158   116   115    2
   159   171   172    2
   160    65    66    2
   161   101    99    1
   162    95    96    1
   163    95    98    1
   164    96    97    2
   165   115   114    1
   166    99    98    1
   167    99   100    1
   168   114   117    1
   169   114   113    1
   170   117   119    1
   171   117   118    1
   172   111   109   ar
   173   111   112   ar
   174   109   107   ar
   175   112   110   ar
   176   107   106    1
   177   107   108   ar
   178   106   103    1
   179   110   108   ar
   180   102   103    1
   181   103   104    1
   182   104   105    2
