@<TRIPOS>MOLECULE
tmp/5zq8B00.pdb
 188 185 0 0 0
SMALL
GASTEIGER

@<TRIPOS>ATOM
      1  N         10.1080   27.9050   76.2290 N.3   281  PHE281     -0.1227
      2  CA         9.8130   26.5920   76.7680 C.3   281  PHE281      0.1736
      3  C         10.4020   26.5130   78.1770 C.2   281  PHE281      0.2595
      4  O         11.4310   27.1010   78.4710 O.2   281  PHE281     -0.2718
      5  CB        10.3460   25.4790   75.8700 C.3   281  PHE281      0.0547
      6  CG        10.1550   24.0980   76.4360 C.ar  281  PHE281     -0.0202
      7  CD1       11.0740   23.5550   77.3190 C.ar  281  PHE281     -0.0042
      8  CD2        9.0400   23.3460   76.1020 C.ar  281  PHE281     -0.0042
      9  CE1       10.8800   22.2870   77.8500 C.ar  281  PHE281     -0.0003
     10  CE2        8.8470   22.0780   76.6280 C.ar  281  PHE281     -0.0003
     11  CZ         9.7680   21.5570   77.5090 C.ar  281  PHE281     -0.0000
     12  N          9.6580   25.8530   79.0570 N.am  282  TYR282     -0.1962
     13  CA        10.0740   25.4860   80.4000 C.3   282  TYR282      0.1771
     14  C          9.3710   24.1580   80.7290 C.2   282  TYR282      0.2619
     15  O          8.1860   24.0120   80.4440 O.2   282  TYR282     -0.2715
     16  CB         9.6800   26.6050   81.3590 C.3   282  TYR282      0.0574
     17  CG        10.0600   26.4020   82.7980 C.ar  282  TYR282     -0.0198
     18  CD1       11.3830   26.2600   83.1580 C.ar  282  TYR282     -0.0009
     19  CD2        9.1130   26.4110   83.8080 C.ar  282  TYR282     -0.0009
     20  CE1       11.7600   26.1160   84.4790 C.ar  282  TYR282      0.0417
     21  CE2        9.4780   26.2690   85.1380 C.ar  282  TYR282      0.0417
     22  CZ        10.8110   26.1240   85.4730 C.ar  282  TYR282      0.1957
     23  OH        11.2270   25.9940   86.7710 O.3   282  TYR282     -0.2866
     24  N         10.0840   23.1780   81.2860 N.am  283  GLN283     -0.1977
     25  CA         9.4560   21.8590   81.4880 C.3   283  GLN283      0.1601
     26  C          8.2320   22.0630   82.3830 C.2   283  GLN283      0.2287
     27  O          8.2780   22.8250   83.3660 O.2   283  GLN283     -0.2864
     28  CB        10.4400   20.8330   82.0580 C.3   283  GLN283      0.0394
     29  CG        11.6670   20.5900   81.1710 C.3   283  GLN283      0.0908
     30  CD        11.5000   19.4730   80.1660 C.2   283  GLN283      0.2608
     31  OE1       10.3920   18.9960   79.8980 O.2   283  GLN283     -0.2717
     32  NE2       12.6150   19.0280   79.6060 N.am  283  GLN283     -0.0878
     33  N         16.9920   15.8470   84.5580 N.3   293  TYR293     -0.1241
     34  CA        18.2460   16.6030   84.3420 C.3   293  TYR293      0.1605
     35  C         19.4070   15.9390   85.0930 C.2   293  TYR293      0.2264
     36  O         20.4590   15.7160   84.4980 O.2   293  TYR293     -0.2867
     37  CB        18.0880   18.0640   84.7720 C.3   293  TYR293      0.0534
     38  CG        17.3390   18.9450   83.8030 C.ar  293  TYR293     -0.0201
     39  CD1       16.6110   18.4250   82.7440 C.ar  293  TYR293     -0.0009
     40  CD2       17.3260   20.3190   83.9710 C.ar  293  TYR293     -0.0009
     41  CE1       15.9040   19.2390   81.8740 C.ar  293  TYR293      0.0417
     42  CE2       16.6270   21.1520   83.1080 C.ar  293  TYR293      0.0417
     43  CZ        15.9070   20.6090   82.0610 C.ar  293  TYR293      0.1957
     44  OH        15.2380   21.4210   81.2050 O.3   293  TYR293     -0.2866
     45  N         19.7480   23.1940   71.4570 N.3   312  TYR312     -0.1227
     46  CA        18.2880   23.3660   71.7640 C.3   312  TYR312      0.1736
     47  C         18.1330   23.7760   73.2370 C.2   312  TYR312      0.2596
     48  O         17.3850   23.1580   73.9870 O.2   312  TYR312     -0.2718
     49  CB        17.4920   22.0800   71.4610 C.3   312  TYR312      0.0548
     50  CG        17.6350   21.5680   70.0450 C.ar  312  TYR312     -0.0200
     51  CD1       18.7520   20.8460   69.6490 C.ar  312  TYR312     -0.0009
     52  CD2       16.6560   21.8000   69.0910 C.ar  312  TYR312     -0.0009
     53  CE1       18.9130   20.4030   68.3440 C.ar  312  TYR312      0.0417
     54  CE2       16.7970   21.3540   67.7810 C.ar  312  TYR312      0.0417
     55  CZ        17.9300   20.6520   67.4040 C.ar  312  TYR312      0.1957
     56  OH        18.0850   20.2040   66.1240 O.3   312  TYR312     -0.2866
     57  N         18.8460   24.8380   73.6320 N.am  313  SER313     -0.1938
     58  CA        19.1490   25.1330   75.0430 C.3   313  SER313      0.2055
     59  C         17.9730   25.8280   75.7450 C.2   313  SER313      0.2644
     60  O         17.8370   25.7470   76.9750 O.2   313  SER313     -0.2714
     61  CB        20.4300   25.9350   75.1560 C.3   313  SER313      0.2130
     62  OG        20.5360   26.9030   74.1260 O.3   313  SER313     -0.2179
     63  N         17.1260   26.5060   74.9640 N.am  314  GLY314     -0.1939
     64  CA        15.9900   27.2430   75.4980 C.3   314  GLY314      0.2014
     65  C         16.4430   28.4410   76.3140 C.2   314  GLY314      0.2638
     66  O         17.1560   29.3070   75.8090 O.2   314  GLY314     -0.2714
     67  N         16.0390   28.4570   77.5880 N.am  315  ILE315     -0.1977
     68  CA        16.4520   29.4630   78.5370 C.3   315  ILE315      0.1596
     69  C         17.7040   28.9830   79.2870 C.2   315  ILE315      0.2287
     70  O         18.1000   29.6010   80.2780 O.2   315  ILE315     -0.2864
     71  CB        15.3050   29.7960   79.5130 C.3   315  ILE315      0.0276
     72  CG1       14.9600   28.6150   80.4230 C.3   315  ILE315      0.0022
     73  CG2       14.0900   30.2990   78.7570 C.3   315  ILE315      0.0022
     74  CD1       14.6250   29.0230   81.8320 C.3   315  ILE315      0.0001
     75  N         18.4200   25.8530   80.8450 N.3   317  THR317     -0.1203
     76  CA        18.2110   25.1560   82.1130 C.3   317  THR317      0.1994
     77  C         19.2130   24.0020   82.2790 C.2   317  THR317      0.2617
     78  O         19.6420   23.7080   83.4000 O.2   317  THR317     -0.2717
     79  CB        16.7640   24.6780   82.2430 C.3   317  THR317      0.1784
     80  OG1       16.3660   24.2330   80.9510 O.3   317  THR317     -0.2211
     81  CG2       15.8320   25.7570   82.7440 C.3   317  THR317      0.0376
     82  N         19.5660   23.3450   81.1700 N.am  318  ILE318     -0.1979
     83  CA        20.5400   22.2500   81.2090 C.3   318  ILE318      0.1595
     84  C         21.9580   22.8520   81.3090 C.2   318  ILE318      0.2287
     85  O         22.6050   22.7910   82.3520 O.2   318  ILE318     -0.2864
     86  CB        20.3400   21.3020   80.0060 C.3   318  ILE318      0.0276
     87  CG1       18.9840   20.5960   80.0830 C.3   318  ILE318      0.0022
     88  CG2       21.4630   20.2840   79.9130 C.3   318  ILE318      0.0022
     89  CD1       18.2600   20.4790   78.7660 C.3   318  ILE318      0.0001
     90  N         23.1790   26.7760   71.8780 N.3   332  VAL332     -0.1231
     91  CA        22.4900   27.3310   70.6920 C.3   332  VAL332      0.1692
     92  C         20.9880   27.3190   70.9870 C.2   332  VAL332      0.2592
     93  O         20.5040   26.3410   71.5580 O.2   332  VAL332     -0.2718
     94  CB        22.7660   26.5320   69.4010 C.3   332  VAL332      0.0266
     95  CG1       22.7910   27.4190   68.1680 C.3   332  VAL332      0.0020
     96  CG2       24.0410   25.7150   69.4670 C.3   332  VAL332      0.0020
     97  N         20.2760   28.3870   70.5840 N.am  333  GLU333     -0.1966
     98  CA        18.8090   28.4890   70.7070 C.3   333  GLU333      0.1733
     99  C         18.2100   28.9990   69.3880 C.2   333  GLU333      0.2616
    100  O         18.9370   29.5280   68.5360 O.2   333  GLU333     -0.2715
    101  CB        18.4270   29.4200   71.8570 C.3   333  GLU333      0.0429
    102  CG        16.9630   29.6170   72.1490 C.3   333  GLU333      0.1163
    103  CD        16.0800   28.4360   72.3500 C.2   333  GLU333      0.3649
    104  OE1       16.4450   27.3090   72.6120 O.co2 333  GLU333     -0.2457
    105  OE2       14.8550   28.7190   72.2280 O.co2 333  GLU333     -0.2457
    106  N         16.8860   28.8350   69.2340 N.am  334  LEU334     -0.1963
    107  CA        16.1400   29.3120   68.0390 C.3   334  LEU334      0.1728
    108  C         15.6300   30.7530   68.2470 C.2   334  LEU334      0.2616
    109  O         15.9140   31.6310   67.4380 O.2   334  LEU334     -0.2715
    110  CB        14.9760   28.3550   67.7530 C.3   334  LEU334      0.0311
    111  CG        15.3490   26.9710   67.2220 C.3   334  LEU334      0.0022
    112  CD1       14.0950   26.1320   67.1410 C.3   334  LEU334      0.0001
    113  CD2       15.9860   27.0420   65.8580 C.3   334  LEU334      0.0001
    114  N         14.8900   30.9850   69.3420 N.am  335  ILE335     -0.1977
    115  CA        14.1530   32.2300   69.5950 C.3   335  ILE335      0.1596
    116  C         14.9560   33.1500   70.5230 C.2   335  ILE335      0.2287
    117  O         15.3420   32.7670   71.6300 O.2   335  ILE335     -0.2864
    118  CB        12.7500   31.9100   70.1540 C.3   335  ILE335      0.0276
    119  CG1       11.9020   31.2890   69.0250 C.3   335  ILE335      0.0022
    120  CG2       12.1010   33.1370   70.7470 C.3   335  ILE335      0.0022
    121  CD1       10.6080   30.6850   69.4950 C.3   335  ILE335      0.0001
    122  N         20.7070   30.9970   66.7820 N.3   359  ASP359     -0.1225
    123  CA        20.9270   30.3060   65.5260 C.3   359  ASP359      0.1805
    124  C         20.0810   29.0280   65.4800 C.2   359  ASP359      0.2598
    125  O         19.3240   28.7160   66.4100 O.2   359  ASP359     -0.2718
    126  CB        22.4020   29.9300   65.3390 C.3   359  ASP359      0.1424
    127  CG        22.8810   30.0240   63.9050 C.2   359  ASP359      0.3668
    128  OD1       22.0210   30.0090   63.0050 O.co2 359  ASP359     -0.2456
    129  OD2       24.1120   30.1200   63.7000 O.co2 359  ASP359     -0.2456
    130  N         20.2150   28.3200   64.3540 N.am  360  THR360     -0.1939
    131  CA        19.9170   26.9070   64.2350 C.3   360  THR360      0.2028
    132  C         21.1320   26.1180   64.7450 C.2   360  THR360      0.2642
    133  O         22.2810   26.5440   64.5940 O.2   360  THR360     -0.2714
    134  CB        19.5770   26.5400   62.7820 C.3   360  THR360      0.1808
    135  OG1       20.7410   26.7290   61.9730 O.3   360  THR360     -0.2208
    136  CG2       18.4330   27.3530   62.2180 C.3   360  THR360      0.0379
    137  N         20.8650   24.9410   65.3130 N.am  361  ALA361     -0.1963
    138  CA        21.8850   24.1380   65.9860 C.3   361  ALA361      0.1728
    139  C         23.0040   23.7500   65.0080 C.2   361  ALA361      0.2616
    140  O         24.1430   23.6010   65.4230 O.2   361  ALA361     -0.2715
    141  CB        21.2390   22.9320   66.6240 C.3   361  ALA361      0.0334
    142  N         22.6840   23.6300   63.7150 N.am  362  GLU362     -0.1977
    143  CA        23.6410   23.1610   62.6930 C.3   362  GLU362      0.1602
    144  C         24.7610   24.1860   62.4710 C.2   362  GLU362      0.2287
    145  O         25.9370   23.8170   62.3760 O.2   362  GLU362     -0.2864
    146  CB        22.9310   22.9170   61.3620 C.3   362  GLU362      0.0415
    147  CG        21.7970   21.9190   61.4600 C.3   362  GLU362      0.1163
    148  CD        20.5340   22.3380   60.7300 C.2   362  GLU362      0.3649
    149  OE1       20.0570   23.4610   60.9820 O.co2 362  GLU362     -0.2457
    150  OE2       20.0300   21.5410   59.9140 O.co2 362  GLU362     -0.2457
    151  N         18.1410   18.3790   73.7150 N.3   381  ASP381     -0.1225
    152  CA        16.7910   18.2110   74.2060 C.3   381  ASP381      0.1790
    153  C         15.8530   18.7610   73.1480 C.2   381  ASP381      0.2440
    154  O         15.3730   19.8740   73.2690 O.2   381  ASP381     -0.2733
    155  CB        16.5930   18.9120   75.5530 C.3   381  ASP381      0.1423
    156  CG        15.2430   18.6690   76.2200 C.2   381  ASP381      0.3668
    157  OD1       14.4500   17.8610   75.6950 O.co2 381  ASP381     -0.2456
    158  OD2       14.9950   19.2960   77.2650 O.co2 381  ASP381     -0.2456
    159  N         15.5560   18.0080   72.0760 N.am  382  PRO382     -0.2718
    160  CA        14.8180   18.5660   70.9550 C.3   382  PRO382      0.1520
    161  C         13.3260   18.5390   71.2790 C.2   382  PRO382      0.2440
    162  O         12.9220   17.8580   72.2230 O.2   382  PRO382     -0.2731
    163  CB        15.1800   17.6410   69.7860 C.3   382  PRO382      0.0310
    164  CG        15.7060   16.3590   70.4170 C.3   382  PRO382      0.0237
    165  CD        15.7990   16.5760   71.9140 C.3   382  PRO382      0.0939
    166  N         12.4740   19.2620   70.5060 N.am  383  PRO383     -0.2727
    167  CA        11.0210   19.1160   70.5970 C.3   383  PRO383      0.1402
    168  C         10.6020   17.7670   69.9790 C.2   383  PRO383      0.2269
    169  O         11.4650   16.9670   69.6010 O.2   383  PRO383     -0.2865
    170  CB        10.5010   20.3230   69.8050 C.3   383  PRO383      0.0296
    171  CG        11.5660   20.5400   68.7500 C.3   383  PRO383      0.0237
    172  CD        12.8700   20.2160   69.4560 C.3   383  PRO383      0.0939
    173  N          9.5530   16.5760   67.2650 N.3   385  LYS385     -0.1245
    174  CA         9.9390   16.1220   65.9220 C.3   385  LYS385      0.1561
    175  C         11.3780   15.5700   65.8800 C.2   385  LYS385      0.2260
    176  O         11.8050   15.0730   64.8400 O.2   385  LYS385     -0.2867
    177  CB         9.7810   17.2660   64.9220 C.3   385  LYS385      0.0271
    178  CG        10.7640   18.4180   65.0620 C.3   385  LYS385      0.0035
    179  CD        10.1300   19.7030   64.6010 C.3   385  LYS385      0.0206
    180  CE        11.1220   20.7820   64.2580 C.3   385  LYS385      0.1093
    181  NZ        10.4440   21.8740   63.5300 N.3   385  LYS385     -0.1314
    182  N         17.3620   16.7980   63.1030 N.3   388  THR388     -0.1218
    183  CA        17.5140   16.6770   61.6430 C.3   388  THR388      0.1862
    184  C         18.7920   15.8810   61.3420 C.2   388  THR388      0.2287
    185  O         19.7350   15.8880   62.1290 O.2   388  THR388     -0.2866
    186  CB        17.5480   18.0590   60.9730 C.3   388  THR388      0.1770
    187  OG1       18.6500   18.7830   61.4980 O.3   388  THR388     -0.2211
    188  CG2       16.2560   18.8250   61.1830 C.3   388  THR388      0.0375
@<TRIPOS>BOND
     1   150   148   ar
     2   148   149   ar
     3   148   147    1
     4   186   188    1
     5   186   187    1
     6   186   183    1
     7   184   183    1
     8   184   185    2
     9   146   147    1
    10   146   143    1
    11   183   182    1
    12   135   134    1
    13   136   134    1
    14   145   144    2
    15   144   143    1
    16   143   142    1
    17   134   131    1
    18   128   127   ar
    19   181   180    1
    20   129   127   ar
    21   142   139   am
    22   127   126    1
    23   131   130    1
    24   131   132    1
    25   180   179    1
    26   130   124   am
    27   133   132    2
    28   179   178    1
    29   132   137   am
    30   176   175    2
    31   177   178    1
    32   177   174    1
    33   139   140    2
    34   139   138    1
    35   137   138    1
    36   126   123    1
    37   124   123    1
    38   124   125    2
    39   123   122    1
    40   113   111    1
    41   175   174    1
    42   174   173    1
    43   138   141    1
    44    56    55    1
    45   112   111    1
    46   111   110    1
    47    55    54   ar
    48    55    53   ar
    49   109   108    2
    50   110   107    1
    51    54    52   ar
    52   107   108    1
    53   107   106    1
    54    95    94    1
    55   108   114   am
    56    53    51   ar
    57   100    99    2
    58   171   172    1
    59   171   170    1
    60   119   121    1
    61   119   118    1
    62    52    50   ar
    63   106    99   am
    64   114   115    1
    65    99    98    1
    66    94    96    1
    67    94    91    1
    68   172   166    1
    69   115   118    1
    70   115   116    1
    71   169   168    2
    72    51    50   ar
    73   163   164    1
    74   163   160    1
    75   170   167    1
    76   168   167    1
    77    50    49    1
    78   118   120    1
    79   164   165    1
    80   166   167    1
    81   166   161   am
    82   116   117    2
    83    97    98    1
    84    97    92   am
    85    91    92    1
    86    91    90    1
    87    98   101    1
    88   160   161    1
    89   160   159    1
    90    92    93    2
    91   161   162    2
    92    45    46    1
    93    49    46    1
    94    46    47    1
    95   101   102    1
    96   165   159    1
    97   159   153   am
    98   102   103    1
    99   105   103   ar
   100   103   104   ar
   101   153   154    2
   102   153   152    1
   103    47    57   am
   104    47    48    2
   105    57    58    1
   106   151   152    1
   107    62    61    1
   108   152   155    1
   109    63    64    1
   110    63    59   am
   111    58    61    1
   112    58    59    1
   113    64    65    1
   114   155   156    1
   115   157   156   ar
   116    59    60    2
   117    66    65    2
   118     5     6    1
   119     5     2    1
   120     8     6   ar
   121     8    10   ar
   122   156   158   ar
   123     1     2    1
   124    65    67   am
   125     6     7   ar
   126    10    11   ar
   127     2     3    1
   128     7     9   ar
   129    11     9   ar
   130    67    68    1
   131     3     4    2
   132     3    12   am
   133    68    69    1
   134    68    71    1
   135    73    71    1
   136    89    87    1
   137    12    13    1
   138    69    70    2
   139    71    72    1
   140    32    30   am
   141    31    30    2
   142    88    86    1
   143    86    87    1
   144    86    83    1
   145    30    29    1
   146    13    14    1
   147    13    16    1
   148    72    74    1
   149    15    14    2
   150    14    24   am
   151    75    76    1
   152    80    79    1
   153    82    83    1
   154    82    77   am
   155    29    28    1
   156    44    43    1
   157    83    84    1
   158    24    25    1
   159    84    85    2
   160    16    17    1
   161    25    28    1
   162    25    26    1
   163    41    43   ar
   164    41    39   ar
   165    43    42   ar
   166    76    79    1
   167    76    77    1
   168    79    81    1
   169    77    78    2
   170    26    27    2
   171    39    38   ar
   172    17    18   ar
   173    17    19   ar
   174    42    40   ar
   175    18    20   ar
   176    38    40   ar
   177    38    37    1
   178    19    21   ar
   179    34    33    1
   180    34    37    1
   181    34    35    1
   182    20    22   ar
   183    36    35    2
   184    21    22   ar
   185    22    23    1
