@<TRIPOS>MOLECULE
tmp/5zqcC00.pdb
 110 103 0 0 0
SMALL
GASTEIGER

@<TRIPOS>ATOM
      1  N        346.3760    7.6440   97.2620 N.3    34  ALA34      -0.1231
      2  CA       346.5120    9.0840   96.9350 C.3    34  ALA34       0.1694
      3  C        345.3260    9.5370   96.0850 C.2    34  ALA34       0.2592
      4  O        344.1730    9.2950   96.4740 O.2    34  ALA34      -0.2718
      5  CB       347.8810    9.3140   96.3080 C.3    34  ALA34       0.0304
      6  N        345.5490   10.1520   94.9150 N.am   35  SER35      -0.1952
      7  CA       344.5000   10.8230   94.1540 C.3    35  SER35       0.1924
      8  C        343.4400    9.8880   93.6010 C.2    35  SER35       0.2314
      9  O        342.4010   10.3780   93.1410 O.2    35  SER35      -0.2863
     10  CB       345.1040   11.6040   92.9930 C.3    35  SER35       0.2116
     11  OG       345.7080   12.7870   93.4660 O.3    35  SER35      -0.2180
     12  N        351.0860   21.1490   95.8190 N.3    67  ALA67      -0.1231
     13  CA       350.0380   20.3100   95.2510 C.3    67  ALA67       0.1694
     14  C        349.5170   20.8950   93.9400 C.2    67  ALA67       0.2591
     15  O        349.4880   22.1140   93.7600 O.2    67  ALA67      -0.2718
     16  CB       348.8960   20.1390   96.2470 C.3    67  ALA67       0.0304
     17  N        349.1090   20.0160   93.0240 N.am   68  VAL68      -0.1980
     18  CA       348.5210   20.4570   91.7640 C.3    68  VAL68       0.1595
     19  C        347.1480   21.0570   92.0430 C.2    68  VAL68       0.2287
     20  O        346.3250   20.4540   92.7450 O.2    68  VAL68      -0.2864
     21  CB       348.4460   19.2820   90.7780 C.3    68  VAL68       0.0276
     22  CG1      347.6920   19.6770   89.5270 C.3    68  VAL68       0.0022
     23  CG2      349.8540   18.7960   90.4340 C.3    68  VAL68       0.0022
     24  N        342.5260   17.0100   85.4290 N.3    91  MET91      -0.1230
     25  CA       343.8800   17.4160   85.7970 C.3    91  MET91       0.1702
     26  C        344.2630   16.9950   87.2110 C.2    91  MET91       0.2593
     27  O        345.4110   17.2030   87.6130 O.2    91  MET91      -0.2718
     28  CB       344.0370   18.9380   85.6590 C.3    91  MET91       0.0401
     29  CG       343.1900   19.7420   86.6470 C.3    91  MET91       0.0596
     30  SD       343.6130   21.5000   86.7190 S.3    91  MET91      -0.1393
     31  CE       344.9730   21.4680   87.8770 C.3    91  MET91       0.0692
     32  N        343.3320   16.4100   87.9660 N.am   92  SER92      -0.1952
     33  CA       343.5800   15.9470   89.3340 C.3    92  SER92       0.1924
     34  C        343.9340   17.0970   90.2780 C.2    92  SER92       0.2314
     35  O        344.8730   17.0200   91.0600 O.2    92  SER92      -0.2863
     36  CB       344.6570   14.8610   89.3630 C.3    92  SER92       0.2116
     37  OG       344.4820   14.0290   90.4870 O.3    92  SER92      -0.2180
     38  N        343.8250   19.0530   93.4700 N.3    94  ASN94      -0.1240
     39  CA       343.5170   18.7570   94.8680 C.3    94  ASN94       0.1653
     40  C        342.5770   19.7860   95.4890 C.2    94  ASN94       0.2266
     41  O        341.7150   19.4210   96.3000 O.2    94  ASN94      -0.2867
     42  CB       344.7910   18.6740   95.6810 C.3    94  ASN94       0.1155
     43  CG       345.6760   17.5280   95.2460 C.2    94  ASN94       0.2627
     44  OD1      345.2070   16.4100   95.0860 O.2    94  ASN94      -0.2716
     45  ND2      346.9550   17.8050   95.0360 N.am   94  ASN94      -0.0877
     46  N        340.5230   14.5850   98.3170 N.3   132  SER132     -0.1202
     47  CA       341.5910   14.5820   97.3270 C.3   132  SER132      0.2020
     48  C        342.4980   13.3720   97.4420 C.2   132  SER132      0.2619
     49  O        343.1420   12.9910   96.4580 O.2   132  SER132     -0.2717
     50  CB       342.4610   15.8280   97.4730 C.3   132  SER132      0.2103
     51  OG       343.0650   15.8670   98.7580 O.3   132  SER132     -0.2182
     52  N        342.5840   12.7790   98.6230 N.am  133  GLY133     -0.1942
     53  CA       343.5710   11.7550   98.8680 C.3   133  GLY133      0.2014
     54  C        344.8560   12.2700   99.4720 C.2   133  GLY133      0.2638
     55  O        345.7950   11.4810   99.6640 O.2   133  GLY133     -0.2714
     56  N        344.9370   13.5670   99.7450 N.am  134  LEU134     -0.1977
     57  CA       346.0230   14.0950  100.5540 C.3   134  LEU134      0.1596
     58  C        345.9670   13.4840  101.9470 C.2   134  LEU134      0.2287
     59  O        344.8880   13.1830  102.4690 O.2   134  LEU134     -0.2864
     60  CB       345.9270   15.6180  100.6470 C.3   134  LEU134      0.0297
     61  CG       346.2640   16.3850   99.3720 C.3   134  LEU134      0.0022
     62  CD1      345.6810   17.7910   99.4240 C.3   134  LEU134      0.0001
     63  CD2      347.7720   16.4280   99.1810 C.3   134  LEU134      0.0001
     64  N        345.3050   13.8930   82.4690 N.3   182  THR182     -0.1218
     65  CA       346.5200   13.2010   82.8710 C.3   182  THR182      0.1862
     66  C        346.5750   11.7910   82.3090 C.2   182  THR182      0.2287
     67  O        347.6350   11.1530   82.3690 O.2   182  THR182     -0.2866
     68  CB       346.6340   13.1490   84.4040 C.3   182  THR182      0.1770
     69  OG1      345.4640   12.5410   84.9580 O.3   182  THR182     -0.2211
     70  CG2      346.8200   14.5470   85.0030 C.3   182  THR182      0.0375
     71  N        344.4090    8.8030   87.2380 N.3   197  THR197     -0.1203
     72  CA       345.8070    8.7100   87.6250 C.3   197  THR197      0.1994
     73  C        346.0160    9.0900   89.0920 C.2   197  THR197      0.2618
     74  O        345.1570    9.6860   89.7450 O.2   197  THR197     -0.2717
     75  CB       346.6730    9.6140   86.7580 C.3   197  THR197      0.1784
     76  OG1      346.2130   10.9690   86.8880 O.3   197  THR197     -0.2211
     77  CG2      346.5970    9.1990   85.3040 C.3   197  THR197      0.0376
     78  N        347.2100    8.7790   89.5870 N.am  198  GLY198     -0.1942
     79  CA       347.6220    9.1670   90.9240 C.3   198  GLY198      0.2014
     80  C        349.1270    9.0600   91.0510 C.2   198  GLY198      0.2639
     81  O        349.7790    8.3440   90.2940 O.2   198  GLY198     -0.2714
     82  N        349.6710    9.7990   92.0170 N.am  199  PHE199     -0.1959
     83  CA       351.1000    9.8030   92.3100 C.3   199  PHE199      0.1771
     84  C        351.3970   10.5150   93.6220 C.2   199  PHE199      0.2620
     85  O        350.9460   11.6440   93.8360 O.2   199  PHE199     -0.2715
     86  CB       351.9190   10.4780   91.2000 C.3   199  PHE199      0.0574
     87  CG       353.3530   10.7530   91.6130 C.ar  199  PHE199     -0.0200
     88  CD1      354.2160    9.7020   91.8980 C.ar  199  PHE199     -0.0042
     89  CD2      353.8200   12.0500   91.7660 C.ar  199  PHE199     -0.0042
     90  CE1      355.5100    9.9320   92.3030 C.ar  199  PHE199     -0.0003
     91  CE2      355.1200   12.2920   92.1740 C.ar  199  PHE199     -0.0003
     92  CZ       355.9690   11.2350   92.4380 C.ar  199  PHE199     -0.0000
     93  N        352.1170    9.8420   94.5200 N.am  200  THR200     -0.1951
     94  CA       352.8980   10.4860   95.5640 C.3   200  THR200      0.1897
     95  C        354.2040    9.7140   95.6550 C.2   200  THR200      0.2313
     96  O        354.3600    8.6660   95.0240 O.2   200  THR200     -0.2863
     97  CB       352.2040   10.5070   96.9310 C.3   200  THR200      0.1794
     98  OG1      352.0080    9.1620   97.3860 O.3   200  THR200     -0.2208
     99  CG2      350.8690   11.2480   96.8700 C.3   200  THR200      0.0378
    100  N        353.5020    3.3800   84.4980 N.3   231  ARG231     -0.1245
    101  CA       352.1320    3.0250   84.8710 C.3   231  ARG231      0.1563
    102  C        351.2570    2.8160   83.6420 C.2   231  ARG231      0.2260
    103  O        350.3310    1.9980   83.6710 O.2   231  ARG231     -0.2867
    104  CB       351.5170    4.0930   85.7700 C.3   231  ARG231      0.0307
    105  CG       351.3880    5.4180   85.0950 C.3   231  ARG231      0.0489
    106  CD       350.8680    6.4380   86.0480 C.3   231  ARG231      0.2205
    107  NE       351.1990    7.7660   85.5750 N.pl3 231  ARG231     -0.0865
    108  CZ       350.8880    8.8720   86.2240 C.cat 231  ARG231      0.5346
    109  NH1      350.2430    8.7940   87.3870 N.pl3 231  ARG231      0.1354
    110  NH2      351.2470   10.0440   85.7130 N.pl3 231  ARG231      0.1354
@<TRIPOS>BOND
     1    66    67    2
     2    66    65    1
     3    64    65    1
     4    65    68    1
     5   102   103    2
     6   102   101    1
     7    68    69    1
     8    68    70    1
     9   100   101    1
    10   101   104    1
    11   105   104    1
    12   105   106    1
    13    77    75    1
    14    24    25    1
    15   107   106    1
    16   107   108    2
    17    28    25    1
    18    28    29    1
    19   110   108    1
    20    25    26    1
    21   108   109    1
    22    29    30    1
    23    30    31    1
    24    75    76    1
    25    75    72    1
    26    26    27    2
    27    26    32   am
    28    71    72    1
    29    72    73    1
    30    32    33    1
    31    73    78   am
    32    73    74    2
    33    33    36    1
    34    33    34    1
    35    36    37    1
    36    22    21    1
    37    78    79    1
    38    34    35    2
    39    81    80    2
    40    23    21    1
    41    21    18    1
    42    79    80    1
    43    80    82   am
    44    86    87    1
    45    86    83    1
    46    87    89   ar
    47    87    88   ar
    48    18    19    1
    49    18    17    1
    50    89    91   ar
    51    88    90   ar
    52    82    83    1
    53    19    20    2
    54    91    92   ar
    55    90    92   ar
    56    83    84    1
    57    10    11    1
    58    10     7    1
    59    17    14   am
    60     9     8    2
    61    38    39    1
    62     8     7    1
    63    84    85    2
    64    84    93   am
    65    15    14    2
    66    14    13    1
    67     7     6    1
    68    93    94    1
    69    39    40    1
    70    39    42    1
    71     6     3   am
    72    96    95    2
    73    45    43   am
    74    44    43    2
    75    43    42    1
    76    13    12    1
    77    13    16    1
    78    40    41    2
    79    94    95    1
    80    94    97    1
    81     3     4    2
    82     3     2    1
    83     5     2    1
    84    49    48    2
    85    99    97    1
    86    97    98    1
    87     2     1    1
    88    47    48    1
    89    47    50    1
    90    47    46    1
    91    48    52   am
    92    50    51    1
    93    52    53    1
    94    53    54    1
    95    63    61    1
    96    61    62    1
    97    61    60    1
    98    54    55    2
    99    54    56   am
   100    56    57    1
   101    57    60    1
   102    57    58    1
   103    58    59    2
