@<TRIPOS>MOLECULE
tmp/5zqdC00.pdb
 133 126 0 0 0
SMALL
GASTEIGER

@<TRIPOS>ATOM
      1  N        -20.1770   14.4500   59.7480 N.3    34  ALA34      -0.1231
      2  CA       -20.3610   13.0870   59.2120 C.3    34  ALA34       0.1694
      3  C        -19.1230   12.7050   58.4000 C.2    34  ALA34       0.2592
      4  O        -18.0070   12.8550   58.9120 O.2    34  ALA34      -0.2718
      5  CB       -21.6790   13.0250   58.4490 C.3    34  ALA34       0.0304
      6  N        -19.2760   12.2660   57.1460 N.am   35  SER35      -0.1952
      7  CA       -18.2170   11.6610   56.3480 C.3    35  SER35       0.1924
      8  C        -17.1140   12.6300   56.0000 C.2    35  SER35       0.2314
      9  O        -16.0480   12.1900   55.5560 O.2    35  SER35      -0.2863
     10  CB       -18.7830   11.0900   55.0480 C.3    35  SER35       0.2116
     11  OG       -19.4290    9.8470   55.2600 O.3    35  SER35      -0.2180
     12  N        -23.1180    1.6550   54.5690 N.3    71  VAL71      -0.1245
     13  CA       -22.4160    1.6520   53.2940 C.3    71  VAL71       0.1561
     14  C        -20.9820    1.2180   53.5380 C.2    71  VAL71       0.2260
     15  O        -20.2440    1.8370   54.3170 O.2    71  VAL71      -0.2867
     16  CB       -22.4890    3.0220   52.6160 C.3    71  VAL71       0.0252
     17  CG1      -21.4430    3.1130   51.4810 C.3    71  VAL71       0.0019
     18  CG2      -23.9090    3.2810   52.1030 C.3    71  VAL71       0.0019
     19  N        -16.2390    6.2680   47.3020 N.3    94  MET94      -0.1230
     20  CA       -17.5730    5.8250   47.6830 C.3    94  MET94       0.1702
     21  C        -17.9140    6.1520   49.1360 C.2    94  MET94       0.2593
     22  O        -19.0410    5.8830   49.5700 O.2    94  MET94      -0.2718
     23  CB       -17.7070    4.3150   47.4280 C.3    94  MET94       0.0401
     24  CG       -16.6480    3.4720   48.1400 C.3    94  MET94       0.0596
     25  SD       -17.0590    1.7270   48.1080 S.3    94  MET94      -0.1393
     26  CE       -18.6730    1.7410   48.8870 C.3    94  MET94       0.0692
     27  N        -16.9760    6.7320   49.8890 N.am   95  SER95      -0.1952
     28  CA       -17.1670    7.0360   51.3120 C.3    95  SER95       0.1924
     29  C        -17.4620    5.7650   52.1140 C.2    95  SER95       0.2314
     30  O        -18.4080    5.7040   52.8990 O.2    95  SER95      -0.2863
     31  CB       -18.2670    8.0860   51.5140 C.3    95  SER95       0.2116
     32  OG       -18.1030    8.7890   52.7430 O.3    95  SER95      -0.2180
     33  N        -17.4300    3.5140   55.0040 N.3    97  ASN97      -0.1240
     34  CA       -17.1880    3.6390   56.4410 C.3    97  ASN97       0.1653
     35  C        -16.2370    2.5630   56.9430 C.2    97  ASN97       0.2266
     36  O        -15.3890    2.8260   57.8050 O.2    97  ASN97      -0.2867
     37  CB       -18.5050    3.5730   57.2120 C.3    97  ASN97       0.1155
     38  CG       -19.4170    4.7290   56.8910 C.2    97  ASN97       0.2627
     39  OD1      -18.9630    5.8570   56.7200 O.2    97  ASN97      -0.2716
     40  ND2      -20.7070    4.4530   56.7780 N.am   97  ASN97      -0.0877
     41  N        -14.3620    7.5100   60.3630 N.3   135  SER135     -0.1202
     42  CA       -15.3760    7.5600   59.3190 C.3   135  SER135      0.2020
     43  C        -16.3850    8.6820   59.5080 C.2   135  SER135      0.2619
     44  O        -17.0970    9.0200   58.5560 O.2   135  SER135     -0.2717
     45  CB       -16.1300    6.2330   59.2660 C.3   135  SER135      0.2103
     46  OG       -16.8300    6.0180   60.4850 O.3   135  SER135     -0.2182
     47  N        -16.4530    9.2720   60.7010 N.am  136  GLY136     -0.1942
     48  CA       -17.4900   10.2190   61.0420 C.3   136  GLY136      0.2014
     49  C        -18.7300    9.5840   61.6240 C.2   136  GLY136      0.2639
     50  O        -19.6720   10.3080   61.9920 O.2   136  GLY136     -0.2714
     51  N        -18.7680    8.2570   61.7030 N.am  137  LEU137     -0.1963
     52  CA       -19.8410    7.5820   62.4110 C.3   137  LEU137      0.1728
     53  C        -19.8230    7.9650   63.8820 C.2   137  LEU137      0.2616
     54  O        -18.7570    8.1650   64.4730 O.2   137  LEU137     -0.2715
     55  CB       -19.7010    6.0740   62.2560 C.3   137  LEU137      0.0311
     56  CG       -20.0950    5.5620   60.8650 C.3   137  LEU137      0.0022
     57  CD1      -19.6660    4.1170   60.6740 C.3   137  LEU137      0.0001
     58  CD2      -21.5960    5.7220   60.6280 C.3   137  LEU137      0.0001
     59  N        -21.0160    8.0820   64.4660 N.am  138  ASP138     -0.1971
     60  CA       -21.1460    8.4140   65.8770 C.3   138  ASP138      0.1709
     61  C        -20.4370    7.3800   66.7360 C.2   138  ASP138      0.2293
     62  O        -20.3670    6.1970   66.3970 O.2   138  ASP138     -0.2864
     63  CB       -22.6180    8.4740   66.2870 C.3   138  ASP138      0.1436
     64  CG       -23.2740    9.7940   65.9470 C.2   138  ASP138      0.3671
     65  OD1      -22.7390   10.5330   65.0950 O.co2 138  ASP138     -0.2456
     66  OD2      -24.3390   10.0860   66.5410 O.co2 138  ASP138     -0.2456
     67  N        -18.8850    9.6770   44.8770 N.3   185  THR185     -0.1218
     68  CA       -20.1120   10.3470   45.2920 C.3   185  THR185      0.1862
     69  C        -20.1700   11.8030   44.8500 C.2   185  THR185      0.2287
     70  O        -21.2330   12.4250   44.9690 O.2   185  THR185     -0.2866
     71  CB       -20.2460   10.2960   46.8120 C.3   185  THR185      0.1770
     72  OG1      -19.0610   10.8660   47.3880 O.3   185  THR185     -0.2211
     73  CG2      -20.4140    8.8480   47.2900 C.3   185  THR185      0.0375
     74  N        -18.0060   14.3230   49.9520 N.3   200  THR200     -0.1203
     75  CA       -19.4010   14.4490   50.3500 C.3   200  THR200      0.1994
     76  C        -19.5900   14.0030   51.7950 C.2   200  THR200      0.2618
     77  O        -18.7050   13.4120   52.4130 O.2   200  THR200     -0.2717
     78  CB       -20.3070   13.6030   49.4490 C.3   200  THR200      0.1784
     79  OG1      -19.7650   12.2820   49.3520 O.3   200  THR200     -0.2211
     80  CG2      -20.4060   14.2030   48.0580 C.3   200  THR200      0.0376
     81  N        -20.7830   14.2670   52.3190 N.am  201  GLY201     -0.1942
     82  CA       -21.2310   13.6420   53.5490 C.3   201  GLY201      0.2014
     83  C        -22.7350   13.7220   53.6590 C.2   201  GLY201      0.2639
     84  O        -23.3760   14.5910   53.0580 O.2   201  GLY201     -0.2714
     85  N        -23.3010   12.7910   54.4260 N.am  202  PHE202     -0.1959
     86  CA       -24.7210   12.8540   54.7580 C.3   202  PHE202      0.1771
     87  C        -24.9940   12.0580   56.0190 C.2   202  PHE202      0.2620
     88  O        -24.4990   10.9370   56.1600 O.2   202  PHE202     -0.2715
     89  CB       -25.6150   12.3080   53.6390 C.3   202  PHE202      0.0574
     90  CG       -27.0440   12.0910   54.0780 C.ar  202  PHE202     -0.0200
     91  CD1      -27.9020   13.1670   54.2590 C.ar  202  PHE202     -0.0042
     92  CD2      -27.5190   10.8210   54.3480 C.ar  202  PHE202     -0.0042
     93  CE1      -29.2060   12.9790   54.6820 C.ar  202  PHE202     -0.0003
     94  CE2      -28.8300   10.6230   54.7670 C.ar  202  PHE202     -0.0003
     95  CZ       -29.6740   11.7070   54.9340 C.ar  202  PHE202     -0.0000
     96  N        -25.7910   12.6400   56.9210 N.am  203  THR203     -0.1937
     97  CA       -26.5750   11.9120   57.9130 C.3   203  THR203      0.2028
     98  C        -27.8980   12.6350   58.0710 C.2   203  THR203      0.2642
     99  O        -28.0300   13.8050   57.7080 O.2   203  THR203     -0.2714
    100  CB       -25.9320   11.8200   59.3110 C.3   203  THR203      0.1808
    101  OG1      -25.8510   13.1250   59.8930 O.3   203  THR203     -0.2208
    102  CG2      -24.5620   11.2150   59.2560 C.3   203  THR203      0.0379
    103  N        -28.8690   11.9340   58.6580 N.am  204  ASP204     -0.1971
    104  CA       -30.1320   12.5800   58.9940 C.3   204  ASP204      0.1709
    105  C        -29.8980   13.8570   59.7960 C.2   204  ASP204      0.2293
    106  O        -30.5690   14.8700   59.5710 O.2   204  ASP204     -0.2864
    107  CB       -31.0210   11.6070   59.7650 C.3   204  ASP204      0.1436
    108  CG       -32.3080   12.2500   60.2270 C.2   204  ASP204      0.3671
    109  OD1      -32.7060   12.0280   61.3920 O.co2 204  ASP204     -0.2456
    110  OD2      -32.9190   12.9870   59.4250 O.co2 204  ASP204     -0.2456
    111  N        -27.2850   17.0970   53.9320 N.3   208  TYR208     -0.1241
    112  CA       -26.3910   16.7820   52.8270 C.3   208  TYR208      0.1605
    113  C        -25.2640   17.8050   52.7570 C.2   208  TYR208      0.2264
    114  O        -25.5100   19.0150   52.7010 O.2   208  TYR208     -0.2867
    115  CB       -27.1560   16.7300   51.5070 C.3   208  TYR208      0.0534
    116  CG       -28.0520   15.5280   51.4270 C.ar  208  TYR208     -0.0201
    117  CD1      -27.5870   14.3190   50.9190 C.ar  208  TYR208     -0.0009
    118  CD2      -29.3550   15.5920   51.8940 C.ar  208  TYR208     -0.0009
    119  CE1      -28.4170   13.2160   50.8600 C.ar  208  TYR208      0.0417
    120  CE2      -30.1870   14.5060   51.8400 C.ar  208  TYR208      0.0417
    121  CZ       -29.7190   13.3260   51.3250 C.ar  208  TYR208      0.1957
    122  OH       -30.5710   12.2580   51.2970 O.3   208  TYR208     -0.2866
    123  N        -27.1330   20.0270   47.6060 N.3   234  ARG234     -0.1245
    124  CA       -25.7780   20.3610   48.0600 C.3   234  ARG234      0.1563
    125  C        -24.8670   20.6750   46.8810 C.2   234  ARG234      0.2260
    126  O        -23.8970   21.4340   47.0210 O.2   234  ARG234     -0.2867
    127  CB       -25.1760   19.2250   48.9020 C.3   234  ARG234      0.0307
    128  CG       -24.9430   17.9270   48.1300 C.3   234  ARG234      0.0489
    129  CD       -24.3720   16.8080   49.0010 C.3   234  ARG234      0.2205
    130  NE       -24.6380   15.5050   48.4020 N.pl3 234  ARG234     -0.0865
    131  CZ       -24.3880   14.3390   48.9820 C.cat 234  ARG234      0.5346
    132  NH1      -23.8590   14.2960   50.1940 N.pl3 234  ARG234      0.1354
    133  NH2      -24.6720   13.2120   48.3420 N.pl3 234  ARG234      0.1354
@<TRIPOS>BOND
     1    69    70    2
     2    69    68    1
     3    67    68    1
     4    68    71    1
     5    71    73    1
     6    71    72    1
     7   125   126    2
     8   125   124    1
     9    19    20    1
    10    23    20    1
    11    23    24    1
    12   123   124    1
    13    20    21    1
    14    80    78    1
    15   124   127    1
    16    25    24    1
    17    25    26    1
    18   128   127    1
    19   128   129    1
    20   133   131    1
    21   130   131    2
    22   130   129    1
    23   131   132    1
    24    21    22    2
    25    21    27   am
    26    79    78    1
    27    78    75    1
    28    27    28    1
    29    74    75    1
    30    75    76    1
    31   119   117   ar
    32   119   121   ar
    33   117   116   ar
    34   122   121    1
    35    28    31    1
    36    28    29    1
    37   121   120   ar
    38   116   115    1
    39   116   118   ar
    40    17    16    1
    41   115   112    1
    42    31    32    1
    43    76    81   am
    44    76    77    2
    45   120   118   ar
    46    18    16    1
    47    29    30    2
    48    81    82    1
    49    16    13    1
    50   114   113    2
    51   113   112    1
    52   112   111    1
    53    84    83    2
    54    13    14    1
    55    13    12    1
    56    14    15    2
    57    82    83    1
    58    89    90    1
    59    89    86    1
    60    83    85   am
    61    90    91   ar
    62    90    92   ar
    63    91    93   ar
    64    92    94   ar
    65    85    86    1
    66    93    95   ar
    67    86    87    1
    68    94    95   ar
    69    33    34    1
    70    10    11    1
    71    10     7    1
    72     9     8    2
    73     8     7    1
    74    87    88    2
    75    87    96   am
    76     7     6    1
    77    34    35    1
    78    34    37    1
    79    39    38    2
    80    40    38   am
    81    38    37    1
    82    96    97    1
    83    35    36    2
    84     6     3   am
    85    99    98    2
    86    97    98    1
    87    97   100    1
    88    98   103   am
    89     3     4    2
    90     3     2    1
    91     5     2    1
    92    44    43    2
    93   103   104    1
    94   104   107    1
    95   104   105    1
    96     2     1    1
    97   102   100    1
    98    45    42    1
    99    45    46    1
   100   100   101    1
   101    42    43    1
   102    42    41    1
   103   110   108   ar
   104    43    47   am
   105   106   105    2
   106   107   108    1
   107   108   109   ar
   108    58    56    1
   109    57    56    1
   110    47    48    1
   111    56    55    1
   112    48    49    1
   113    49    51   am
   114    49    50    2
   115    51    52    1
   116    55    52    1
   117    52    53    1
   118    53    59   am
   119    53    54    2
   120    59    60    1
   121    65    64   ar
   122    60    63    1
   123    60    61    1
   124    64    63    1
   125    64    66   ar
   126    62    61    2
