@<TRIPOS>MOLECULE
tmp/5zqeG00.pdb
 140 131 0 0 0
SMALL
GASTEIGER

@<TRIPOS>ATOM
      1  N        -47.4230   18.4410  -53.0900 N.3    34  ALA34      -0.1231
      2  CA       -47.5350   17.0320  -53.4630 C.3    34  ALA34       0.1694
      3  C        -46.3320   16.4950  -54.2390 C.2    34  ALA34       0.2592
      4  O        -45.1980   16.5390  -53.7540 O.2    34  ALA34      -0.2718
      5  CB       -48.8050   16.8190  -54.2810 C.3    34  ALA34       0.0304
      6  N        -46.5730   15.9880  -55.4510 N.am   35  SER35      -0.1952
      7  CA       -45.5420   15.2720  -56.2010 C.3    35  SER35       0.1924
      8  C        -44.4350   16.1850  -56.7030 C.2    35  SER35       0.2314
      9  O        -43.3750   15.6890  -57.1110 O.2    35  SER35      -0.2863
     10  CB       -46.1680   14.5410  -57.3890 C.3    35  SER35       0.2116
     11  OG       -46.5610   13.2300  -57.0450 O.3    35  SER35      -0.2180
     12  N        -50.7140    2.8720  -48.9870 N.3    67  ASP67      -0.1239
     13  CA       -51.9190    3.2580  -49.7010 C.3    67  ASP67       0.1674
     14  C        -52.0360    2.5220  -51.0310 C.2    67  ASP67       0.2266
     15  O        -51.0350    2.3370  -51.7310 O.2    67  ASP67      -0.2867
     16  CB       -51.9150    4.7660  -49.9560 C.3    67  ASP67       0.1410
     17  CG       -53.3080    5.3370  -50.1010 C.2    67  ASP67       0.3668
     18  OD1      -54.0860    4.8150  -50.9310 O.co2  67  ASP67      -0.2456
     19  OD2      -53.6260    6.3090  -49.3810 O.co2  67  ASP67      -0.2456
     20  N        -54.3810    3.7660  -53.2580 N.3    69  SER69      -0.1202
     21  CA       -54.6610    4.9400  -54.0910 C.3    69  SER69       0.2020
     22  C        -53.3850    5.7170  -54.4940 C.2    69  SER69       0.2619
     23  O        -53.4870    6.7900  -55.1230 O.2    69  SER69      -0.2717
     24  CB       -55.6340    5.8750  -53.3720 C.3    69  SER69       0.2103
     25  OG       -55.4610    7.2170  -53.7990 O.3    69  SER69      -0.2182
     26  N        -52.1900    5.2370  -54.1580 N.am   70  ALA70      -0.1965
     27  CA       -50.9510    5.8880  -54.5560 C.3    70  ALA70       0.1728
     28  C        -50.4400    5.2350  -55.8290 C.2    70  ALA70       0.2616
     29  O        -50.3220    4.0070  -55.8970 O.2    70  ALA70      -0.2715
     30  CB       -49.8970    5.8040  -53.4510 C.3    70  ALA70       0.0334
     31  N        -50.1700    6.0580  -56.8440 N.am   71  VAL71      -0.1977
     32  CA       -49.5800    5.5440  -58.0690 C.3    71  VAL71       0.1596
     33  C        -48.2180    4.9460  -57.7530 C.2    71  VAL71       0.2287
     34  O        -47.4340    5.5040  -56.9730 O.2    71  VAL71      -0.2864
     35  CB       -49.4930    6.6610  -59.1190 C.3    71  VAL71       0.0276
     36  CG1      -48.4870    6.3120  -60.2040 C.3    71  VAL71       0.0022
     37  CG2      -50.8800    6.9160  -59.7210 C.3    71  VAL71       0.0022
     38  N        -43.5530    9.0650  -64.7280 N.3    94  MET94      -0.1230
     39  CA       -44.8860    8.6410  -64.3210 C.3    94  MET94       0.1702
     40  C        -45.2340    9.0190  -62.8860 C.2    94  MET94       0.2593
     41  O        -46.3330    8.6910  -62.4270 O.2    94  MET94      -0.2718
     42  CB       -45.0150    7.1280  -64.4870 C.3    94  MET94       0.0401
     43  CG       -44.1060    6.3660  -63.5390 C.3    94  MET94       0.0596
     44  SD       -44.4310    4.6150  -63.5030 S.3    94  MET94      -0.1393
     45  CE       -45.9530    4.5690  -62.5760 C.3    94  MET94       0.0692
     46  N        -44.3230    9.6770  -62.1670 N.am   95  SER95      -0.1952
     47  CA       -44.5530   10.1090  -60.7880 C.3    95  SER95       0.1924
     48  C        -44.8360    8.9220  -59.8610 C.2    95  SER95       0.2314
     49  O        -45.7780    8.9330  -59.0700 O.2    95  SER95      -0.2863
     50  CB       -45.6810   11.1370  -60.7300 C.3    95  SER95       0.2116
     51  OG       -45.6130   11.9240  -59.5610 O.3    95  SER95      -0.2180
     52  N        -44.6990    6.9630  -56.7250 N.3    97  ASN97      -0.1240
     53  CA       -44.4050    7.3160  -55.3350 C.3    97  ASN97       0.1653
     54  C        -43.5190    6.2890  -54.6490 C.2    97  ASN97       0.2266
     55  O        -42.7740    6.6410  -53.7280 O.2    97  ASN97      -0.2867
     56  CB       -45.6880    7.4630  -54.5270 C.3    97  ASN97       0.1155
     57  CG       -46.5610    8.5520  -55.0360 C.2    97  ASN97       0.2627
     58  OD1      -46.1730    9.7070  -55.0390 O.2    97  ASN97      -0.2716
     59  ND2      -47.7540    8.1940  -55.4850 N.am   97  ASN97      -0.0877
     60  N        -41.5530   11.4350  -51.8250 N.3   135  SER135     -0.1217
     61  CA       -42.5870   11.4050  -52.8540 C.3   135  SER135      0.1889
     62  C        -43.5490   12.5780  -52.7780 C.2   135  SER135      0.2288
     63  O        -44.2180   12.8790  -53.7730 O.2   135  SER135     -0.2866
     64  CB       -43.3930   10.1080  -52.7550 C.3   135  SER135      0.2089
     65  OG       -44.0810   10.0520  -51.5170 O.3   135  SER135     -0.2183
     66  N        -45.9760   12.4530  -50.4990 N.3   137  LEU137     -0.1245
     67  CA       -47.0960   11.9290  -49.7400 C.3   137  LEU137      0.1561
     68  C        -47.0530   12.4670  -48.3150 C.2   137  LEU137      0.2260
     69  O        -45.9820   12.7340  -47.7580 O.2   137  LEU137     -0.2867
     70  CB       -47.0760   10.4010  -49.7330 C.3   137  LEU137      0.0270
     71  CG       -47.1930    9.7140  -51.0940 C.3   137  LEU137      0.0019
     72  CD1      -46.7430    8.2760  -50.9780 C.3   137  LEU137      0.0001
     73  CD2      -48.6180    9.7950  -51.6550 C.3   137  LEU137      0.0001
     74  N        -46.3380   12.1560  -67.5200 N.3   185  THR185     -0.1218
     75  CA       -47.5630   12.8820  -67.2110 C.3   185  THR185      0.1862
     76  C        -47.5530   14.2940  -67.7720 C.2   185  THR185      0.2287
     77  O        -48.5150   15.0370  -67.5630 O.2   185  THR185     -0.2866
     78  CB       -47.7850   12.9370  -65.6950 C.3   185  THR185      0.1770
     79  OG1      -46.7290   13.6930  -65.0810 O.3   185  THR185     -0.2211
     80  CG2      -47.8150   11.5380  -65.1050 C.3   185  THR185      0.0375
     81  N        -45.4370   17.3330  -62.9390 N.3   200  THR200     -0.1203
     82  CA       -46.8290   17.4460  -62.5200 C.3   200  THR200      0.1994
     83  C        -47.0100   17.0090  -61.0680 C.2   200  THR200      0.2618
     84  O        -46.1730   16.3100  -60.4940 O.2   200  THR200     -0.2717
     85  CB       -47.7510   16.5640  -63.3720 C.3   200  THR200      0.1784
     86  OG1      -47.3710   15.1980  -63.1890 O.3   200  THR200     -0.2211
     87  CG2      -47.6860   16.9200  -64.8480 C.3   200  THR200      0.0376
     88  N        -48.1480   17.3990  -60.4960 N.am  201  GLY201     -0.1942
     89  CA       -48.5920   16.8620  -59.2220 C.3   201  GLY201      0.2014
     90  C        -50.0830   17.0380  -59.0520 C.2   201  GLY201      0.2639
     91  O        -50.6920   17.9380  -59.6360 O.2   201  GLY201     -0.2714
     92  N        -50.6690   16.1710  -58.2300 N.am  202  PHE202     -0.1959
     93  CA       -52.0760   16.2980  -57.8690 C.3   202  PHE202      0.1771
     94  C        -52.3270   15.6120  -56.5360 C.2   202  PHE202      0.2620
     95  O        -51.8520   14.5010  -56.3090 O.2   202  PHE202     -0.2715
     96  CB       -53.0050   15.6950  -58.9410 C.3   202  PHE202      0.0574
     97  CG       -54.4150   15.4120  -58.4370 C.ar  202  PHE202     -0.0200
     98  CD1      -54.7930   14.1300  -58.0580 C.ar  202  PHE202     -0.0042
     99  CD2      -55.3420   16.4270  -58.3270 C.ar  202  PHE202     -0.0042
    100  CE1      -56.0690   13.8770  -57.5750 C.ar  202  PHE202     -0.0003
    101  CE2      -56.6150   16.1780  -57.8530 C.ar  202  PHE202     -0.0003
    102  CZ       -56.9790   14.9040  -57.4730 C.ar  202  PHE202     -0.0000
    103  N        -53.0470   16.2940  -55.6540 N.am  203  THR203     -0.1937
    104  CA       -53.8260   15.6660  -54.5970 C.3   203  THR203      0.2028
    105  C        -55.1570   16.3890  -54.5620 C.2   203  THR203      0.2642
    106  O        -55.3340   17.4180  -55.2100 O.2   203  THR203     -0.2714
    107  CB       -53.1790   15.7660  -53.2120 C.3   203  THR203      0.1808
    108  OG1      -53.2310   17.1290  -52.7810 O.3   203  THR203     -0.2208
    109  CG2      -51.7410   15.2860  -53.2310 C.3   203  THR203      0.0379
    110  N        -56.0910   15.8770  -53.7710 N.am  204  ASP204     -0.1971
    111  CA       -57.3510   16.5970  -53.6440 C.3   204  ASP204      0.1709
    112  C        -57.1530   17.9440  -52.9640 C.2   204  ASP204      0.2293
    113  O        -57.8380   18.9190  -53.3000 O.2   204  ASP204     -0.2864
    114  CB       -58.3630   15.7470  -52.8890 C.3   204  ASP204      0.1436
    115  CG       -59.0280   14.7320  -53.7840 C.2   204  ASP204      0.3671
    116  OD1      -59.3550   15.0960  -54.9380 O.co2 204  ASP204     -0.2456
    117  OD2      -59.2170   13.5770  -53.3470 O.co2 204  ASP204     -0.2456
    118  N        -54.5880   20.4190  -59.1620 N.3   208  TYR208     -0.1241
    119  CA       -53.7270   20.0100  -60.2670 C.3   208  TYR208      0.1605
    120  C        -52.6050   21.0230  -60.4710 C.2   208  TYR208      0.2264
    121  O        -52.8550   22.2110  -60.6960 O.2   208  TYR208     -0.2867
    122  CB       -54.5390   19.8380  -61.5510 C.3   208  TYR208      0.0534
    123  CG       -55.4440   18.6410  -61.4780 C.ar  208  TYR208     -0.0201
    124  CD1      -54.9840   17.3820  -61.8270 C.ar  208  TYR208     -0.0009
    125  CD2      -56.7490   18.7650  -61.0100 C.ar  208  TYR208     -0.0009
    126  CE1      -55.8060   16.2800  -61.7360 C.ar  208  TYR208      0.0417
    127  CE2      -57.5730   17.6730  -60.9140 C.ar  208  TYR208      0.0417
    128  CZ       -57.0980   16.4390  -61.2820 C.ar  208  TYR208      0.1957
    129  OH       -57.9160   15.3510  -61.1830 O.3   208  TYR208     -0.2866
    130  N        -54.6030   22.7260  -65.7840 N.3   234  ARG234     -0.1245
    131  CA       -53.2260   23.0650  -65.4220 C.3   234  ARG234      0.1563
    132  C        -52.3610   23.2700  -66.6590 C.2   234  ARG234      0.2260
    133  O        -51.4680   24.1220  -66.6570 O.2   234  ARG234     -0.2867
    134  CB       -52.6090   21.9900  -64.5190 C.3   234  ARG234      0.0307
    135  CG       -52.5770   20.6000  -65.1220 C.3   234  ARG234      0.0489
    136  CD       -51.7290   19.6290  -64.3040 C.3   234  ARG234      0.2205
    137  NE       -52.1030   18.2600  -64.6370 N.pl3 234  ARG234     -0.0865
    138  CZ       -51.7930   17.1840  -63.9260 C.cat 234  ARG234      0.5346
    139  NH1      -51.0950   17.2930  -62.8080 N.pl3 234  ARG234      0.1354
    140  NH2      -52.2040   15.9920  -64.3370 N.pl3 234  ARG234      0.1354
@<TRIPOS>BOND
     1    76    77    2
     2    76    75    1
     3    74    75    1
     4    75    78    1
     5   132   133    2
     6   132   131    1
     7   130   131    1
     8    78    80    1
     9    78    79    1
    10   131   134    1
    11   135   134    1
    12   135   136    1
    13    87    85    1
    14    38    39    1
    15   137   136    1
    16   137   138    2
    17    42    39    1
    18    42    43    1
    19   140   138    1
    20    39    40    1
    21   138   139    1
    22    43    44    1
    23    44    45    1
    24    85    86    1
    25    85    82    1
    26    81    82    1
    27    40    41    2
    28    40    46   am
    29    82    83    1
    30    46    47    1
    31   124   126   ar
    32   124   123   ar
    33   126   128   ar
    34   122   123    1
    35   122   119    1
    36   123   125   ar
    37   128   129    1
    38   128   127   ar
    39    83    88   am
    40    83    84    2
    41   125   127   ar
    42    47    50    1
    43    47    48    1
    44    50    51    1
    45   121   120    2
    46    88    89    1
    47   120   119    1
    48   119   118    1
    49    36    35    1
    50    48    49    2
    51    37    35    1
    52    91    90    2
    53    89    90    1
    54    35    32    1
    55    90    92   am
    56    96    97    1
    57    96    93    1
    58    97    99   ar
    59    97    98   ar
    60    99   101   ar
    61    92    93    1
    62    32    33    1
    63    32    31    1
    64    98   100   ar
    65    93    94    1
    66   101   102   ar
    67    33    34    2
    68   100   102   ar
    69    10    11    1
    70    10     7    1
    71     9     8    2
    72    31    28   am
    73    52    53    1
    74     8     7    1
    75    94    95    2
    76    94   103   am
    77     7     6    1
    78    29    28    2
    79    28    27    1
    80   103   104    1
    81    59    57   am
    82     6     3   am
    83    53    54    1
    84    53    56    1
    85   106   105    2
    86    23    22    2
    87    58    57    2
    88    57    56    1
    89   116   115   ar
    90    54    55    2
    91   104   105    1
    92   104   107    1
    93   105   110   am
    94    27    26    1
    95    27    30    1
    96    22    26   am
    97    22    21    1
    98     5     2    1
    99     3     4    2
   100     3     2    1
   101    21    24    1
   102    21    20    1
   103    25    24    1
   104   115   117   ar
   105   115   114    1
   106    63    62    2
   107   110   111    1
   108   111   112    1
   109   111   114    1
   110     2     1    1
   111   113   112    2
   112   109   107    1
   113   107   108    1
   114    61    62    1
   115    61    64    1
   116    61    60    1
   117    64    65    1
   118    15    14    2
   119    73    71    1
   120    71    72    1
   121    71    70    1
   122    14    13    1
   123    18    17   ar
   124    66    67    1
   125    17    16    1
   126    17    19   ar
   127    16    13    1
   128    67    70    1
   129    67    68    1
   130    13    12    1
   131    68    69    2
