@<TRIPOS>MOLECULE
tmp/5zqmA00.pdb
 158 151 0 0 0
SMALL
GASTEIGER

@<TRIPOS>ATOM
      1  N        -35.9740  -19.7300    1.7940 N.3    30  ASP30      -0.1225
      2  CA       -35.8040  -18.3500    2.2560 C.3    30  ASP30       0.1805
      3  C        -34.9290  -17.4870    1.3650 C.2    30  ASP30       0.2598
      4  O        -34.8450  -16.2770    1.5900 O.2    30  ASP30      -0.2718
      5  CB       -35.2110  -18.3080    3.6650 C.3    30  ASP30       0.1424
      6  CG       -36.0090  -19.1240    4.6860 C.2    30  ASP30       0.3668
      7  OD1      -37.2730  -19.2060    4.5890 O.co2  30  ASP30      -0.2456
      8  OD2      -35.3310  -19.6600    5.6080 O.co2  30  ASP30      -0.2456
      9  N        -34.2540  -18.1080    0.3920 N.am   31  ILE31      -0.1966
     10  CA       -33.5020  -17.4020   -0.6430 C.3    31  ILE31       0.1727
     11  C        -34.2080  -17.4130   -1.9910 C.2    31  ILE31       0.2616
     12  O        -34.4260  -18.4880   -2.5680 O.2    31  ILE31      -0.2715
     13  CB       -32.1710  -18.0860   -0.9760 C.3    31  ILE31       0.0290
     14  CG1      -31.4400  -18.5330    0.2800 C.3    31  ILE31       0.0022
     15  CG2      -31.2850  -17.1150   -1.7380 C.3    31  ILE31       0.0023
     16  CD1      -30.2240  -19.3810   -0.0140 C.3    31  ILE31       0.0001
     17  N        -34.6210  -16.2620   -2.5210 N.am   32  ALA32      -0.1963
     18  CA       -35.3460  -16.2490   -3.8110 C.3    32  ALA32       0.1728
     19  C        -34.4590  -15.9150   -5.0160 C.2    32  ALA32       0.2616
     20  O        -33.3230  -15.4810   -4.8270 O.2    32  ALA32      -0.2715
     21  CB       -36.5290  -15.2940   -3.7420 C.3    32  ALA32       0.0334
     22  N        -34.9420  -16.1990   -6.2160 N.am   33  ASP33      -0.1957
     23  CA       -34.1820  -15.8970   -7.4160 C.3    33  ASP33       0.1840
     24  C        -32.9170  -16.7120   -7.7060 C.2    33  ASP33       0.2621
     25  O        -32.3090  -16.5110   -8.7570 O.2    33  ASP33      -0.2715
     26  CB       -33.6300  -14.4690   -7.3420 C.3    33  ASP33       0.1450
     27  CG       -33.6980  -13.7480   -8.6740 C.2    33  ASP33       0.3671
     28  OD1      -34.8020  -13.6690   -9.2530 O.co2  33  ASP33      -0.2456
     29  OD2      -32.6480  -13.2610   -9.1430 O.co2  33  ASP33      -0.2456
     30  N        -32.4920  -17.6210   -6.8240 N.am   34  LEU34      -0.1977
     31  CA       -31.4050  -18.4910   -7.2560 C.3    34  LEU34       0.1596
     32  C        -31.7310  -19.9750   -7.3750 C.2    34  LEU34       0.2287
     33  O        -31.4060  -20.7510   -6.4760 O.2    34  LEU34      -0.2864
     34  CB       -30.1900  -18.3060   -6.3410 C.3    34  LEU34       0.0297
     35  CG       -28.9760  -17.6080   -6.9580 C.3    34  LEU34       0.0022
     36  CD1      -29.4040  -16.3740   -7.7380 C.3    34  LEU34       0.0001
     37  CD2      -27.9620  -17.2430   -5.8850 C.3    34  LEU34       0.0001
     38  N        -23.0170   -6.2430   -4.5150 N.3    71  PRO71      -0.2102
     39  CA       -23.4540   -6.3700   -3.1200 C.3    71  PRO71       0.1504
     40  C        -24.9430   -6.8060   -2.9310 C.2    71  PRO71       0.2576
     41  O        -25.8280   -6.3920   -3.6980 O.2    71  PRO71      -0.2718
     42  CB       -23.2230   -4.9540   -2.5340 C.3    71  PRO71       0.0282
     43  CG       -22.4320   -4.2050   -3.5400 C.3    71  PRO71       0.0208
     44  CD       -22.6610   -4.8550   -4.8660 C.3    71  PRO71       0.0893
     45  N        -25.1860   -7.6430   -1.9250 N.am   72  GLY72      -0.1943
     46  CA       -26.5230   -7.8520   -1.4030 C.3    72  GLY72       0.2014
     47  C        -27.4300   -8.6330   -2.3140 C.2    72  GLY72       0.2640
     48  O        -28.5840   -8.2770   -2.4810 O.2    72  GLY72      -0.2714
     49  N        -26.9050   -9.7040   -2.8940 N.am   73  THR73      -0.1936
     50  CA       -27.6340  -10.5250   -3.8480 C.3    73  THR73       0.2028
     51  C        -27.8510  -11.9560   -3.3890 C.2    73  THR73       0.2643
     52  O        -28.3660  -12.7560   -4.1610 O.2    73  THR73      -0.2714
     53  CB       -26.9070  -10.5330   -5.2050 C.3    73  THR73       0.1808
     54  OG1      -25.5100  -10.7760   -5.0070 O.3    73  THR73      -0.2208
     55  CG2      -27.0780   -9.1990   -5.8860 C.3    73  THR73       0.0379
     56  N        -27.4970  -12.2830   -2.1470 N.am   74  GLY74      -0.1939
     57  CA       -27.7800  -13.6100   -1.5580 C.3    74  GLY74       0.2014
     58  C        -26.5750  -14.5160   -1.4090 C.2    74  GLY74       0.2639
     59  O        -26.6990  -15.6670   -1.0320 O.2    74  GLY74      -0.2714
     60  N        -25.3920  -14.0080   -1.7090 N.am   75  LYS75      -0.1963
     61  CA       -24.1590  -14.8070   -1.5450 C.3    75  LYS75       0.1728
     62  C        -23.9330  -15.3330   -0.1140 C.2    75  LYS75       0.2617
     63  O        -23.7600  -16.5180    0.0540 O.2    75  LYS75      -0.2715
     64  CB       -22.9230  -14.0830   -2.1240 C.3    75  LYS75       0.0311
     65  CG       -22.7060  -12.6570   -1.6170 C.3    75  LYS75       0.0038
     66  CD       -21.9430  -11.7130   -2.5490 C.3    75  LYS75       0.0206
     67  CE       -22.4750  -11.6930   -3.9660 C.3    75  LYS75       0.1093
     68  NZ       -21.6750  -12.6110   -4.8240 N.3    75  LYS75      -0.1314
     69  N        -23.9740  -14.4910    0.9120 N.am   76  THR76      -0.1937
     70  CA       -23.8210  -15.0140    2.2790 C.3    76  THR76       0.2028
     71  C        -24.9760  -15.9600    2.6370 C.2    76  THR76       0.2642
     72  O        -24.7450  -17.0040    3.2470 O.2    76  THR76      -0.2714
     73  CB       -23.7160  -13.9270    3.3770 C.3    76  THR76       0.1808
     74  OG1      -22.6710  -12.9870    3.0810 O.3    76  THR76      -0.2208
     75  CG2      -23.4210  -14.5840    4.7210 C.3    76  THR76       0.0379
     76  N        -26.2000  -15.5880    2.2640 N.am   77  LEU77      -0.1977
     77  CA       -27.3660  -16.4730    2.4300 C.3    77  LEU77       0.1596
     78  C        -27.2240  -17.8670    1.8470 C.2    77  LEU77       0.2287
     79  O        -27.7410  -18.8290    2.4140 O.2    77  LEU77      -0.2864
     80  CB       -28.6120  -15.8650    1.8080 C.3    77  LEU77       0.0297
     81  CG       -29.6980  -15.4650    2.7800 C.3    77  LEU77       0.0022
     82  CD1      -29.1440  -14.5220    3.8470 C.3    77  LEU77       0.0001
     83  CD2      -30.8150  -14.8140    1.9700 C.3    77  LEU77       0.0001
     84  N        -16.5120  -19.5170    5.1790 N.3   122  PHE122     -0.1241
     85  CA       -16.9880  -18.5480    4.2030 C.3   122  PHE122      0.1605
     86  C        -16.2410  -17.2250    4.3270 C.2   122  PHE122      0.2264
     87  O        -16.4430  -16.5060    5.2870 O.2   122  PHE122     -0.2867
     88  CB       -18.4690  -18.2910    4.3900 C.3   122  PHE122      0.0534
     89  CG       -18.9570  -17.1330    3.5940 C.ar  122  PHE122     -0.0203
     90  CD1      -18.9840  -17.2020    2.2040 C.ar  122  PHE122     -0.0042
     91  CD2      -19.3450  -15.9560    4.2180 C.ar  122  PHE122     -0.0042
     92  CE1      -19.4330  -16.1300    1.4510 C.ar  122  PHE122     -0.0003
     93  CE2      -19.7890  -14.8730    3.4690 C.ar  122  PHE122     -0.0003
     94  CZ       -19.8310  -14.9600    2.0850 C.ar  122  PHE122     -0.0000
     95  N        -15.8730  -13.6380    3.1840 N.3   124  ASP124     -0.1225
     96  CA       -16.5910  -12.5370    2.5430 C.3   124  ASP124      0.1805
     97  C        -15.5640  -11.5130    2.0860 C.2   124  ASP124      0.2597
     98  O        -14.5190  -11.3570    2.7230 O.2   124  ASP124     -0.2718
     99  CB       -17.5820  -11.9060    3.5560 C.3   124  ASP124      0.1424
    100  CG       -18.6530  -11.0120    2.9050 C.2   124  ASP124      0.3668
    101  OD1      -19.1160  -10.0640    3.5730 O.co2 124  ASP124     -0.2456
    102  OD2      -19.0640  -11.2590    1.7550 O.co2 124  ASP124     -0.2456
    103  N        -15.8600  -10.8330    0.9770 N.am  125  GLU125     -0.1979
    104  CA       -15.0220   -9.7430    0.4510 C.3   125  GLU125      0.1602
    105  C        -13.5400  -10.1220    0.3120 C.2   125  GLU125      0.2287
    106  O        -12.6670   -9.3500    0.7140 O.2   125  GLU125     -0.2864
    107  CB       -15.1720   -8.4860    1.3250 C.3   125  GLU125      0.0415
    108  CG       -16.6110   -7.9960    1.4380 C.3   125  GLU125      0.1163
    109  CD       -16.7400   -6.6060    2.0610 C.2   125  GLU125      0.3649
    110  OE1      -16.0710   -6.3490    3.0980 O.co2 125  GLU125     -0.2457
    111  OE2      -17.5250   -5.7760    1.5170 O.co2 125  GLU125     -0.2457
    112  N        -17.3730   -8.7160   -4.6040 N.3   164  ASN164     -0.1240
    113  CA       -18.0160   -7.7240   -5.4510 C.3   164  ASN164      0.1653
    114  C        -17.1270   -7.3180   -6.6090 C.2   164  ASN164      0.2266
    115  O        -17.6340   -6.8320   -7.6020 O.2   164  ASN164     -0.2867
    116  CB       -18.4280   -6.5000   -4.6270 C.3   164  ASN164      0.1155
    117  CG       -19.4490   -6.8360   -3.5310 C.2   164  ASN164      0.2627
    118  OD1      -20.0970   -7.8740   -3.5730 O.2   164  ASN164     -0.2716
    119  ND2      -19.5880   -5.9580   -2.5480 N.am  164  ASN164     -0.0877
    120  N        -31.6870   -9.7860   -8.4610 N.3   186  PRO186     -0.2116
    121  CA       -32.8550  -10.6220   -8.7340 C.3   186  PRO186      0.1372
    122  C        -33.5190  -10.2890  -10.0730 C.2   186  PRO186      0.2244
    123  O        -33.5250   -9.1210  -10.5080 O.2   186  PRO186     -0.2868
    124  CB       -33.7790  -10.3800   -7.5280 C.3   186  PRO186      0.0268
    125  CG       -33.2460   -9.1610   -6.8490 C.3   186  PRO186      0.0207
    126  CD       -31.7960   -9.0630   -7.1840 C.3   186  PRO186      0.0892
    127  N        -38.9740  -12.6290   -3.5470 N.3   194  LEU194     -0.1245
    128  CA       -38.3220  -11.9590   -2.4020 C.3   194  LEU194      0.1561
    129  C        -39.2540  -11.1280   -1.5510 C.2   194  LEU194      0.2260
    130  O        -39.1490  -11.1420   -0.3310 O.2   194  LEU194     -0.2867
    131  CB       -37.2410  -11.0330   -2.9230 C.3   194  LEU194      0.0270
    132  CG       -36.3510  -10.2620   -1.9510 C.3   194  LEU194      0.0019
    133  CD1      -35.6100  -11.1850   -1.0060 C.3   194  LEU194      0.0001
    134  CD2      -35.3510   -9.4650   -2.7600 C.3   194  LEU194      0.0001
    135  N        -41.4420  -13.4020    0.3910 N.3   197  ILE197     -0.1245
    136  CA       -40.7040  -13.8880    1.5630 C.3   197  ILE197      0.1561
    137  C        -40.7470  -12.8710    2.7100 C.2   197  ILE197      0.2260
    138  O        -40.9560  -13.2410    3.8760 O.2   197  ILE197     -0.2867
    139  CB       -39.2540  -14.2870    1.1860 C.3   197  ILE197      0.0252
    140  CG1      -39.2850  -15.5220    0.2560 C.3   197  ILE197      0.0019
    141  CG2      -38.4400  -14.6230    2.4290 C.3   197  ILE197      0.0019
    142  CD1      -38.0210  -15.7960   -0.5390 C.3   197  ILE197      0.0001
    143  N        -31.1110   -7.5860   -3.5870 N.3   219  GLY219     -0.1210
    144  CA       -31.9860   -8.1950   -2.6090 C.3   219  GLY219      0.1956
    145  C        -31.9870   -7.5010   -1.2600 C.2   219  GLY219      0.2611
    146  O        -33.0000   -7.4740   -0.5790 O.2   219  GLY219     -0.2717
    147  N        -30.8430   -6.9430   -0.8820 N.am  220  ALA220     -0.1979
    148  CA       -30.7060   -6.1840    0.3660 C.3   220  ALA220      0.1597
    149  C        -31.4730   -4.8610    0.3540 C.2   220  ALA220      0.2287
    150  O        -32.0020   -4.4530    1.4000 O.2   220  ALA220     -0.2864
    151  CB       -29.2400   -5.9270    0.6620 C.3   220  ALA220      0.0319
    152  N        -35.3240   -5.6260    0.5540 N.3   223  THR223     -0.1218
    153  CA       -35.6800   -5.9380    1.9480 C.3   223  THR223      0.1862
    154  C        -35.8240   -4.6950    2.8180 C.2   223  THR223      0.2287
    155  O        -36.7170   -4.6380    3.6680 O.2   223  THR223     -0.2866
    156  CB       -34.6490   -6.8890    2.6010 C.3   223  THR223      0.1770
    157  OG1      -34.5870   -8.1070    1.8530 O.3   223  THR223     -0.2211
    158  CG2      -35.0280   -7.2200    4.0310 C.3   223  THR223      0.0375
@<TRIPOS>BOND
     1   123   122    2
     2   122   121    1
     3    28    27   ar
     4    29    27   ar
     5    25    24    2
     6   121   120    1
     7   121   124    1
     8    27    26    1
     9   120   126    1
    10    36    35    1
    11    24    23    1
    12    24    30   am
    13   115   114    2
    14   124   125    1
    15    23    26    1
    16    23    22    1
    17    32    31    1
    18    32    33    2
    19    31    30    1
    20    31    34    1
    21   126   125    1
    22    35    34    1
    23    35    37    1
    24   114   113    1
    25    22    19   am
    26    55    53    1
    27   113   116    1
    28   113   112    1
    29    53    54    1
    30    53    50    1
    31    19    20    2
    32    19    18    1
    33    44    38    1
    34    44    43    1
    35    68    67    1
    36   116   117    1
    37    38    39    1
    38    52    51    2
    39    67    66    1
    40    50    51    1
    41    50    49    1
    42    18    21    1
    43    18    17    1
    44    41    40    2
    45   143   144    1
    46   118   117    2
    47   127   128    1
    48    43    42    1
    49   117   119   am
    50    51    56   am
    51    39    40    1
    52    39    42    1
    53    40    45   am
    54   131   128    1
    55   131   132    1
    56    49    47   am
    57   134   132    1
    58   144   145    1
    59    12    11    2
    60    66    65    1
    61    17    11   am
    62    48    47    2
    63   128   129    1
    64    47    46    1
    65    56    57    1
    66    64    65    1
    67    64    61    1
    68    11    10    1
    69   132   133    1
    70    45    46    1
    71    15    13    1
    72    60    61    1
    73    60    58   am
    74    57    58    1
    75   129   130    2
    76    61    62    1
    77    58    59    2
    78   145   147   am
    79   145   146    2
    80    13    10    1
    81    13    14    1
    82   147   148    1
    83    10     9    1
    84   142   140    1
    85    62    63    2
    86    62    69   am
    87    16    14    1
    88   140   139    1
    89   105   104    1
    90   105   106    2
    91   149   148    1
    92   149   150    2
    93   148   151    1
    94   135   136    1
    95     9     3   am
    96   104   103    1
    97   104   107    1
    98   152   153    1
    99    69    70    1
   100   103    97   am
   101   139   136    1
   102   139   141    1
   103   107   108    1
   104     3     4    2
   105     3     2    1
   106   108   109    1
   107    92    94   ar
   108    92    90   ar
   109   111   109   ar
   110   136   137    1
   111   102   100   ar
   112     1     2    1
   113    80    77    1
   114    80    81    1
   115    78    79    2
   116    78    77    1
   117   157   156    1
   118   153   156    1
   119   153   154    1
   120    83    81    1
   121   109   110   ar
   122    94    93   ar
   123    97    96    1
   124    97    98    2
   125    90    89   ar
   126     2     5    1
   127    76    77    1
   128    76    71   am
   129    70    71    1
   130    70    73    1
   131    96    95    1
   132    96    99    1
   133   156   158    1
   134    71    72    2
   135   137   138    2
   136    81    82    1
   137   154   155    2
   138   100    99    1
   139   100   101   ar
   140    74    73    1
   141    73    75    1
   142    93    91   ar
   143    89    91   ar
   144    89    88    1
   145     5     6    1
   146    85    86    1
   147    85    88    1
   148    85    84    1
   149    86    87    2
   150     7     6   ar
   151     6     8   ar
