@<TRIPOS>MOLECULE
tmp/5zquB00.pdb
 147 141 0 0 0
SMALL
GASTEIGER

@<TRIPOS>ATOM
      1  N        -45.3850  -29.3940  147.1700 N.3     8  ILE8       -0.1231
      2  CA       -45.5140  -27.9450  147.1880 C.3     8  ILE8        0.1692
      3  C        -46.6190  -27.5030  148.1520 C.2     8  ILE8        0.2592
      4  O        -46.4510  -26.5370  148.9020 O.2     8  ILE8       -0.2718
      5  CB       -45.7920  -27.4120  145.7680 C.3     8  ILE8        0.0266
      6  CG1      -44.5510  -27.5640  144.8890 C.3     8  ILE8        0.0019
      7  CG2      -46.1560  -25.9640  145.7960 C.3     8  ILE8        0.0020
      8  CD1      -44.8200  -27.3100  143.4250 C.3     8  ILE8        0.0001
      9  N        -47.7380  -28.2220  148.1410 N.am    9  CYS9       -0.1970
     10  CA       -48.8470  -27.9330  149.0480 C.3     9  CYS9        0.1712
     11  C        -48.4620  -28.1680  150.5030 C.2     9  CYS9        0.2296
     12  O        -48.8730  -27.4210  151.3900 O.2     9  CYS9       -0.2864
     13  CB       -50.0680  -28.7850  148.6990 C.3     9  CYS9        0.0983
     14  SG       -50.8660  -28.3520  147.1390 S.3     9  CYS9       -0.0798
     15  N        -45.4500  -27.9230  151.7980 N.3    11  ALA11      -0.1231
     16  CA       -44.5130  -26.8820  152.2010 C.3    11  ALA11       0.1694
     17  C        -45.2510  -25.6020  152.5850 C.2    11  ALA11       0.2591
     18  O        -44.8870  -24.9310  153.5510 O.2    11  ALA11      -0.2718
     19  CB       -43.5140  -26.6080  151.0880 C.3    11  ALA11       0.0304
     20  N        -46.2870  -25.2710  151.8210 N.am   12  ALA12      -0.1980
     21  CA       -47.1180  -24.1090  152.1110 C.3    12  ALA12       0.1597
     22  C        -47.9170  -24.3380  153.3880 C.2    12  ALA12       0.2287
     23  O        -48.1380  -23.4140  154.1710 O.2    12  ALA12      -0.2864
     24  CB       -48.0460  -23.8160  150.9460 C.3    12  ALA12       0.0319
     25  N        -45.6400  -23.6100  156.3770 N.3    15  GLN15      -0.1231
     26  CA       -45.3620  -22.1940  156.5790 C.3    15  GLN15       0.1698
     27  C        -46.5440  -21.4710  157.2020 C.2    15  GLN15       0.2592
     28  O        -46.3780  -20.6760  158.1240 O.2    15  GLN15      -0.2718
     29  CB       -44.9780  -21.5310  155.2540 C.3    15  GLN15       0.0381
     30  CG       -43.5270  -21.7330  154.8850 C.3    15  GLN15       0.0905
     31  CD       -42.5910  -20.9860  155.8080 C.2    15  GLN15       0.2608
     32  OE1      -42.9400  -19.9370  156.3480 O.2    15  GLN15      -0.2717
     33  NE2      -41.3960  -21.5290  156.0060 N.am   15  GLN15      -0.0878
     34  N        -47.7380  -21.7550  156.6950 N.am   16  LEU16      -0.1980
     35  CA       -48.9530  -21.1540  157.2300 C.3    16  LEU16       0.1596
     36  C        -49.1560  -21.5150  158.7010 C.2    16  LEU16       0.2287
     37  O        -49.6010  -20.6870  159.4910 O.2    16  LEU16      -0.2864
     38  CB       -50.1720  -21.5900  156.4190 C.3    16  LEU16       0.0297
     39  CG       -50.7010  -20.6030  155.3760 C.3    16  LEU16       0.0022
     40  CD1      -49.6870  -20.3540  154.2640 C.3    16  LEU16       0.0001
     41  CD2      -52.0260  -21.0980  154.8080 C.3    16  LEU16       0.0001
     42  N        -51.7250  -13.1130  155.4700 N.3    45  TRP45      -0.1241
     43  CA       -50.6650  -14.1250  155.4110 C.3    45  TRP45       0.1605
     44  C        -49.6080  -13.8330  154.3480 C.2    45  TRP45       0.2264
     45  O        -48.4370  -14.1720  154.5220 O.2    45  TRP45      -0.2867
     46  CB       -51.2550  -15.5240  155.1740 C.3    45  TRP45       0.0550
     47  CG       -51.8530  -15.7430  153.8130 C.ar   45  TRP45       0.0003
     48  CD1      -53.1690  -15.6370  153.4720 C.ar   45  TRP45       0.0946
     49  CD2      -51.1590  -16.1230  152.6170 C.ar   45  TRP45       0.0152
     50  NE1      -53.3380  -15.9170  152.1370 N.ar   45  TRP45      -0.2442
     51  CE2      -52.1190  -16.2190  151.5900 C.ar   45  TRP45       0.0810
     52  CE3      -49.8190  -16.3870  152.3140 C.ar   45  TRP45       0.0012
     53  CZ2      -51.7820  -16.5660  150.2820 C.ar   45  TRP45       0.0191
     54  CZ3      -49.4860  -16.7300  151.0160 C.ar   45  TRP45       0.0001
     55  CH2      -50.4630  -16.8160  150.0160 C.ar   45  TRP45       0.0015
     56  N        -45.7220  -13.1060  155.4590 N.3    49  LEU49      -0.1245
     57  CA       -44.6310  -13.9800  155.0470 C.3    49  LEU49       0.1561
     58  C        -43.5570  -13.2150  154.2870 C.2    49  LEU49       0.2260
     59  O        -42.3660  -13.4760  154.4560 O.2    49  LEU49      -0.2867
     60  CB       -45.1600  -15.1290  154.1890 C.3    49  LEU49       0.0270
     61  CG       -45.9210  -16.2110  154.9550 C.3    49  LEU49       0.0019
     62  CD1      -46.5700  -17.1910  153.9970 C.3    49  LEU49       0.0001
     63  CD2      -44.9920  -16.9330  155.9170 C.3    49  LEU49       0.0001
     64  N        -39.3890  -13.0720  155.3270 N.3    53  PHE53      -0.1241
     65  CA       -38.1960  -13.4980  154.6030 C.3    53  PHE53       0.1605
     66  C        -37.4140  -12.2980  154.0760 C.2    53  PHE53       0.2264
     67  O        -36.2330  -12.4190  153.7560 O.2    53  PHE53      -0.2867
     68  CB       -38.5400  -14.4830  153.4640 C.3    53  PHE53       0.0534
     69  CG       -39.3450  -13.8960  152.3220 C.ar   53  PHE53      -0.0203
     70  CD1      -38.7870  -12.9790  151.4410 C.ar   53  PHE53      -0.0042
     71  CD2      -40.6340  -14.3370  152.0780 C.ar   53  PHE53      -0.0042
     72  CE1      -39.5160  -12.4690  150.3850 C.ar   53  PHE53      -0.0003
     73  CE2      -41.3650  -13.8390  151.0160 C.ar   53  PHE53      -0.0003
     74  CZ       -40.8080  -12.9000  150.1700 C.ar   53  PHE53      -0.0000
     75  N        -35.2820  -11.5130  156.9800 N.3    56  ARG56      -0.1245
     76  CA       -34.3560  -12.6300  157.1140 C.3    56  ARG56       0.1563
     77  C        -33.2340  -12.5170  156.0860 C.2    56  ARG56       0.2260
     78  O        -32.1260  -13.0130  156.2950 O.2    56  ARG56      -0.2867
     79  CB       -35.0990  -13.9580  156.9500 C.3    56  ARG56       0.0307
     80  CG       -34.3230  -15.1740  157.4190 C.3    56  ARG56       0.0489
     81  CD       -35.0880  -16.4590  157.1320 C.3    56  ARG56       0.2205
     82  NE       -36.4990  -16.3510  157.4990 N.pl3  56  ARG56      -0.0865
     83  CZ       -37.5110  -16.5790  156.6670 C.cat  56  ARG56       0.5346
     84  NH1      -37.2770  -16.9420  155.4130 N.pl3  56  ARG56       0.1354
     85  NH2      -38.7610  -16.4520  157.0910 N.pl3  56  ARG56       0.1354
     86  N        -34.7470  -18.1730  152.3070 N.3    66  LEU66      -0.1231
     87  CA       -35.9620  -18.8680  152.7270 C.3    66  LEU66       0.1693
     88  C        -35.7790  -19.5460  154.0850 C.2    66  LEU66       0.2592
     89  O        -34.6550  -19.7570  154.5360 O.2    66  LEU66      -0.2718
     90  CB       -36.3750  -19.9010  151.6760 C.3    66  LEU66       0.0284
     91  CG       -36.6550  -19.3670  150.2690 C.3    66  LEU66       0.0019
     92  CD1      -36.8350  -20.5160  149.2880 C.3    66  LEU66       0.0001
     93  CD2      -37.8720  -18.4520  150.2580 C.3    66  LEU66       0.0001
     94  N        -36.8890  -19.8930  154.7300 N.am   67  ALA67      -0.1966
     95  CA       -36.8450  -20.5250  156.0450 C.3    67  ALA67       0.1728
     96  C        -36.1560  -21.8860  155.9880 C.2    67  ALA67       0.2616
     97  O        -35.6130  -22.3600  156.9870 O.2    67  ALA67      -0.2715
     98  CB       -38.2470  -20.6670  156.6110 C.3    67  ALA67       0.0334
     99  N        -36.1730  -22.5020  154.8110 N.am   68  THR68      -0.1951
    100  CA       -35.5570  -23.8090  154.6140 C.3    68  THR68       0.1897
    101  C        -34.0430  -23.7060  154.4270 C.2    68  THR68       0.2313
    102  O        -33.3600  -24.7160  154.2650 O.2    68  THR68      -0.2863
    103  CB       -36.1650  -24.5300  153.3970 C.3    68  THR68       0.1794
    104  OG1      -36.0240  -23.7050  152.2330 O.3    68  THR68      -0.2208
    105  CG2      -37.6430  -24.8120  153.6300 C.3    68  THR68       0.0378
    106  N        -48.8240  -12.1310  144.5370 N.3   173  LEU173     -0.1245
    107  CA       -49.9430  -13.0210  144.2580 C.3   173  LEU173      0.1561
    108  C        -50.2880  -12.9660  142.7730 C.2   173  LEU173      0.2260
    109  O        -50.5900  -13.9850  142.1510 O.2   173  LEU173     -0.2867
    110  CB       -51.1590  -12.6370  145.1060 C.3   173  LEU173      0.0270
    111  CG       -52.3790  -13.5540  145.0540 C.3   173  LEU173      0.0019
    112  CD1      -52.0970  -14.8450  145.8020 C.3   173  LEU173      0.0001
    113  CD2      -53.6030  -12.8520  145.6240 C.3   173  LEU173      0.0001
    114  N        -44.5220  -17.1820  144.6910 N.3   178  PHE178     -0.1227
    115  CA       -44.1210  -18.3870  145.4090 C.3   178  PHE178      0.1736
    116  C        -44.1070  -19.6160  144.5120 C.2   178  PHE178      0.2595
    117  O        -43.1730  -20.4140  144.5590 O.2   178  PHE178     -0.2718
    118  CB       -45.0500  -18.6250  146.5970 C.3   178  PHE178      0.0547
    119  CG       -44.9080  -17.6020  147.6820 C.ar  178  PHE178     -0.0202
    120  CD1      -43.6550  -17.2210  148.1320 C.ar  178  PHE178     -0.0042
    121  CD2      -46.0260  -17.0070  148.2390 C.ar  178  PHE178     -0.0042
    122  CE1      -43.5230  -16.2720  149.1270 C.ar  178  PHE178     -0.0003
    123  CE2      -45.9020  -16.0580  149.2310 C.ar  178  PHE178     -0.0003
    124  CZ       -44.6480  -15.6890  149.6770 C.ar  178  PHE178     -0.0000
    125  N        -45.1440  -19.7530  143.6930 N.am  179  PHE179     -0.1976
    126  CA       -45.2840  -20.8950  142.7970 C.3   179  PHE179      0.1639
    127  C        -44.0850  -21.0010  141.8620 C.2   179  PHE179      0.2290
    128  O        -43.5340  -22.0810  141.6630 O.2   179  PHE179     -0.2864
    129  CB       -46.5870  -20.7830  141.9950 C.3   179  PHE179      0.0560
    130  CG       -46.9720  -22.0460  141.2680 C.ar  179  PHE179     -0.0200
    131  CD1      -47.6560  -23.0580  141.9250 C.ar  179  PHE179     -0.0042
    132  CD2      -46.6680  -22.2130  139.9250 C.ar  179  PHE179     -0.0042
    133  CE1      -48.0190  -24.2160  141.2610 C.ar  179  PHE179     -0.0003
    134  CE2      -47.0280  -23.3710  139.2560 C.ar  179  PHE179     -0.0003
    135  CZ       -47.7050  -24.3730  139.9260 C.ar  179  PHE179     -0.0000
    136  N        -40.7590  -21.3980  144.5160 N.3   182  ILE182     -0.1231
    137  CA       -40.7080  -22.6370  145.2800 C.3   182  ILE182      0.1692
    138  C        -41.0030  -23.8620  144.4050 C.2   182  ILE182      0.2592
    139  O        -40.4260  -24.9340  144.6040 O.2   182  ILE182     -0.2718
    140  CB       -41.6970  -22.5880  146.4700 C.3   182  ILE182      0.0266
    141  CG1      -41.1000  -21.7760  147.6200 C.3   182  ILE182      0.0019
    142  CG2      -42.0480  -23.9820  146.9600 C.3   182  ILE182      0.0020
    143  CD1      -41.7000  -20.4010  147.7890 C.3   182  ILE182      0.0001
    144  N        -41.8710  -23.6960  143.4110 N.am  183  GLY183     -0.1957
    145  CA       -42.4160  -24.8410  142.7060 C.3   183  GLY183      0.1869
    146  C        -41.8560  -25.1640  141.3320 C.2   183  GLY183      0.2309
    147  O        -42.1330  -26.2370  140.7950 O.2   183  GLY183     -0.2863
@<TRIPOS>BOND
     1   134   132   ar
     2   134   135   ar
     3   132   130   ar
     4   135   133   ar
     5   147   146    2
     6   133   131   ar
     7   130   131   ar
     8   130   129    1
     9   146   145    1
    10   128   127    2
    11   127   126    1
    12   129   126    1
    13   109   108    2
    14   145   144    1
    15   108   107    1
    16   126   125    1
    17   144   138   am
    18     8     6    1
    19   125   116   am
    20   107   106    1
    21   107   110    1
    22   138   139    2
    23   138   137    1
    24   116   117    2
    25   116   115    1
    26   136   137    1
    27   114   115    1
    28     6     5    1
    29   111   110    1
    30   111   113    1
    31   111   112    1
    32   137   140    1
    33   115   118    1
    34     5     7    1
    35     5     2    1
    36   140   142    1
    37   140   141    1
    38   118   119    1
    39    14    13    1
    40     1     2    1
    41     2     3    1
    42   141   143    1
    43   119   120   ar
    44   119   121   ar
    45   120   122   ar
    46     9     3   am
    47     9    10    1
    48     3     4    2
    49   121   123   ar
    50    13    10    1
    51    10    11    1
    52   122   124   ar
    53   123   124   ar
    54    92    91    1
    55    55    53   ar
    56    55    54   ar
    57    74    72   ar
    58    74    73   ar
    59    93    91    1
    60    91    90    1
    61    53    51   ar
    62    72    70   ar
    63    11    12    2
    64    24    21    1
    65    54    52   ar
    66    73    71   ar
    67    19    16    1
    68    70    69   ar
    69    51    50   ar
    70    51    49   ar
    71    90    87    1
    72    15    16    1
    73    20    21    1
    74    20    17   am
    75    71    69   ar
    76    21    22    1
    77    50    48   ar
    78    16    17    1
    79   104   103    1
    80    86    87    1
    81    52    49   ar
    82    69    68    1
    83    17    18    2
    84    49    47   ar
    85    87    88    1
    86    22    23    2
    87   103   105    1
    88   103   100    1
    89    68    65    1
    90    48    47   ar
    91    67    66    2
    92    47    46    1
    93    62    61    1
    94    66    65    1
    95    88    89    2
    96    88    94   am
    97    60    61    1
    98    60    57    1
    99    40    39    1
   100   102   101    2
   101    58    59    2
   102    58    57    1
   103    44    45    2
   104    44    43    1
   105   101   100    1
   106    65    64    1
   107   100    99    1
   108    94    95    1
   109    41    39    1
   110    99    96   am
   111    30    29    1
   112    30    31    1
   113    61    63    1
   114    57    56    1
   115    46    43    1
   116    29    26    1
   117    39    38    1
   118    43    42    1
   119    84    83    1
   120    31    33   am
   121    31    32    2
   122    96    95    1
   123    96    97    2
   124    95    98    1
   125    77    78    2
   126    77    76    1
   127    25    26    1
   128    38    35    1
   129    26    27    1
   130    83    85    1
   131    83    82    2
   132    34    27   am
   133    34    35    1
   134    79    76    1
   135    79    80    1
   136    75    76    1
   137    81    80    1
   138    81    82    1
   139    27    28    2
   140    35    36    1
   141    36    37    2
