@<TRIPOS>MOLECULE
tmp/5zqvC00.pdb
 121 117 0 0 0
SMALL
GASTEIGER

@<TRIPOS>ATOM
      1  N          3.7300  -19.7380   -3.6570 N.3    61  HIS61      -0.1241
      2  CA         4.7910  -18.7490   -3.8530 C.3    61  HIS61       0.1621
      3  C          5.7230  -19.1340   -5.0050 C.2    61  HIS61       0.2264
      4  O          6.9390  -19.2550   -4.8490 O.2    61  HIS61      -0.2867
      5  CB         5.5800  -18.5260   -2.5600 C.3    61  HIS61       0.0745
      6  CG         4.9540  -17.5270   -1.6350 C.ar   61  HIS61       0.0817
      7  ND1        4.4910  -17.8610   -0.3810 N.ar   61  HIS61      -0.2268
      8  CD2        4.7140  -16.2030   -1.7850 C.ar   61  HIS61       0.1154
      9  CE1        3.9940  -16.7850    0.2030 C.ar   61  HIS61       0.1986
     10  NE2        4.1150  -15.7660   -0.6290 N.ar   61  HIS61      -0.2212
     11  N         -1.6990  -16.8510   -1.9270 N.3    87  ASP87      -0.1239
     12  CA        -0.2350  -16.8060   -1.9990 C.3    87  ASP87       0.1674
     13  C          0.3010  -17.7930   -3.0400 C.2    87  ASP87       0.2266
     14  O          0.9920  -18.7640   -2.7250 O.2    87  ASP87      -0.2867
     15  CB         0.3970  -17.0550   -0.6240 C.3    87  ASP87       0.1410
     16  CG         0.5380  -15.7860    0.1950 C.2    87  ASP87       0.3668
     17  OD1       -0.1110  -14.7760   -0.1470 O.co2  87  ASP87      -0.2456
     18  OD2        1.2910  -15.8030    1.1920 O.co2  87  ASP87      -0.2456
     19  N          8.2400  -14.5550   -4.4810 N.3    91  ARG91      -0.1245
     20  CA         9.2230  -15.3030   -3.6990 C.3    91  ARG91       0.1563
     21  C          9.6060  -16.6320   -4.3450 C.2    91  ARG91       0.2260
     22  O         10.2880  -17.4550   -3.7280 O.2    91  ARG91      -0.2867
     23  CB         8.6960  -15.5410   -2.2810 C.3    91  ARG91       0.0307
     24  CG         8.2180  -14.2860   -1.5490 C.3    91  ARG91       0.0489
     25  CD         9.3600  -13.4920   -0.9200 C.3    91  ARG91       0.2205
     26  NE         8.8890  -12.6980    0.2140 N.pl3  91  ARG91      -0.0865
     27  CZ         9.6400  -11.8440    0.9050 C.cat  91  ARG91       0.5346
     28  NH1       10.9120  -11.6550    0.5800 N.pl3  91  ARG91       0.1354
     29  NH2        9.1150  -11.1750    1.9220 N.pl3  91  ARG91       0.1354
     30  N         -2.9150  -12.3230    0.6620 N.3   119  ASN119     -0.1225
     31  CA        -2.3840  -10.9650    0.6970 C.3   119  ASN119      0.1785
     32  C         -1.3670  -10.7120   -0.4100 C.2   119  ASN119      0.2597
     33  O         -1.1310   -9.5510   -0.7590 O.2   119  ASN119     -0.2718
     34  CB        -1.7630  -10.6660    2.0630 C.3   119  ASN119      0.1169
     35  CG        -0.6220  -11.5980    2.4060 C.2   119  ASN119      0.2627
     36  OD1       -0.7070  -12.8060    2.1980 O.2   119  ASN119     -0.2716
     37  ND2        0.4580  -11.0370    2.9360 N.am  119  ASN119     -0.0877
     38  N         -0.7620  -11.7620   -0.9690 N.am  120  HIS120     -0.1975
     39  CA         0.0930  -11.5980   -2.1370 C.3   120  HIS120      0.1656
     40  C         -0.6910  -11.5690   -3.4410 C.2   120  HIS120      0.2291
     41  O         -0.1270  -11.1920   -4.4740 O.2   120  HIS120     -0.2864
     42  CB         1.1410  -12.7110   -2.2020 C.3   120  HIS120      0.0771
     43  CG         2.3130  -12.4890   -1.2990 C.ar  120  HIS120      0.0820
     44  ND1        3.3560  -11.6500   -1.6260 N.ar  120  HIS120     -0.2267
     45  CD2        2.6110  -13.0020   -0.0810 C.ar  120  HIS120      0.1154
     46  CE1        4.2440  -11.6520   -0.6480 C.ar  120  HIS120      0.1986
     47  NE2        3.8160  -12.4650    0.3010 N.ar  120  HIS120     -0.2212
     48  N          1.3780   -5.6520   -3.2820 N.3   125  ILE125     -0.1245
     49  CA         2.3520   -6.5860   -2.7240 C.3   125  ILE125      0.1561
     50  C          3.1070   -7.3300   -3.8170 C.2   125  ILE125      0.2260
     51  O          4.3380   -7.3430   -3.8290 O.2   125  ILE125     -0.2867
     52  CB         1.6650   -7.5690   -1.7500 C.3   125  ILE125      0.0252
     53  CG1        0.7430   -6.8140   -0.7910 C.3   125  ILE125      0.0019
     54  CG2        2.7100   -8.3450   -0.9590 C.3   125  ILE125      0.0019
     55  CD1        1.4740   -5.8910    0.1590 C.3   125  ILE125      0.0001
     56  N          7.3870   -8.0490   -4.5570 N.3   129  TYR129     -0.1241
     57  CA         8.0060   -9.3210   -4.2030 C.3   129  TYR129      0.1605
     58  C          8.1240  -10.2880   -5.3790 C.2   129  TYR129      0.2264
     59  O          8.1420  -11.5080   -5.1700 O.2   129  TYR129     -0.2867
     60  CB         7.2480   -9.9650   -3.0410 C.3   129  TYR129      0.0534
     61  CG         7.3760   -9.1730   -1.7590 C.ar  129  TYR129     -0.0201
     62  CD1        8.5110   -9.2800   -0.9660 C.ar  129  TYR129     -0.0009
     63  CD2        6.3740   -8.3010   -1.3520 C.ar  129  TYR129     -0.0009
     64  CE1        8.6410   -8.5500    0.2010 C.ar  129  TYR129      0.0417
     65  CE2        6.4950   -7.5660   -0.1840 C.ar  129  TYR129      0.0417
     66  CZ         7.6310   -7.6950    0.5880 C.ar  129  TYR129      0.1957
     67  OH         7.7570   -6.9670    1.7490 O.3   129  TYR129     -0.2866
     68  N         -4.4000  -11.1820    6.6100 N.3   201  TRP201     -0.1241
     69  CA        -3.1390  -10.7340    7.2000 C.3   201  TRP201      0.1605
     70  C         -2.9160  -11.1450    8.6480 C.2   201  TRP201      0.2264
     71  O         -1.7630  -11.1200    9.0920 O.2   201  TRP201     -0.2867
     72  CB        -3.0260   -9.2080    7.1110 C.3   201  TRP201      0.0550
     73  CG        -2.5730   -8.6950    5.7830 C.ar  201  TRP201      0.0003
     74  CD1       -3.3480   -8.4560    4.6860 C.ar  201  TRP201      0.0946
     75  CD2       -1.2360   -8.3360    5.4170 C.ar  201  TRP201      0.0152
     76  NE1       -2.5740   -7.9760    3.6560 N.ar  201  TRP201     -0.2442
     77  CE2       -1.2740   -7.8940    4.0800 C.ar  201  TRP201      0.0810
     78  CE3       -0.0110   -8.3500    6.0890 C.ar  201  TRP201      0.0012
     79  CZ2       -0.1330   -7.4710    3.4030 C.ar  201  TRP201      0.0191
     80  CZ3        1.1190   -7.9280    5.4160 C.ar  201  TRP201      0.0001
     81  CH2        1.0510   -7.4950    4.0880 C.ar  201  TRP201      0.0015
     82  N          4.1680   -7.5340   11.4240 N.3   216  ARG216     -0.1245
     83  CA         4.1980   -7.0920   10.0350 C.3   216  ARG216      0.1563
     84  C          3.7800   -5.6380    9.8590 C.2   216  ARG216      0.2260
     85  O          3.9460   -5.0980    8.7610 O.2   216  ARG216     -0.2867
     86  CB         3.2870   -7.9750    9.1790 C.3   216  ARG216      0.0307
     87  CG         3.4800   -9.4710    9.3610 C.3   216  ARG216      0.0489
     88  CD         2.3790  -10.2330    8.6390 C.3   216  ARG216      0.2205
     89  NE         2.3630  -11.6530    8.9770 N.pl3 216  ARG216     -0.0865
     90  CZ         2.9120  -12.6060    8.2310 C.cat 216  ARG216      0.5346
     91  NH1        3.5250  -12.2940    7.0970 N.pl3 216  ARG216      0.1354
     92  NH2        2.8460  -13.8720    8.6180 N.pl3 216  ARG216      0.1354
     93  N          0.7050   -4.7630    9.9090 N.3   218  VAL218     -0.1245
     94  CA        -0.6140   -4.8460    9.2970 C.3   218  VAL218      0.1561
     95  C         -1.4830   -5.7700   10.1360 C.2   218  VAL218      0.2260
     96  O         -1.0150   -6.8040   10.6240 O.2   218  VAL218     -0.2867
     97  CB        -0.5400   -5.3520    7.8410 C.3   218  VAL218      0.0252
     98  CG1       -1.9060   -5.2780    7.1810 C.3   218  VAL218      0.0019
     99  CG2        0.4860   -4.5600    7.0460 C.3   218  VAL218      0.0019
    100  N         -0.5380  -18.4240    5.4670 N.3   243  HIS243     -0.1241
    101  CA         0.0470  -17.1130    5.7370 C.3   243  HIS243      0.1621
    102  C          1.2950  -17.1720    6.6180 C.2   243  HIS243      0.2264
    103  O          1.8980  -16.1230    6.8820 O.2   243  HIS243     -0.2867
    104  CB        -0.9840  -16.1630    6.3690 C.3   243  HIS243      0.0745
    105  CG        -0.5440  -14.7340    6.4380 C.ar  243  HIS243      0.0817
    106  ND1        0.2090  -14.1360    5.4510 N.ar  243  HIS243     -0.2268
    107  CD2       -0.7560  -13.7830    7.3790 C.ar  243  HIS243      0.1154
    108  CE1        0.4440  -12.8780    5.7820 C.ar  243  HIS243      0.1986
    109  NE2       -0.1300  -12.6390    6.9470 N.ar  243  HIS243     -0.2212
    110  N         10.8210  -23.3380    1.1520 N.3   267  TYR267     -0.1241
    111  CA        10.2760  -22.0320    0.7840 C.3   267  TYR267      0.1605
    112  C         11.3440  -21.0020    0.4200 C.2   267  TYR267      0.2264
    113  O         12.0930  -20.5410    1.2880 O.2   267  TYR267     -0.2867
    114  CB         9.4050  -21.5110    1.9370 C.3   267  TYR267      0.0534
    115  CG         8.9810  -20.0640    1.8300 C.ar  267  TYR267     -0.0201
    116  CD1        8.3870  -19.5760    0.6770 C.ar  267  TYR267     -0.0009
    117  CD2        9.1480  -19.1940    2.9000 C.ar  267  TYR267     -0.0009
    118  CE1        7.9920  -18.2550    0.5830 C.ar  267  TYR267      0.0417
    119  CE2        8.7550  -17.8720    2.8190 C.ar  267  TYR267      0.0417
    120  CZ         8.1760  -17.4050    1.6570 C.ar  267  TYR267      0.1957
    121  OH         7.7840  -16.0840    1.5790 O.3   267  TYR267     -0.2866
@<TRIPOS>BOND
     1    58    59    2
     2    58    57    1
     3     3     4    2
     4     3     2    1
     5    56    57    1
     6    19    20    1
     7    41    40    2
     8    21    22    2
     9    21    20    1
    10    57    60    1
    11     2     1    1
    12     2     5    1
    13    51    50    2
    14    50    49    1
    15    20    23    1
    16    40    39    1
    17    48    49    1
    18    60    61    1
    19    13    14    2
    20    13    12    1
    21    49    52    1
    22     5     6    1
    23    23    24    1
    24    42    39    1
    25    42    43    1
    26    39    38    1
    27    12    11    1
    28    12    15    1
    29     8     6   ar
    30     8    10   ar
    31    61    63   ar
    32    61    62   ar
    33    52    54    1
    34    52    53    1
    35     6     7   ar
    36    44    43   ar
    37    44    46   ar
    38    24    25    1
    39    63    65   ar
    40    43    45   ar
    41    38    32   am
    42    62    64   ar
    43    25    26    1
    44    53    55    1
    45    33    32    2
    46    46    47   ar
    47    10     9   ar
    48    15    16    1
    49    32    31    1
    50     7     9   ar
    51    65    66   ar
    52    17    16   ar
    53    45    47   ar
    54    16    18   ar
    55    64    66   ar
    56    26    27    2
    57   112   111    1
    58   112   113    2
    59    28    27    1
    60   118   116   ar
    61   118   120   ar
    62    66    67    1
    63    30    31    1
    64   116   115   ar
    65    31    34    1
    66   111   110    1
    67   111   114    1
    68    27    29    1
    69   121   120    1
    70   120   119   ar
    71   115   114    1
    72   115   117   ar
    73    34    35    1
    74    36    35    2
    75    35    37   am
    76   119   117   ar
    77    79    77   ar
    78    79    81   ar
    79    76    77   ar
    80    76    74   ar
    81    77    75   ar
    82    81    80   ar
    83    74    73   ar
    84    80    78   ar
    85    75    73   ar
    86    75    78   ar
    87   106   108   ar
    88   106   105   ar
    89   100   101    1
    90   101   104    1
    91   101   102    1
    92   108   109   ar
    93    73    72    1
    94   104   105    1
    95   105   107   ar
    96    68    69    1
    97   102   103    2
    98   109   107   ar
    99    99    97    1
   100    91    90    1
   101    72    69    1
   102    98    97    1
   103    69    70    1
   104    97    94    1
   105    90    92    1
   106    90    89    2
   107    88    89    1
   108    88    87    1
   109    70    71    2
   110    85    84    2
   111    86    87    1
   112    86    83    1
   113    94    93    1
   114    94    95    1
   115    84    83    1
   116    83    82    1
   117    95    96    2
