@<TRIPOS>MOLECULE
tmp/5zqxA00.pdb
 181 175 0 0 0
SMALL
GASTEIGER

@<TRIPOS>ATOM
      1  N        -55.6950   24.3120   34.6300 N.3    14  ASP14      -0.1239
      2  CA       -56.6450   24.7900   33.6270 C.3    14  ASP14       0.1674
      3  C        -57.7030   25.7290   34.2080 C.2    14  ASP14       0.2266
      4  O        -58.9020   25.4530   34.0840 O.2    14  ASP14      -0.2867
      5  CB       -57.3220   23.5910   32.9540 C.3    14  ASP14       0.1410
      6  CG       -56.3170   22.5720   32.4360 C.2    14  ASP14       0.3668
      7  OD1      -55.3370   22.9950   31.7800 O.co2  14  ASP14      -0.2456
      8  OD2      -56.4940   21.3550   32.6910 O.co2  14  ASP14      -0.2456
      9  N        -59.5910   15.4050   36.1370 N.3    31  PHE31      -0.1241
     10  CA       -59.1000   14.1860   35.4850 C.3    31  PHE31       0.1605
     11  C        -59.8340   12.9790   36.0580 C.2    31  PHE31       0.2264
     12  O        -61.0760   12.9670   36.0080 O.2    31  PHE31      -0.2867
     13  CB       -57.5740   14.1940   35.5920 C.3    31  PHE31       0.0534
     14  CG       -56.9640   15.3400   34.8610 C.ar   31  PHE31      -0.0203
     15  CD1      -56.7290   15.2540   33.4990 C.ar   31  PHE31      -0.0042
     16  CD2      -56.7100   16.5390   35.5090 C.ar   31  PHE31      -0.0042
     17  CE1      -56.2150   16.3300   32.8010 C.ar   31  PHE31      -0.0003
     18  CE2      -56.1970   17.6180   34.8170 C.ar   31  PHE31      -0.0003
     19  CZ       -55.9500   17.5160   33.4640 C.ar   31  PHE31      -0.0000
     20  N        -60.6300   16.8800   31.4950 N.3    73  TRP73      -0.1227
     21  CA       -59.5360   17.7790   31.1590 C.3    73  TRP73       0.1737
     22  C        -60.0020   19.2170   31.3700 C.2    73  TRP73       0.2595
     23  O        -60.8890   19.4650   32.1940 O.2    73  TRP73      -0.2718
     24  CB       -59.0570   17.5260   29.7240 C.3    73  TRP73       0.0564
     25  CG       -58.2170   16.2790   29.5810 C.ar   73  TRP73       0.0003
     26  CD1      -58.2240   15.1790   30.3980 C.ar   73  TRP73       0.0946
     27  CD2      -57.2380   16.0160   28.5670 C.ar   73  TRP73       0.0152
     28  NE1      -57.3150   14.2460   29.9470 N.ar   73  TRP73      -0.2442
     29  CE2      -56.6970   14.7390   28.8260 C.ar   73  TRP73       0.0810
     30  CE3      -56.7680   16.7370   27.4640 C.ar   73  TRP73       0.0012
     31  CZ2      -55.7110   14.1710   28.0240 C.ar   73  TRP73       0.0191
     32  CZ3      -55.7900   16.1670   26.6670 C.ar   73  TRP73       0.0001
     33  CH2      -55.2750   14.8960   26.9510 C.ar   73  TRP73       0.0015
     34  N        -59.4170   20.1660   30.6490 N.am   74  ALA74      -0.1980
     35  CA       -59.6990   21.5750   30.9040 C.3    74  ALA74       0.1597
     36  C        -61.1970   21.8580   30.8010 C.2    74  ALA74       0.2287
     37  O        -61.8270   21.4860   29.8000 O.2    74  ALA74      -0.2864
     38  CB       -58.9350   22.4530   29.9190 C.3    74  ALA74       0.0319
     39  N        -56.9310   10.6650   20.4610 N.3    99  LYS99      -0.1245
     40  CA       -57.2310   11.2030   21.7820 C.3    99  LYS99       0.1561
     41  C        -58.7460   11.1550   22.0010 C.2    99  LYS99       0.2260
     42  O        -59.4000   12.1560   22.2710 O.2    99  LYS99      -0.2867
     43  CB       -56.6790   12.6210   21.9230 C.3    99  LYS99       0.0271
     44  CG       -56.4910   13.0910   23.3560 C.3    99  LYS99       0.0035
     45  CD       -55.1130   12.7160   23.8720 C.3    99  LYS99       0.0206
     46  CE       -54.0420   13.5890   23.2470 C.3    99  LYS99       0.1093
     47  NZ       -52.6780   13.1670   23.6650 N.3    99  LYS99      -0.1314
     48  N        -60.1630   18.5320   22.5010 N.3   126  PHE126     -0.1227
     49  CA       -60.3610   18.8810   23.8960 C.3   126  PHE126      0.1736
     50  C        -60.2900   20.4020   24.0760 C.2   126  PHE126      0.2595
     51  O        -60.2990   21.1700   23.1050 O.2   126  PHE126     -0.2718
     52  CB       -59.3520   18.1290   24.7780 C.3   126  PHE126      0.0547
     53  CG       -57.9470   18.0930   24.2240 C.ar  126  PHE126     -0.0202
     54  CD1      -57.0460   19.1110   24.5130 C.ar  126  PHE126     -0.0042
     55  CD2      -57.5220   17.0300   23.4370 C.ar  126  PHE126     -0.0042
     56  CE1      -55.7510   19.0800   24.0100 C.ar  126  PHE126     -0.0003
     57  CE2      -56.2370   16.9900   22.9330 C.ar  126  PHE126     -0.0003
     58  CZ       -55.3470   18.0160   23.2170 C.ar  126  PHE126     -0.0000
     59  N        -60.2280   20.8400   25.3340 N.am  127  ASP127     -0.1974
     60  CA       -60.3190   22.2490   25.7070 C.3   127  ASP127      0.1709
     61  C        -61.5570   22.9500   25.1360 C.2   127  ASP127      0.2293
     62  O        -61.4480   24.0310   24.5530 O.2   127  ASP127     -0.2864
     63  CB       -59.0610   23.0000   25.2890 C.3   127  ASP127      0.1436
     64  CG       -57.8370   22.5730   26.0580 C.2   127  ASP127      0.3671
     65  OD1      -57.9780   21.8030   27.0320 O.co2 127  ASP127     -0.2456
     66  OD2      -56.7290   23.0050   25.6770 O.co2 127  ASP127     -0.2456
     67  N        -52.1040   19.0700   16.7640 N.3   154  PHE154     -0.1241
     68  CA       -52.8920   20.2480   17.1160 C.3   154  PHE154      0.1605
     69  C        -53.1490   21.0170   15.8230 C.2   154  PHE154      0.2264
     70  O        -52.3090   21.8000   15.3720 O.2   154  PHE154     -0.2867
     71  CB       -52.1620   21.0930   18.1560 C.3   154  PHE154      0.0534
     72  CG       -52.0300   20.4260   19.5020 C.ar  154  PHE154     -0.0203
     73  CD1      -51.1900   19.3320   19.6760 C.ar  154  PHE154     -0.0042
     74  CD2      -52.7310   20.9050   20.5970 C.ar  154  PHE154     -0.0042
     75  CE1      -51.0620   18.7230   20.9140 C.ar  154  PHE154     -0.0003
     76  CE2      -52.6130   20.3000   21.8360 C.ar  154  PHE154     -0.0003
     77  CZ       -51.7770   19.2090   21.9970 C.ar  154  PHE154     -0.0000
     78  N        -48.8020   23.3790   19.1670 N.3   184  LEU184     -0.1245
     79  CA       -49.6600   22.7940   20.1990 C.3   184  LEU184      0.1561
     80  C        -50.7150   23.8030   20.6450 C.2   184  LEU184      0.2260
     81  O        -50.9850   23.9690   21.8370 O.2   184  LEU184     -0.2867
     82  CB       -48.8470   22.2860   21.3940 C.3   184  LEU184      0.0270
     83  CG       -47.9450   21.0780   21.1290 C.3   184  LEU184      0.0019
     84  CD1      -46.5220   21.5310   20.8680 C.3   184  LEU184      0.0001
     85  CD2      -47.9940   20.0900   22.2820 C.3   184  LEU184      0.0001
     86  N        -53.9480   25.3880   21.7220 N.3   186  GLN186     -0.1245
     87  CA       -55.1050   24.8110   22.4010 C.3   186  GLN186      0.1566
     88  C        -55.7060   25.8700   23.3210 C.2   186  GLN186      0.2260
     89  O        -55.4070   27.0620   23.2000 O.2   186  GLN186     -0.2867
     90  CB       -54.6970   23.5390   23.1550 C.3   186  GLN186      0.0367
     91  CG       -53.6420   23.7790   24.2200 C.3   186  GLN186      0.0905
     92  CD       -53.2470   22.5170   24.9540 C.2   186  GLN186      0.2608
     93  OE1      -52.0600   22.2110   25.0870 O.2   186  GLN186     -0.2717
     94  NE2      -54.2390   21.7760   25.4400 N.am  186  GLN186     -0.0878
     95  N        -47.4480   23.1560   24.7180 N.3   205  GLY205     -0.1210
     96  CA       -47.6200   22.0300   25.6050 C.3   205  GLY205      0.1956
     97  C        -47.4250   22.4320   27.0550 C.2   205  GLY205      0.2613
     98  O        -46.8160   23.4500   27.3800 O.2   205  GLY205     -0.2717
     99  N        -47.9550   21.6060   27.9440 N.am  206  THR206     -0.1938
    100  CA       -48.0760   21.9920   29.3400 C.3   206  THR206      0.2028
    101  C        -46.8300   21.6870   30.1580 C.2   206  THR206      0.2642
    102  O        -46.8790   21.7760   31.3890 O.2   206  THR206     -0.2714
    103  CB       -49.2980   21.3250   29.9690 C.3   206  THR206      0.1808
    104  OG1      -49.6250   22.0050   31.1870 O.3   206  THR206     -0.2208
    105  CG2      -49.0320   19.8460   30.2490 C.3   206  THR206      0.0379
    106  N        -45.7140   21.3450   29.5120 N.am  207  ARG207     -0.1977
    107  CA       -44.4500   21.2420   30.2350 C.3   207  ARG207      0.1597
    108  C        -43.7730   22.6080   30.2300 C.2   207  ARG207      0.2287
    109  O        -44.4580   23.6270   30.3350 O.2   207  ARG207     -0.2864
    110  CB       -43.5560   20.1510   29.6340 C.3   207  ARG207      0.0334
    111  CG       -44.1850   18.7520   29.7040 C.3   207  ARG207      0.0492
    112  CD       -43.1650   17.6480   29.4640 C.3   207  ARG207      0.2205
    113  NE       -43.7860   16.3290   29.2890 N.pl3 207  ARG207     -0.0865
    114  CZ       -43.8440   15.4020   30.2410 C.cat 207  ARG207      0.5346
    115  NH1      -44.4110   14.2260   30.0030 N.pl3 207  ARG207      0.1354
    116  NH2      -43.3240   15.6510   31.4380 N.pl3 207  ARG207      0.1354
    117  N        -44.6790   25.8800   27.9110 N.3   210  HIS210     -0.1241
    118  CA       -46.0300   26.4300   27.9620 C.3   210  HIS210      0.1621
    119  C        -46.0280   27.9400   27.7570 C.2   210  HIS210      0.2264
    120  O        -45.1540   28.6510   28.2600 O.2   210  HIS210     -0.2867
    121  CB       -46.6710   26.1020   29.3160 C.3   210  HIS210      0.0745
    122  CG       -48.1490   25.8550   29.2570 C.ar  210  HIS210      0.0817
    123  ND1      -48.9420   25.8310   30.3860 N.ar  210  HIS210     -0.2268
    124  CD2      -48.9730   25.5980   28.2140 C.ar  210  HIS210      0.1154
    125  CE1      -50.1920   25.5770   30.0390 C.ar  210  HIS210      0.1986
    126  NE2      -50.2380   25.4320   28.7260 N.ar  210  HIS210     -0.2212
    127  N        -52.1620   28.3280   29.5100 N.3   248  HIS248     -0.1241
    128  CA       -53.5720   27.9500   29.6180 C.3   248  HIS248      0.1621
    129  C        -54.3340   28.9520   30.4890 C.2   248  HIS248      0.2264
    130  O        -54.7680   28.6630   31.6050 O.2   248  HIS248     -0.2867
    131  CB       -53.7320   26.5260   30.1570 C.3   248  HIS248      0.0745
    132  CG       -55.0250   25.8840   29.7660 C.ar  248  HIS248      0.0817
    133  ND1      -55.0880   24.7110   29.0460 N.ar  248  HIS248     -0.2268
    134  CD2      -56.3080   26.2650   29.9750 C.ar  248  HIS248      0.1154
    135  CE1      -56.3520   24.3910   28.8370 C.ar  248  HIS248      0.1986
    136  NE2      -57.1130   25.3190   29.3890 N.ar  248  HIS248     -0.2212
    137  N        -52.4480   28.4720   34.6600 N.3   264  LEU264     -0.1245
    138  CA       -51.8190   27.3950   35.4070 C.3   264  LEU264      0.1561
    139  C        -50.3160   27.6290   35.5070 C.2   264  LEU264      0.2260
    140  O        -49.7290   28.4170   34.7600 O.2   264  LEU264     -0.2867
    141  CB       -52.1210   26.0270   34.7800 C.3   264  LEU264      0.0270
    142  CG       -51.5150   25.5020   33.4780 C.3   264  LEU264      0.0019
    143  CD1      -50.1090   24.9650   33.6920 C.3   264  LEU264      0.0001
    144  CD2      -52.4160   24.4030   32.9030 C.3   264  LEU264      0.0001
    145  N        -49.9230   21.0040   38.6560 N.3   287  ARG287     -0.1245
    146  CA       -50.1470   22.3150   38.0690 C.3   287  ARG287      0.1563
    147  C        -51.1590   23.0610   38.9270 C.2   287  ARG287      0.2260
    148  O        -52.2520   22.5520   39.1990 O.2   287  ARG287     -0.2867
    149  CB       -50.6190   22.1820   36.6240 C.3   287  ARG287      0.0307
    150  CG       -49.5380   21.5970   35.7240 C.3   287  ARG287      0.0489
    151  CD       -50.0770   21.2480   34.3590 C.3   287  ARG287      0.2205
    152  NE       -51.1430   20.2580   34.4370 N.pl3 287  ARG287     -0.0865
    153  CZ       -52.0330   20.0650   33.4720 C.cat 287  ARG287      0.5346
    154  NH1      -51.9770   20.8010   32.3700 N.pl3 287  ARG287      0.1354
    155  NH2      -52.9850   19.1580   33.6100 N.pl3 287  ARG287      0.1354
    156  N        -48.5760    9.1630   28.3070 N.3   501  GLY501     -0.1225
    157  CA       -49.1340   10.3590   27.7000 C.3   501  GLY501      0.1811
    158  C        -49.9960   11.2130   28.6050 C.2   501  GLY501      0.2280
    159  O        -50.3440   12.3380   28.2280 O.2   501  GLY501     -0.2866
    160  N        -50.0320   13.0720   32.1590 N.3   503  PHE503     -0.1227
    161  CA       -49.1420   13.5070   33.2390 C.3   503  PHE503      0.1736
    162  C        -49.6870   14.7860   33.8680 C.2   503  PHE503      0.2595
    163  O        -48.9760   15.7760   34.0480 O.2   503  PHE503     -0.2718
    164  CB       -47.7120   13.7060   32.7190 C.3   503  PHE503      0.0547
    165  CG       -47.6180   14.5740   31.4840 C.ar  503  PHE503     -0.0202
    166  CD1      -47.7790   14.0260   30.2190 C.ar  503  PHE503     -0.0042
    167  CD2      -47.3530   15.9340   31.5880 C.ar  503  PHE503     -0.0042
    168  CE1      -47.6930   14.8190   29.0870 C.ar  503  PHE503     -0.0003
    169  CE2      -47.2690   16.7330   30.4620 C.ar  503  PHE503     -0.0003
    170  CZ       -47.4400   16.1730   29.2070 C.ar  503  PHE503     -0.0000
    171  N        -50.9670   14.7580   34.2510 N.am  504  PHE504     -0.1976
    172  CA       -51.7420   15.9810   34.4100 C.3   504  PHE504      0.1639
    173  C        -52.3340   16.2040   35.7970 C.2   504  PHE504      0.2290
    174  O        -53.1420   17.1280   35.9580 O.2   504  PHE504     -0.2864
    175  CB       -52.8680   15.9960   33.3770 C.3   504  PHE504      0.0560
    176  CG       -52.3970   15.7710   31.9710 C.ar  504  PHE504     -0.0200
    177  CD1      -51.2380   16.3800   31.5100 C.ar  504  PHE504     -0.0042
    178  CD2      -53.1090   14.9500   31.1090 C.ar  504  PHE504     -0.0042
    179  CE1      -50.7950   16.1740   30.2160 C.ar  504  PHE504     -0.0003
    180  CE2      -52.6710   14.7410   29.8130 C.ar  504  PHE504     -0.0003
    181  CZ       -51.5140   15.3530   29.3690 C.ar  504  PHE504     -0.0000
@<TRIPOS>BOND
     1    70    69    2
     2    69    68    1
     3    67    68    1
     4    68    71    1
     5    71    72    1
     6    78    79    1
     7    72    73   ar
     8    72    74   ar
     9    73    75   ar
    10    79    80    1
    11    79    82    1
    12    39    40    1
    13    74    76   ar
    14    80    81    2
    15    84    83    1
    16    75    77   ar
    17    83    82    1
    18    83    85    1
    19    86    87    1
    20    40    43    1
    21    40    41    1
    22    76    77   ar
    23    43    44    1
    24    41    42    2
    25    87    90    1
    26    87    88    1
    27    48    49    1
    28    57    58   ar
    29    57    55   ar
    30    51    50    2
    31    90    91    1
    32    89    88    2
    33    58    56   ar
    34    46    47    1
    35    46    45    1
    36    44    45    1
    37    55    53   ar
    38    49    50    1
    39    49    52    1
    40    56    54   ar
    41    50    59   am
    42    91    92    1
    43    53    54   ar
    44    53    52    1
    45    62    61    2
    46    95    96    1
    47    92    93    2
    48    92    94   am
    49    61    60    1
    50    63    60    1
    51    63    64    1
    52    59    60    1
    53    96    97    1
    54    66    64   ar
    55    64    65   ar
    56    32    33   ar
    57    32    30   ar
    58    33    31   ar
    59    97    98    2
    60    97    99   am
    61    30    27   ar
    62   157   156    1
    63   157   158    1
    64   119   118    1
    65   119   120    2
    66   117   118    1
    67    99   100    1
    68   118   121    1
    69    31    29   ar
    70   124   126   ar
    71   124   122   ar
    72   159   158    2
    73    27    29   ar
    74    27    25   ar
    75   126   125   ar
    76    29    28   ar
    77   135   133   ar
    78   135   136   ar
    79   133   132   ar
    80   168   170   ar
    81   168   166   ar
    82   170   169   ar
    83   122   121    1
    84   122   123   ar
    85   113   112    1
    86   113   114    2
    87   100   103    1
    88   100   101    1
    89   181   180   ar
    90   181   179   ar
    91   136   134   ar
    92   112   111    1
    93   127   128    1
    94   106   101   am
    95   106   107    1
    96    25    24    1
    97    25    26   ar
    98   128   131    1
    99   128   129    1
   100   110   111    1
   101   110   107    1
   102    24    21    1
   103   132   134   ar
   104   132   131    1
   105    37    36    2
   106   180   178   ar
   107    38    35    1
   108    28    26   ar
   109   103   105    1
   110   103   104    1
   111   115   114    1
   112   125   123   ar
   113   101   102    2
   114   179   177   ar
   115   166   165   ar
   116   108   107    1
   117   108   109    2
   118   114   116    1
   119   169   167   ar
   120   129   130    2
   121    34    35    1
   122    34    22   am
   123    36    35    1
   124   178   176   ar
   125    21    22    1
   126    21    20    1
   127    22    23    2
   128   165   167   ar
   129   165   164    1
   130   177   176   ar
   131     7     6   ar
   132   176   175    1
   133   160   161    1
   134   154   153    1
   135     6     8   ar
   136     6     5    1
   137   164   161    1
   138    17    19   ar
   139    17    15   ar
   140   144   142    1
   141     5     2    1
   142   161   162    1
   143   175   172    1
   144    19    18   ar
   145   153   155    1
   146   153   152    2
   147   142   143    1
   148   142   141    1
   149    15    14   ar
   150     2     3    1
   151     2     1    1
   152   162   163    2
   153   162   171   am
   154     4     3    2
   155   171   172    1
   156   151   152    1
   157   151   150    1
   158   172   173    1
   159   137   138    1
   160   140   139    2
   161   141   138    1
   162    18    16   ar
   163    14    16   ar
   164    14    13    1
   165   138   139    1
   166    10    13    1
   167    10    11    1
   168    10     9    1
   169   150   149    1
   170   173   174    2
   171    12    11    2
   172   149   146    1
   173   146   145    1
   174   146   147    1
   175   147   148    2
