@<TRIPOS>MOLECULE
tmp/5zr1E00.pdb
 152 148 0 0 0
SMALL
GASTEIGER

@<TRIPOS>ATOM
      1  N        120.1220  174.3880  106.4100 N.3     8  VAL8       -0.1231
      2  CA       120.5830  174.0660  107.7530 C.3     8  VAL8        0.1692
      3  C        121.6140  175.1270  108.1170 C.2     8  VAL8        0.2592
      4  O        122.3210  175.6370  107.2430 O.2     8  VAL8       -0.2718
      5  CB       121.1410  172.6260  107.8000 C.3     8  VAL8        0.0266
      6  CG1      121.5050  172.2010  109.2120 C.3     8  VAL8        0.0020
      7  CG2      120.1350  171.6610  107.2070 C.3     8  VAL8        0.0020
      8  N        121.6830  175.4790  109.4060 N.am    9  ALA9       -0.1966
      9  CA       122.2730  176.7450  109.8340 C.3     9  ALA9        0.1728
     10  C        123.7790  176.7890  109.6050 C.2     9  ALA9        0.2616
     11  O        124.2760  177.6180  108.8350 O.2     9  ALA9       -0.2715
     12  CB       121.9500  176.9900  111.3080 C.3     9  ALA9        0.0334
     13  N        124.5250  175.9060  110.2600 N.am   10  PHE10      -0.1960
     14  CA       125.9790  175.9260  110.1820 C.3    10  PHE10       0.1771
     15  C        126.5240  174.7020  109.4590 C.2    10  PHE10       0.2619
     16  O        127.6580  174.2820  109.6940 O.2    10  PHE10      -0.2715
     17  CB       126.5730  176.0520  111.5790 C.3    10  PHE10       0.0574
     18  CG       126.2400  177.3510  112.2490 C.ar   10  PHE10      -0.0200
     19  CD1      126.9420  178.5040  111.9390 C.ar   10  PHE10      -0.0042
     20  CD2      125.2090  177.4250  113.1680 C.ar   10  PHE10      -0.0042
     21  CE1      126.6340  179.7000  112.5480 C.ar   10  PHE10      -0.0003
     22  CE2      124.8940  178.6160  113.7750 C.ar   10  PHE10      -0.0003
     23  CZ       125.6070  179.7540  113.4670 C.ar   10  PHE10      -0.0000
     24  N        125.7200  174.1340  108.5630 N.am   11  ARG11      -0.1977
     25  CA       126.0580  172.9270  107.8260 C.3    11  ARG11       0.1597
     26  C        125.8680  173.1480  106.3330 C.2    11  ARG11       0.2287
     27  O        125.4170  172.2430  105.6260 O.2    11  ARG11      -0.2864
     28  CB       125.1760  171.7590  108.2600 C.3    11  ARG11       0.0334
     29  CG       125.1580  171.4380  109.7390 C.3    11  ARG11       0.0492
     30  CD       126.3120  170.6020  110.2580 C.3    11  ARG11       0.2205
     31  NE       127.4860  171.3710  110.6420 N.pl3  11  ARG11      -0.0865
     32  CZ       128.5760  170.8250  111.1690 C.cat  11  ARG11       0.5346
     33  NH1      129.6120  171.5790  111.4890 N.pl3  11  ARG11       0.1354
     34  NH2      128.6070  169.5290  111.4190 N.pl3  11  ARG11       0.1354
     35  N        129.8360  163.1570  118.2420 N.3    39  SER39      -0.1202
     36  CA       128.5190  163.2670  118.8490 C.3    39  SER39       0.2020
     37  C        128.0700  164.7170  118.9160 C.2    39  SER39       0.2619
     38  O        128.8680  165.6230  119.1630 O.2    39  SER39      -0.2717
     39  CB       128.5330  162.6650  120.2480 C.3    39  SER39       0.2103
     40  OG       127.2670  162.8090  120.8610 O.3    39  SER39      -0.2182
     41  N        126.7800  164.9330  118.6800 N.am   40  GLY40      -0.1942
     42  CA       126.1990  166.2550  118.7520 C.3    40  GLY40       0.2014
     43  C        126.5570  167.1860  117.6200 C.2    40  GLY40       0.2640
     44  O        126.2560  168.3780  117.7060 O.2    40  GLY40      -0.2714
     45  N        127.1800  166.6870  116.5560 N.am   41  THR41      -0.1936
     46  CA       127.6400  167.5310  115.4630 C.3    41  THR41       0.2028
     47  C        126.5910  167.7450  114.3880 C.2    41  THR41       0.2643
     48  O        126.9260  168.2490  113.3130 O.2    41  THR41      -0.2714
     49  CB       128.8970  166.9480  114.8300 C.3    41  THR41       0.1808
     50  OG1      128.6240  165.6170  114.3860 O.3    41  THR41      -0.2208
     51  CG2      130.0310  166.9310  115.8300 C.3    41  THR41       0.0379
     52  N        125.3430  167.3770  114.6460 N.am   42  GLY42      -0.1939
     53  CA       124.2530  167.7410  113.7660 C.3    42  GLY42       0.2014
     54  C        124.2410  167.0000  112.4530 C.2    42  GLY42       0.2639
     55  O        124.1140  167.6180  111.3960 O.2    42  GLY42      -0.2714
     56  N        124.3740  165.6780  112.4960 N.am   43  LYS43      -0.1963
     57  CA       124.4060  164.8910  111.2790 C.3    43  LYS43       0.1728
     58  C        123.2090  163.9820  111.1020 C.2    43  LYS43       0.2617
     59  O        123.0260  163.4520  110.0040 O.2    43  LYS43      -0.2715
     60  CB       125.6930  164.0570  111.2010 C.3    43  LYS43       0.0311
     61  CG       125.8530  163.0310  112.2710 C.3    43  LYS43       0.0038
     62  CD       127.2020  162.3830  112.1760 C.3    43  LYS43       0.0206
     63  CE       127.3920  161.4230  113.3110 C.3    43  LYS43       0.1093
     64  NZ       127.4880  162.1150  114.6120 N.3    43  LYS43      -0.1314
     65  N        122.4030  163.7690  112.1360 N.am   44  THR44      -0.1937
     66  CA       121.0570  163.2600  111.9300 C.3    44  THR44       0.2028
     67  C        120.0450  164.3820  111.8180 C.2    44  THR44       0.2642
     68  O        118.9170  164.1370  111.3880 O.2    44  THR44      -0.2714
     69  CB       120.6330  162.3360  113.0690 C.3    44  THR44       0.1808
     70  OG1      120.5220  163.0920  114.2760 O.3    44  THR44      -0.2208
     71  CG2      121.6580  161.2730  113.2690 C.3    44  THR44       0.0379
     72  N        120.4200  165.5970  112.2180 N.am   45  TYR45      -0.1973
     73  CA       119.5600  166.7500  111.9990 C.3    45  TYR45       0.1639
     74  C        119.4710  167.0700  110.5170 C.2    45  TYR45       0.2290
     75  O        118.3850  167.0710  109.9340 O.2    45  TYR45      -0.2864
     76  CB       120.0830  167.9560  112.7770 C.3    45  TYR45       0.0560
     77  CG       119.2030  169.1850  112.6720 C.ar   45  TYR45      -0.0198
     78  CD1      118.0440  169.2970  113.4250 C.ar   45  TYR45      -0.0009
     79  CD2      119.5300  170.2260  111.8110 C.ar   45  TYR45      -0.0009
     80  CE1      117.2410  170.4090  113.3310 C.ar   45  TYR45       0.0417
     81  CE2      118.7290  171.3400  111.7070 C.ar   45  TYR45       0.0417
     82  CZ       117.5880  171.4260  112.4710 C.ar   45  TYR45       0.1957
     83  OH       116.7880  172.5380  112.3720 O.3    45  TYR45      -0.2866
     84  N        130.9900  157.6440  113.9380 N.3   171  LEU171     -0.1245
     85  CA       131.5040  158.6260  114.8850 C.3   171  LEU171      0.1561
     86  C        133.0160  158.8170  114.8400 C.2   171  LEU171      0.2260
     87  O        133.4910  159.9310  114.6070 O.2   171  LEU171     -0.2867
     88  CB       131.0780  158.2260  116.3050 C.3   171  LEU171      0.0270
     89  CG       129.6220  158.4260  116.7160 C.3   171  LEU171      0.0019
     90  CD1      129.3140  157.5970  117.9260 C.3   171  LEU171      0.0001
     91  CD2      129.3930  159.8670  117.0550 C.3   171  LEU171      0.0001
     92  N        131.3270  171.8870  116.3940 N.3   192  TYR192     -0.1241
     93  CA       130.9090  173.2690  116.2660 C.3   192  TYR192      0.1605
     94  C        131.8430  174.1910  117.0440 C.2   192  TYR192      0.2264
     95  O        132.6530  173.7560  117.8660 O.2   192  TYR192     -0.2867
     96  CB       129.4750  173.4490  116.7530 C.3   192  TYR192      0.0534
     97  CG       128.4280  172.7950  115.8860 C.ar  192  TYR192     -0.0201
     98  CD1      128.1310  173.3100  114.6380 C.ar  192  TYR192     -0.0009
     99  CD2      127.6900  171.7130  116.3420 C.ar  192  TYR192     -0.0009
    100  CE1      127.1760  172.7390  113.8440 C.ar  192  TYR192      0.0417
    101  CE2      126.7190  171.1410  115.5540 C.ar  192  TYR192      0.0417
    102  CZ       126.4680  171.6620  114.3060 C.ar  192  TYR192      0.1957
    103  OH       125.5120  171.1160  113.4930 O.3   192  TYR192     -0.2866
    104  N        122.9350  177.6830  117.8470 N.3   200  ILE200     -0.1245
    105  CA       122.0920  176.4980  117.7290 C.3   200  ILE200      0.1561
    106  C        121.2770  176.2880  118.9950 C.2   200  ILE200      0.2260
    107  O        120.0820  175.9780  118.9360 O.2   200  ILE200     -0.2867
    108  CB       122.9690  175.2800  117.3880 C.3   200  ILE200      0.0252
    109  CG1      123.4010  175.3490  115.9270 C.3   200  ILE200      0.0019
    110  CG2      122.2880  173.9670  117.7210 C.3   200  ILE200      0.0019
    111  CD1      124.4710  174.3840  115.5870 C.3   200  ILE200      0.0001
    112  N        118.2950  178.8690  119.2360 N.3   203  MET203     -0.1230
    113  CA       117.1620  178.6510  118.3510 C.3   203  MET203      0.1702
    114  C        116.4640  177.3320  118.6280 C.2   203  MET203      0.2593
    115  O        115.3180  177.1500  118.2030 O.2   203  MET203     -0.2718
    116  CB       117.5910  178.6920  116.8810 C.3   203  MET203      0.0401
    117  CG       118.4710  177.5370  116.4430 C.3   203  MET203      0.0596
    118  SD       118.8570  177.5710  114.6800 S.3   203  MET203     -0.1393
    119  CE       120.0090  178.9340  114.5990 C.3   203  MET203      0.0692
    120  N        117.1210  176.4170  119.3350 N.am  204  SER204     -0.1952
    121  CA       116.5200  175.1460  119.7050 C.3   204  SER204      0.1924
    122  C        115.7260  175.2210  120.9980 C.2   204  SER204      0.2314
    123  O        114.7460  174.4840  121.1530 O.2   204  SER204     -0.2863
    124  CB       117.6010  174.0720  119.8440 C.3   204  SER204      0.2116
    125  OG       117.0480  172.8360  120.2490 O.3   204  SER204     -0.2180
    126  N        126.3970  169.6710  122.6400 N.3   255  ILE255     -0.1231
    127  CA       125.0340  170.1640  122.6440 C.3   255  ILE255      0.1692
    128  C        124.2220  169.5340  123.7700 C.2   255  ILE255      0.2592
    129  O        123.3930  170.2160  124.3840 O.2   255  ILE255     -0.2718
    130  CB       124.3690  169.9050  121.2720 C.3   255  ILE255      0.0266
    131  CG1      125.1980  170.5210  120.1470 C.3   255  ILE255      0.0019
    132  CG2      122.9640  170.4800  121.1990 C.3   255  ILE255      0.0020
    133  CD1      125.3040  172.0210  120.2140 C.3   255  ILE255      0.0001
    134  N        124.4920  168.2740  124.1030 N.am  256  PHE256     -0.1976
    135  CA       123.6760  167.5200  125.0430 C.3   256  PHE256      0.1639
    136  C        124.0610  167.7950  126.4870 C.2   256  PHE256      0.2290
    137  O        123.2320  167.6250  127.3870 O.2   256  PHE256     -0.2864
    138  CB       123.8040  166.0330  124.7220 C.3   256  PHE256      0.0560
    139  CG       123.2390  165.6610  123.3850 C.ar  256  PHE256     -0.0200
    140  CD1      122.1820  166.3710  122.8420 C.ar  256  PHE256     -0.0042
    141  CD2      123.8230  164.6610  122.6300 C.ar  256  PHE256     -0.0042
    142  CE1      121.6780  166.0470  121.6030 C.ar  256  PHE256     -0.0003
    143  CE2      123.3260  164.3370  121.3860 C.ar  256  PHE256     -0.0003
    144  CZ       122.2540  165.0300  120.8730 C.ar  256  PHE256     -0.0000
    145  N        122.3710  171.2190  126.9900 N.3   259  ASN259     -0.1240
    146  CA       120.9340  171.0160  127.1480 C.3   259  ASN259      0.1653
    147  C        120.5570  170.4490  128.5080 C.2   259  ASN259      0.2266
    148  O        119.4150  170.6280  128.9410 O.2   259  ASN259     -0.2867
    149  CB       120.4020  170.0910  126.0550 C.3   259  ASN259      0.1155
    150  CG       120.1540  170.8080  124.7560 C.2   259  ASN259      0.2627
    151  OD1      119.5850  171.8940  124.7410 O.2   259  ASN259     -0.2716
    152  ND2      120.5680  170.2030  123.6550 N.am  259  ASN259     -0.0877
@<TRIPOS>BOND
     1    27    26    2
     2    26    25    1
     3     1     2    1
     4     7     5    1
     5     4     3    2
     6     2     5    1
     7     2     3    1
     8     5     6    1
     9    25    28    1
    10    25    24    1
    11     3     8   am
    12    28    29    1
    13    24    15   am
    14    11    10    2
    15     8     9    1
    16    15    16    2
    17    15    14    1
    18    10     9    1
    19    10    13   am
    20    29    30    1
    21     9    12    1
    22    75    74    2
    23    59    58    2
    24    14    13    1
    25    14    17    1
    26    30    31    1
    27    74    73    1
    28    31    32    2
    29    58    57    1
    30    58    65   am
    31    32    34    1
    32    32    33    1
    33    60    57    1
    34    60    61    1
    35    57    56    1
    36    68    67    2
    37    55    54    2
    38    17    18    1
    39    81    79   ar
    40    81    82   ar
    41    79    77   ar
    42    67    66    1
    43    67    72   am
    44    66    65    1
    45    66    69    1
    46    19    18   ar
    47    19    21   ar
    48    73    72    1
    49    73    76    1
    50    62    61    1
    51    62    63    1
    52    18    20   ar
    53    83    82    1
    54    54    56   am
    55    54    53    1
    56    82    80   ar
    57    21    23   ar
    58    77    76    1
    59    77    78   ar
    60    69    71    1
    61    69    70    1
    62    20    22   ar
    63    63    64    1
    64    48    47    2
    65    80    78   ar
    66    23    22   ar
    67   103   102    1
    68    53    52    1
    69   100   102   ar
    70   100    98   ar
    71    84    85    1
    72   102   101   ar
    73    50    49    1
    74    47    52   am
    75    47    46    1
    76   119   118    1
    77    87    86    2
    78    98    97   ar
    79   118   117    1
    80    49    46    1
    81    49    51    1
    82    86    85    1
    83    85    88    1
    84    46    45    1
    85   101    99   ar
    86   111   109    1
    87    97    99   ar
    88    97    96    1
    89   109   108    1
    90    93    92    1
    91    93    96    1
    92    93    94    1
    93    88    89    1
    94   117   116    1
    95    45    43   am
    96    89    91    1
    97    89    90    1
    98   116   113    1
    99    94    95    2
   100   108   110    1
   101   108   105    1
   102    43    44    2
   103    43    42    1
   104   105   104    1
   105   105   106    1
   106   115   114    2
   107    35    36    1
   108   113   114    1
   109   113   112    1
   110   114   120   am
   111    41    42    1
   112    41    37   am
   113    36    37    1
   114    36    39    1
   115    37    38    2
   116   107   106    2
   117   120   121    1
   118   121   124    1
   119   121   122    1
   120   124   125    1
   121   131   133    1
   122   131   130    1
   123    39    40    1
   124   144   143   ar
   125   144   142   ar
   126   122   123    2
   127   132   130    1
   128   130   127    1
   129   143   141   ar
   130   142   140   ar
   131   141   139   ar
   132   126   127    1
   133   127   128    1
   134   140   139   ar
   135   139   138    1
   136   152   150   am
   137   128   134   am
   138   128   129    2
   139   134   135    1
   140   138   135    1
   141   151   150    2
   142   150   149    1
   143   135   136    1
   144   149   146    1
   145   136   137    2
   146   145   146    1
   147   146   147    1
   148   147   148    2
