@<TRIPOS>MOLECULE
tmp/5zr1A00.pdb
 195 189 0 0 0
SMALL
GASTEIGER

@<TRIPOS>ATOM
      1  N        144.7570  117.9650   81.4530 N.3    78  SER78      -0.1217
      2  CA       144.9640  116.8530   82.3700 C.3    78  SER78       0.1889
      3  C        143.9030  115.7710   82.2270 C.2    78  SER78       0.2288
      4  O        144.1410  114.6320   82.6410 O.2    78  SER78      -0.2866
      5  CB       144.9960  117.3660   83.8070 C.3    78  SER78       0.2089
      6  OG       146.0820  118.2550   84.0010 O.3    78  SER78      -0.2183
      7  N        147.3460  103.4330   79.5340 N.3    81  TYR81      -0.1227
      8  CA       148.6570  103.6400   78.9320 C.3    81  TYR81       0.1736
      9  C        149.3500  104.8730   79.5030 C.2    81  TYR81       0.2595
     10  O        149.0370  106.0050   79.1370 O.2    81  TYR81      -0.2718
     11  CB       148.5360  103.7640   77.4130 C.3    81  TYR81       0.0548
     12  CG       149.8590  103.9710   76.7160 C.ar   81  TYR81      -0.0200
     13  CD1      150.7740  102.9320   76.6020 C.ar   81  TYR81      -0.0009
     14  CD2      150.1880  105.2000   76.1600 C.ar   81  TYR81      -0.0009
     15  CE1      151.9870  103.1160   75.9620 C.ar   81  TYR81       0.0417
     16  CE2      151.3950  105.3920   75.5170 C.ar   81  TYR81       0.0417
     17  CZ       152.2900  104.3480   75.4210 C.ar   81  TYR81       0.1957
     18  OH       153.4910  104.5420   74.7810 O.3    81  TYR81      -0.2866
     19  N        150.3050  104.6360   80.4040 N.am   82  LEU82      -0.1966
     20  CA       151.0520  105.6950   81.0530 C.3    82  LEU82       0.1713
     21  C        152.4890  105.2300   81.2730 C.2    82  LEU82       0.2458
     22  O        152.7100  104.1140   81.7790 O.2    82  LEU82      -0.2730
     23  CB       150.3640  106.1100   82.3600 C.3    82  LEU82       0.0310
     24  CG       149.9150  105.0790   83.4000 C.3    82  LEU82       0.0022
     25  CD1      150.9540  104.8320   84.4470 C.3    82  LEU82       0.0001
     26  CD2      148.6150  105.5200   84.0440 C.3    82  LEU82       0.0001
     27  N        153.4790  106.0270   80.8660 N.am   83  PRO83      -0.2716
     28  CA       154.8340  105.4900   80.6870 C.3    83  PRO83       0.1536
     29  C        155.6850  105.3690   81.9440 C.2    83  PRO83       0.2598
     30  O        156.4440  104.4050   82.0780 O.2    83  PRO83      -0.2715
     31  CB       155.4610  106.4850   79.7030 C.3    83  PRO83       0.0310
     32  CG       154.7570  107.7720   79.9810 C.3    83  PRO83       0.0237
     33  CD       153.3550  107.4100   80.3720 C.3    83  PRO83       0.0939
     34  N        155.5840  106.3180   82.8690 N.am   84  ALA84      -0.1964
     35  CA       156.5900  106.4600   83.9110 C.3    84  ALA84       0.1728
     36  C        156.1680  105.8780   85.2500 C.2    84  ALA84       0.2616
     37  O        156.9200  105.9950   86.2220 O.2    84  ALA84      -0.2715
     38  CB       156.9640  107.9320   84.0790 C.3    84  ALA84       0.0334
     39  N        154.9920  105.2660   85.3310 N.am   85  ARG85      -0.1977
     40  CA       154.5740  104.5020   86.5030 C.3    85  ARG85       0.1597
     41  C        154.2430  103.0990   86.0180 C.2    85  ARG85       0.2287
     42  O        153.0800  102.7510   85.8190 O.2    85  ARG85      -0.2864
     43  CB       153.3930  105.1480   87.1850 C.3    85  ARG85       0.0334
     44  CG       153.6790  106.4800   87.8270 C.3    85  ARG85       0.0492
     45  CD       154.4540  106.2950   89.1070 C.3    85  ARG85       0.2205
     46  NE       154.6160  107.5510   89.8210 N.pl3  85  ARG85      -0.0865
     47  CZ       155.6850  108.3300   89.7260 C.cat  85  ARG85       0.5346
     48  NH1      155.7430  109.4600   90.4130 N.pl3  85  ARG85       0.1354
     49  NH2      156.7030  107.9690   88.9600 N.pl3  85  ARG85       0.1354
     50  N        152.0090  115.9310   95.8000 N.3   114  PRO114     -0.2102
     51  CA       150.9170  116.1540   94.8360 C.3   114  PRO114      0.1504
     52  C        151.3440  116.1920   93.3740 C.2   114  PRO114      0.2576
     53  O        152.3850  116.7440   93.0210 O.2   114  PRO114     -0.2718
     54  CB       150.3460  117.5080   95.2680 C.3   114  PRO114      0.0282
     55  CG       150.5640  117.5360   96.7050 C.3   114  PRO114      0.0208
     56  CD       151.8740  116.8500   96.9480 C.3   114  PRO114      0.0893
     57  N        150.5180  115.5710   92.5330 N.am  115  GLY115     -0.1943
     58  CA       150.6380  115.6690   91.0950 C.3   115  GLY115      0.2014
     59  C        151.4920  114.6240   90.4190 C.2   115  GLY115      0.2639
     60  O        151.9250  114.8470   89.2850 O.2   115  GLY115     -0.2714
     61  N        151.7250  113.4750   91.0510 N.am  116  VAL116     -0.1963
     62  CA       152.7030  112.5160   90.5540 C.3   116  VAL116      0.1727
     63  C        152.0550  111.3110   89.8860 C.2   116  VAL116      0.2617
     64  O        152.7270  110.3030   89.6550 O.2   116  VAL116     -0.2715
     65  CB       153.6460  112.0650   91.6730 C.3   116  VAL116      0.0290
     66  CG1      154.4030  113.2450   92.1900 C.3   116  VAL116      0.0023
     67  CG2      152.8630  111.4050   92.7850 C.3   116  VAL116      0.0023
     68  N        150.7710  111.3850   89.5670 N.am  117  GLY117     -0.1940
     69  CA       150.1410  110.3300   88.8080 C.3   117  GLY117      0.2014
     70  C        149.5290  109.2120   89.6130 C.2   117  GLY117      0.2639
     71  O        149.3230  108.1280   89.0620 O.2   117  GLY117     -0.2714
     72  N        149.2160  109.4280   90.8890 N.am  118  LYS118     -0.1963
     73  CA       148.7150  108.3230   91.6960 C.3   118  LYS118      0.1728
     74  C        147.2030  108.1890   91.6880 C.2   118  LYS118      0.2617
     75  O        146.7020  107.0650   91.7610 O.2   118  LYS118     -0.2715
     76  CB       149.2290  108.4270   93.1330 C.3   118  LYS118      0.0311
     77  CG       148.9120  109.6660   93.8860 C.3   118  LYS118      0.0038
     78  CD       149.6750  109.6410   95.1810 C.3   118  LYS118      0.0206
     79  CE       149.3920  110.8620   95.9990 C.3   118  LYS118      0.1093
     80  NZ       149.9230  112.0840   95.3580 N.3   118  LYS118     -0.1314
     81  N        146.4530  109.2850   91.5940 N.am  119  THR119     -0.1937
     82  CA       145.0200  109.1390   91.3680 C.3   119  THR119      0.2028
     83  C        144.7550  108.6450   89.9500 C.2   119  THR119      0.2642
     84  O        143.7820  107.9240   89.7110 O.2   119  THR119     -0.2714
     85  CB       144.3100  110.4680   91.6470 C.3   119  THR119      0.1808
     86  OG1      144.6660  110.9270   92.9550 O.3   119  THR119     -0.2208
     87  CG2      142.8010  110.3120   91.6120 C.3   119  THR119      0.0379
     88  N        145.6470  108.9730   89.0140 N.am  120  LEU120     -0.1977
     89  CA       145.5050  108.5050   87.6410 C.3   120  LEU120      0.1596
     90  C        145.7650  107.0090   87.5270 C.2   120  LEU120      0.2287
     91  O        144.9990  106.2880   86.8780 O.2   120  LEU120     -0.2864
     92  CB       146.4570  109.2700   86.7270 C.3   120  LEU120      0.0297
     93  CG       146.3870  108.8440   85.2620 C.3   120  LEU120      0.0022
     94  CD1      145.0340  109.1860   84.6640 C.3   120  LEU120      0.0001
     95  CD2      147.5050  109.4630   84.4660 C.3   120  LEU120      0.0001
     96  N        140.2680  108.2910   98.4970 N.3   199  ASP199     -0.1225
     97  CA       141.1510  109.2980   97.9400 C.3   199  ASP199      0.1805
     98  C        141.2350  110.4890   98.8790 C.2   199  ASP199      0.2597
     99  O        140.2300  110.9030   99.4640 O.2   199  ASP199     -0.2718
    100  CB       140.6770  109.7380   96.5570 C.3   199  ASP199      0.1424
    101  CG       141.7490  110.4800   95.7790 C.2   199  ASP199      0.3668
    102  OD1      142.8660  110.6690   96.3020 O.co2 199  ASP199     -0.2456
    103  OD2      141.4730  110.8710   94.6290 O.co2 199  ASP199     -0.2456
    104  N        142.4510  111.0220   99.0060 N.am  200  GLU200     -0.1979
    105  CA       142.7970  112.1660   99.8500 C.3   200  GLU200      0.1602
    106  C        142.3790  111.9220  101.2990 C.2   200  GLU200      0.2287
    107  O        141.5250  112.5910  101.8750 O.2   200  GLU200     -0.2864
    108  CB       142.2230  113.4460   99.2540 C.3   200  GLU200      0.0415
    109  CG       142.9620  113.7660   97.9810 C.3   200  GLU200      0.1163
    110  CD       142.3740  114.9130   97.2380 C.2   200  GLU200      0.3649
    111  OE1      141.2920  115.3800   97.6370 O.co2 200  GLU200     -0.2457
    112  OE2      142.9810  115.3440   96.2370 O.co2 200  GLU200     -0.2457
    113  N        144.8690  106.2970   99.1520 N.3   231  VAL231     -0.1231
    114  CA       145.8520  107.2120   98.5910 C.3   231  VAL231      0.1692
    115  C        145.8500  108.5050   99.4010 C.2   231  VAL231      0.2592
    116  O        144.8050  109.1390   99.5870 O.2   231  VAL231     -0.2718
    117  CB       145.6220  107.4370   97.0850 C.3   231  VAL231      0.0266
    118  CG1      144.1850  107.6440   96.7710 C.3   231  VAL231      0.0020
    119  CG2      146.4140  108.6220   96.6020 C.3   231  VAL231      0.0020
    120  N        147.0230  108.8650   99.9200 N.am  232  ALA232     -0.1966
    121  CA       147.2100  110.0550  100.7400 C.3   232  ALA232      0.1728
    122  C        148.4790  110.7510  100.2650 C.2   232  ALA232      0.2616
    123  O        149.0310  110.4170   99.2160 O.2   232  ALA232     -0.2715
    124  CB       147.2680  109.6890  102.2280 C.3   232  ALA232      0.0334
    125  N        148.9490  111.7320  101.0330 N.am  233  ASN233     -0.1972
    126  CA       150.1420  112.4880  100.6620 C.3   233  ASN233      0.1688
    127  C        151.4020  112.0120  101.3700 C.2   233  ASN233      0.2292
    128  O        152.4140  111.7480  100.7160 O.2   233  ASN233     -0.2864
    129  CB       149.9400  113.9830  100.9310 C.3   233  ASN233      0.1181
    130  CG       148.9940  114.6290   99.9440 C.2   233  ASN233      0.2629
    131  OD1      147.9060  115.0680  100.3030 O.2   233  ASN233     -0.2716
    132  ND2      149.4120  114.6980   98.6880 N.am  233  ASN233     -0.0877
    133  N        158.4330  112.8300   89.5610 N.3   260  TYR260     -0.1241
    134  CA       159.0490  112.4070   88.3130 C.3   260  TYR260      0.1605
    135  C        160.3690  113.1280   88.0670 C.2   260  TYR260      0.2264
    136  O        160.5800  114.2590   88.5080 O.2   260  TYR260     -0.2867
    137  CB       158.1270  112.6850   87.1340 C.3   260  TYR260      0.0534
    138  CG       156.8140  111.9590   87.1090 C.ar  260  TYR260     -0.0201
    139  CD1      156.7390  110.6420   86.6890 C.ar  260  TYR260     -0.0009
    140  CD2      155.6400  112.6090   87.4490 C.ar  260  TYR260     -0.0009
    141  CE1      155.5370  109.9830   86.6440 C.ar  260  TYR260      0.0417
    142  CE2      154.4320  111.9550   87.4030 C.ar  260  TYR260      0.0417
    143  CZ       154.3910  110.6400   87.0020 C.ar  260  TYR260      0.1957
    144  OH       153.1970  109.9700   86.9530 O.3   260  TYR260     -0.2866
    145  N        156.1280  112.3940   79.0770 N.3   268  ILE268     -0.1245
    146  CA       154.7220  112.6970   79.3120 C.3   268  ILE268      0.1561
    147  C        154.2330  113.7750   78.3570 C.2   268  ILE268      0.2260
    148  O        153.1660  113.6460   77.7550 O.2   268  ILE268     -0.2867
    149  CB       154.5020  113.1050   80.7870 C.3   268  ILE268      0.0252
    150  CG1      154.7270  111.9160   81.7180 C.3   268  ILE268      0.0019
    151  CG2      153.1100  113.6640   81.0080 C.3   268  ILE268      0.0019
    152  CD1      154.7930  112.3000   83.1690 C.3   268  ILE268      0.0001
    153  N        154.5420  112.5200   74.7790 N.3   271  LEU271     -0.1231
    154  CA       153.5910  111.4380   74.5560 C.3   271  LEU271      0.1693
    155  C        152.2120  111.9800   74.2160 C.2   271  LEU271      0.2591
    156  O        151.4930  111.3850   73.4060 O.2   271  LEU271     -0.2718
    157  CB       153.5130  110.5390   75.7850 C.3   271  LEU271      0.0284
    158  CG       152.6640  109.2800   75.6360 C.3   271  LEU271      0.0019
    159  CD1      153.2860  108.3700   74.5990 C.3   271  LEU271      0.0001
    160  CD2      152.5120  108.5700   76.9600 C.3   271  LEU271      0.0001
    161  N        151.8360  113.1140   74.8010 N.am  272  ARG272     -0.1980
    162  CA       150.5860  113.7800   74.4660 C.3   272  ARG272      0.1597
    163  C        150.7060  114.6970   73.2680 C.2   272  ARG272      0.2287
    164  O        149.8820  115.6010   73.1180 O.2   272  ARG272     -0.2864
    165  CB       150.0660  114.5800   75.6590 C.3   272  ARG272      0.0334
    166  CG       149.5460  113.7340   76.7800 C.3   272  ARG272      0.0492
    167  CD       148.8940  114.5990   77.8150 C.3   272  ARG272      0.2205
    168  NE       148.2850  113.7890   78.8530 N.pl3 272  ARG272     -0.0865
    169  CZ       147.5660  114.2860   79.8460 C.cat 272  ARG272      0.5346
    170  NH1      147.3570  115.5880   79.9190 N.pl3 272  ARG272      0.1354
    171  NH2      147.0390  113.4790   80.7490 N.pl3 272  ARG272      0.1354
    172  N        153.3830  116.3010   87.2600 N.3   321  ALA321     -0.1231
    173  CA       153.0690  116.3420   85.8420 C.3   321  ALA321      0.1694
    174  C        152.0610  117.4190   85.4860 C.2   321  ALA321      0.2591
    175  O        151.9270  117.7410   84.3050 O.2   321  ALA321     -0.2718
    176  CB       152.5500  114.9840   85.3770 C.3   321  ALA321      0.0304
    177  N        151.3540  117.9840   86.4650 N.am  322  ARG322     -0.1980
    178  CA       150.4030  119.0480   86.1620 C.3   322  ARG322      0.1597
    179  C        151.1130  120.3480   85.8140 C.2   322  ARG322      0.2287
    180  O        150.7600  121.0000   84.8280 O.2   322  ARG322     -0.2864
    181  CB       149.4530  119.2550   87.3340 C.3   322  ARG322      0.0334
    182  CG       148.4020  118.1870   87.4690 C.3   322  ARG322      0.0492
    183  CD       147.6690  118.3520   88.7690 C.3   322  ARG322      0.2205
    184  NE       146.6700  117.3200   88.9800 N.pl3 322  ARG322     -0.0865
    185  CZ       146.1390  117.0500   90.1590 C.cat 322  ARG322      0.5346
    186  NH1      146.5460  117.7180   91.2240 N.pl3 322  ARG322      0.1354
    187  NH2      145.2300  116.0970   90.2790 N.pl3 322  ARG322      0.1354
    188  N        152.5180  120.1500   82.2440 N.3   325  LEU325     -0.1245
    189  CA       151.5330  120.1910   81.1750 C.3   325  LEU325      0.1561
    190  C        150.8930  121.5630   81.0460 C.2   325  LEU325      0.2260
    191  O        150.4180  121.9120   79.9630 O.2   325  LEU325     -0.2867
    192  CB       150.4630  119.1300   81.4090 C.3   325  LEU325      0.0270
    193  CG       150.9240  117.6900   81.2090 C.3   325  LEU325      0.0019
    194  CD1      149.8920  116.7480   81.7810 C.3   325  LEU325      0.0001
    195  CD2      151.1600  117.3960   79.7450 C.3   325  LEU325      0.0001
@<TRIPOS>BOND
     1   164   163    2
     2   163   162    1
     3   156   155    2
     4   155   154    1
     5   155   161   am
     6   162   161    1
     7   162   165    1
     8   154   153    1
     9   154   157    1
    10   159   158    1
    11    18    17    1
    12    17    16   ar
    13    17    15   ar
    14    16    14   ar
    15   158   157    1
    16   158   160    1
    17   165   166    1
    18    15    13   ar
    19    14    12   ar
    20    13    12   ar
    21    12    11    1
    22   166   167    1
    23    11     8    1
    24   148   147    2
    25   167   168    1
    26   147   146    1
    27   168   169    2
    28     8     9    1
    29     8     7    1
    30   145   146    1
    31    10     9    2
    32   146   149    1
    33     9    19   am
    34    31    32    1
    35    31    28    1
    36   195   193    1
    37   169   170    1
    38   169   171    1
    39   191   190    2
    40    32    33    1
    41    33    27    1
    42    19    20    1
    43    28    27    1
    44    28    29    1
    45   149   151    1
    46   149   150    1
    47    27    21   am
    48   190   189    1
    49    20    21    1
    50    20    23    1
    51   189   192    1
    52   189   188    1
    53   193   192    1
    54   193   194    1
    55    21    22    2
    56     1     2    1
    57   150   152    1
    58    29    30    2
    59    29    34   am
    60     3     2    1
    61     3     4    2
    62    23    24    1
    63     2     5    1
    64    34    35    1
    65    24    26    1
    66    24    25    1
    67     5     6    1
    68    35    38    1
    69    35    36    1
    70   175   174    2
    71    95    93    1
    72    94    93    1
    73   180   179    2
    74    36    39   am
    75    36    37    2
    76    93    92    1
    77    39    40    1
    78   176   173    1
    79   174   173    1
    80   174   177   am
    81   179   178    1
    82    42    41    2
    83   173   172    1
    84    41    40    1
    85   178   177    1
    86   178   181    1
    87    40    43    1
    88   141   139   ar
    89   141   143   ar
    90   139   138   ar
    91    92    89    1
    92    91    90    2
    93   144   143    1
    94   143   142   ar
    95   138   137    1
    96   138   140   ar
    97   137   134    1
    98    43    44    1
    99   181   182    1
   100   142   140   ar
   101   182   183    1
   102    90    89    1
   103    89    88    1
   104    44    45    1
   105   135   134    1
   106   135   136    2
   107   134   133    1
   108   183   184    1
   109    69    68    1
   110    69    70    1
   111    49    47    1
   112   184   185    2
   113    88    83   am
   114    71    70    2
   115    45    46    1
   116    60    59    2
   117    68    63   am
   118    70    72   am
   119    64    63    2
   120    84    83    2
   121    47    46    2
   122    47    48    1
   123    63    62    1
   124    83    82    1
   125   185   187    1
   126   185   186    1
   127    59    61   am
   128    59    58    1
   129    62    61    1
   130    62    65    1
   131    72    73    1
   132    58    57    1
   133    82    81    1
   134    82    85    1
   135    81    74   am
   136    87    85    1
   137    85    86    1
   138    65    66    1
   139    65    67    1
   140    74    73    1
   141    74    75    2
   142    73    76    1
   143    57    52   am
   144    53    52    2
   145    76    77    1
   146    52    51    1
   147    77    78    1
   148   103   101   ar
   149    51    54    1
   150    51    50    1
   151    78    79    1
   152    54    55    1
   153    80    79    1
   154   101   102   ar
   155   101   100    1
   156    50    56    1
   157   112   110   ar
   158   100    97    1
   159   119   117    1
   160    55    56    1
   161   118   117    1
   162   117   114    1
   163   110   111   ar
   164   110   109    1
   165    97    96    1
   166    97    98    1
   167   109   108    1
   168   114   113    1
   169   114   115    1
   170   132   130   am
   171    98   104   am
   172    98    99    2
   173   104   105    1
   174   123   122    2
   175   108   105    1
   176   115   116    2
   177   115   120   am
   178   105   106    1
   179   120   121    1
   180   130   131    2
   181   130   129    1
   182   122   121    1
   183   122   125   am
   184   126   129    1
   185   126   125    1
   186   126   127    1
   187   128   127    2
   188   121   124    1
   189   106   107    2
