@<TRIPOS>MOLECULE
tmp/5zr3C00.pdb
 229 218 0 0 0
SMALL
GASTEIGER

@<TRIPOS>ATOM
      1  N         23.5220  -26.8150   49.5110 N.3     5  PHE5       -0.1227
      2  CA        23.7440  -26.6820   48.0990 C.3     5  PHE5        0.1736
      3  C         24.3610  -25.3130   47.9120 C.2     5  PHE5        0.2595
      4  O         24.1430  -24.4170   48.7390 O.2     5  PHE5       -0.2718
      5  CB        22.4060  -26.7420   47.3210 C.3     5  PHE5        0.0547
      6  CG        21.7140  -28.0890   47.3750 C.ar    5  PHE5       -0.0202
      7  CD1       20.8030  -28.3980   48.4020 C.ar    5  PHE5       -0.0042
      8  CD2       21.9610  -29.0450   46.4140 C.ar    5  PHE5       -0.0042
      9  CE1       20.1870  -29.6440   48.4530 C.ar    5  PHE5       -0.0003
     10  CE2       21.3160  -30.3020   46.4590 C.ar    5  PHE5       -0.0003
     11  CZ        20.4310  -30.5990   47.4680 C.ar    5  PHE5       -0.0000
     12  N         25.1520  -25.1710   46.8540 N.am    6  ALA6       -0.1966
     13  CA        25.6910  -23.8710   46.4650 C.3     6  ALA6        0.1728
     14  C         25.0500  -23.4960   45.1360 C.2     6  ALA6        0.2616
     15  O         25.0040  -24.2990   44.2130 O.2     6  ALA6       -0.2715
     16  CB        27.2170  -23.9080   46.3490 C.3     6  ALA6        0.0334
     17  N         24.5210  -22.2820   45.0840 N.am    7  PHE7       -0.1960
     18  CA        23.9920  -21.7090   43.8730 C.3     7  PHE7        0.1771
     19  C         25.0770  -21.6220   42.7750 C.2     7  PHE7        0.2619
     20  O         26.2450  -21.4070   43.0740 O.2     7  PHE7       -0.2715
     21  CB        23.5050  -20.2820   44.1640 C.3     7  PHE7        0.0574
     22  CG        22.2040  -20.1910   44.9270 C.ar    7  PHE7       -0.0200
     23  CD1       21.0420  -20.7830   44.4350 C.ar    7  PHE7       -0.0042
     24  CD2       22.1160  -19.4260   46.0980 C.ar    7  PHE7       -0.0042
     25  CE1       19.8420  -20.6490   45.1160 C.ar    7  PHE7       -0.0003
     26  CE2       20.9200  -19.3070   46.7830 C.ar    7  PHE7       -0.0003
     27  CZ        19.7850  -19.9120   46.2930 C.ar    7  PHE7       -0.0000
     28  N         24.6680  -21.7540   41.5130 N.am    8  GLN8       -0.1977
     29  CA        25.5230  -21.4270   40.3610 C.3     8  GLN8        0.1601
     30  C         25.8560  -19.9500   40.5010 C.2     8  GLN8        0.2287
     31  O         25.0670  -19.1630   41.0850 O.2     8  GLN8       -0.2864
     32  CB        24.8420  -21.6330   38.9860 C.3     8  GLN8        0.0394
     33  CG        23.8280  -22.7760   38.8260 C.3     8  GLN8        0.0908
     34  CD        24.4290  -24.1610   38.6370 C.2     8  GLN8        0.2608
     35  OE1       25.6050  -24.3780   38.9040 O.2     8  GLN8       -0.2717
     36  NE2       23.5990  -25.1170   38.1910 N.am    8  GLN8       -0.0878
     37  N         23.3630  -17.0380   39.5060 N.3    11  ILE11      -0.1245
     38  CA        22.2810  -16.9590   40.5100 C.3    11  ILE11       0.1561
     39  C         22.7050  -16.1420   41.7380 C.2    11  ILE11       0.2260
     40  O         22.0420  -15.1670   42.1070 O.2    11  ILE11      -0.2867
     41  CB        21.8030  -18.3920   40.8760 C.3    11  ILE11       0.0252
     42  CG1       21.0390  -18.9930   39.6740 C.3    11  ILE11       0.0019
     43  CG2       20.9480  -18.4060   42.1490 C.3    11  ILE11       0.0019
     44  CD1       20.6730  -20.4680   39.7970 C.3    11  ILE11       0.0001
     45  N          5.1240  -12.6060   44.6890 N.3    33  LEU33      -0.1245
     46  CA         4.8400  -13.7530   45.5170 C.3    33  LEU33       0.1561
     47  C          3.3770  -14.1670   45.3320 C.2    33  LEU33       0.2260
     48  O          3.1020  -15.3280   45.0950 O.2    33  LEU33      -0.2867
     49  CB         5.1920  -13.4560   46.9530 C.3    33  LEU33       0.0270
     50  CG         6.7210  -13.4180   47.2010 C.3    33  LEU33       0.0019
     51  CD1        7.0470  -12.7820   48.5490 C.3    33  LEU33       0.0001
     52  CD2        7.3730  -14.7970   47.1320 C.3    33  LEU33       0.0001
     53  N          2.9790  -15.7410   42.0460 N.3    36  ASN36      -0.1225
     54  CA         3.4040  -17.1250   42.1340 C.3    36  ASN36       0.1785
     55  C          2.3060  -18.0400   42.7580 C.2    36  ASN36       0.2597
     56  O          2.1070  -19.1720   42.2980 O.2    36  ASN36      -0.2718
     57  CB         4.7020  -17.2430   42.9520 C.3    36  ASN36       0.1169
     58  CG         5.9620  -17.1710   42.1020 C.2    36  ASN36       0.2627
     59  OD1        7.0840  -16.9950   42.6270 O.2    36  ASN36      -0.2716
     60  ND2        5.8000  -17.3300   40.8090 N.am   36  ASN36      -0.0877
     61  N          1.6450  -17.5460   43.8130 N.am   37  SER37      -0.1952
     62  CA         0.5960  -18.2900   44.5140 C.3    37  SER37       0.1924
     63  C         -0.5640  -18.5590   43.5720 C.2    37  SER37       0.2314
     64  O         -1.0050  -19.7070   43.4240 O.2    37  SER37      -0.2863
     65  CB         0.1240  -17.5360   45.7570 C.3    37  SER37       0.2116
     66  OG         1.0800  -17.6690   46.8090 O.3    37  SER37      -0.2180
     67  N          0.2480  -21.2040   41.0350 N.3    40  ALA40      -0.1245
     68  CA         0.2500  -22.5200   41.6770 C.3    40  ALA40       0.1562
     69  C         -1.1740  -23.0120   41.8440 C.2    40  ALA40       0.2260
     70  O         -1.4540  -24.1760   41.6440 O.2    40  ALA40      -0.2867
     71  CB         0.9230  -22.4590   43.0530 C.3    40  ALA40       0.0290
     72  N         -2.7220  -24.1600   38.6230 N.3    43  LYS43      -0.1245
     73  CA        -2.2260  -25.4500   38.2190 C.3    43  LYS43       0.1561
     74  C         -2.9490  -26.6000   38.8990 C.2    43  LYS43       0.2260
     75  O         -3.1830  -27.6080   38.2530 O.2    43  LYS43      -0.2867
     76  CB        -0.7320  -25.5710   38.5200 C.3    43  LYS43       0.0271
     77  CG         0.1660  -24.8160   37.5660 C.3    43  LYS43       0.0035
     78  CD         1.6800  -24.9970   37.9010 C.3    43  LYS43       0.0206
     79  CE         2.4710  -23.7310   37.5310 C.3    43  LYS43       0.1093
     80  NZ         3.9520  -23.8570   37.5300 N.3    43  LYS43      -0.1314
     81  N         -0.4070  -20.2680   50.2630 N.3    78  ASP78      -0.1239
     82  CA        -1.3870  -20.6180   49.2620 C.3    78  ASP78       0.1674
     83  C         -1.6900  -22.1170   49.3540 C.2    78  ASP78       0.2266
     84  O         -0.8510  -22.8850   49.8100 O.2    78  ASP78      -0.2867
     85  CB        -0.9180  -20.2270   47.8380 C.3    78  ASP78       0.1410
     86  CG         0.3580  -20.9380   47.4040 C.2    78  ASP78       0.3668
     87  OD1        0.3360  -22.1630   47.1460 O.co2  78  ASP78      -0.2456
     88  OD2        1.4090  -20.2480   47.2890 O.co2  78  ASP78      -0.2456
     89  N          1.8650  -26.6120   45.0690 N.3    82  GLY82      -0.1210
     90  CA         3.1060  -26.8640   45.8060 C.3    82  GLY82       0.1956
     91  C          4.2050  -27.4560   44.9460 C.2    82  GLY82       0.2611
     92  O          4.0840  -27.4920   43.7270 O.2    82  GLY82      -0.2717
     93  N          5.2840  -27.8850   45.5910 N.am   83  MET83      -0.1979
     94  CA         6.5170  -28.3060   44.9220 C.3    83  MET83       0.1605
     95  C          7.0860  -29.5820   45.5300 C.2    83  MET83       0.2287
     96  O          7.1620  -29.6980   46.7540 O.2    83  MET83      -0.2864
     97  CB         7.5510  -27.2050   45.0850 C.3    83  MET83       0.0413
     98  CG         7.2810  -25.9580   44.2550 C.3    83  MET83       0.0598
     99  SD         8.2140  -24.5170   44.8220 S.3    83  MET83      -0.1393
    100  CE         7.1400  -23.7980   46.0490 C.3    83  MET83       0.0692
    101  N         12.0820  -28.5040   43.9400 N.3    88  LEU88      -0.1231
    102  CA        12.9410  -27.5810   44.7180 C.3    88  LEU88       0.1693
    103  C         14.4340  -27.5150   44.2970 C.2    88  LEU88       0.2592
    104  O         15.0540  -26.4750   44.3160 O.2    88  LEU88      -0.2718
    105  CB        12.8760  -27.9880   46.1930 C.3    88  LEU88       0.0284
    106  CG        11.9750  -27.3390   47.2650 C.3    88  LEU88       0.0019
    107  CD1       11.1180  -26.1970   46.7750 C.3    88  LEU88       0.0001
    108  CD2       11.1310  -28.3790   47.9860 C.3    88  LEU88       0.0001
    109  N         14.9930  -28.6490   43.9340 N.am   89  ILE89      -0.1966
    110  CA        16.3930  -28.7720   43.6420 C.3    89  ILE89       0.1727
    111  C         16.5800  -28.7590   42.1160 C.2    89  ILE89       0.2616
    112  O         17.0500  -27.7770   41.5720 O.2    89  ILE89      -0.2715
    113  CB        16.9460  -30.0580   44.2940 C.3    89  ILE89       0.0290
    114  CG1       16.7470  -29.9810   45.8180 C.3    89  ILE89       0.0022
    115  CG2       18.4220  -30.2560   43.9380 C.3    89  ILE89       0.0023
    116  CD1       16.9080  -31.2930   46.5540 C.3    89  ILE89       0.0001
    117  N         16.1920  -29.8250   41.4290 N.am   90  ASN90      -0.1972
    118  CA        16.5520  -29.9930   40.0020 C.3    90  ASN90       0.1688
    119  C         15.7580  -29.0730   39.0570 C.2    90  ASN90       0.2292
    120  O         16.2990  -28.2010   38.3600 O.2    90  ASN90      -0.2864
    121  CB        16.3680  -31.4650   39.5840 C.3    90  ASN90       0.1181
    122  CG        17.1370  -32.4130   40.4860 C.2    90  ASN90       0.2629
    123  OD1       16.5580  -33.3410   41.0390 O.2    90  ASN90      -0.2716
    124  ND2       18.4420  -32.1510   40.6820 N.am   90  ASN90      -0.0877
    125  N         13.3380  -26.7130   39.3480 N.3    92  LEU92      -0.1231
    126  CA        13.3900  -25.2510   39.5650 C.3    92  LEU92       0.1693
    127  C         14.8190  -24.6920   39.4960 C.2    92  LEU92       0.2592
    128  O         15.0370  -23.4900   39.2130 O.2    92  LEU92      -0.2718
    129  CB        12.7210  -24.8910   40.8980 C.3    92  LEU92       0.0284
    130  CG        11.2390  -25.2760   40.9850 C.3    92  LEU92       0.0019
    131  CD1       10.6970  -24.9700   42.3620 C.3    92  LEU92       0.0001
    132  CD2       10.4310  -24.5200   39.9400 C.3    92  LEU92       0.0001
    133  N         15.7780  -25.5810   39.7780 N.am   93  GLY93      -0.1957
    134  CA        17.1700  -25.3150   39.5460 C.3    93  GLY93       0.1869
    135  C         17.4120  -24.8820   38.1220 C.2    93  GLY93       0.2309
    136  O         17.8840  -23.7270   37.8640 O.2    93  GLY93      -0.2863
    137  N         15.2080  -24.1770   36.0220 N.3    95  ILE95      -0.1231
    138  CA        14.3740  -23.0320   35.7170 C.3    95  ILE95       0.1692
    139  C         15.0760  -21.7570   36.0970 C.2    95  ILE95       0.2591
    140  O         15.1080  -20.8330   35.3050 O.2    95  ILE95      -0.2718
    141  CB        12.9750  -23.0850   36.4010 C.3    95  ILE95       0.0266
    142  CG1       12.1070  -24.2580   35.8790 C.3    95  ILE95       0.0019
    143  CG2       12.2170  -21.7710   36.1930 C.3    95  ILE95       0.0020
    144  CD1       11.8650  -24.3250   34.3700 C.3    95  ILE95       0.0001
    145  N         15.5990  -21.6880   37.3140 N.am   96  ALA96      -0.1980
    146  CA        16.2790  -20.4330   37.7990 C.3    96  ALA96       0.1597
    147  C         17.5590  -20.0480   37.0480 C.2    96  ALA96       0.2287
    148  O         17.8510  -18.8750   36.9070 O.2    96  ALA96      -0.2864
    149  CB        16.5710  -20.5140   39.2830 C.3    96  ALA96       0.0319
    150  N         10.5800  -15.8080   35.0810 N.3   120  GLY120     -0.1210
    151  CA        10.2800  -17.0010   35.9160 C.3   120  GLY120      0.1956
    152  C         11.0840  -17.1130   37.2150 C.2   120  GLY120      0.2611
    153  O         11.2140  -18.2070   37.7840 O.2   120  GLY120     -0.2717
    154  N         11.6390  -15.9950   37.6620 N.am  121  VAL121     -0.1979
    155  CA        12.4460  -15.9620   38.8710 C.3   121  VAL121      0.1595
    156  C         11.9310  -14.9300   39.8630 C.2   121  VAL121      0.2287
    157  O         12.6700  -14.5120   40.7430 O.2   121  VAL121     -0.2864
    158  CB        13.9510  -15.7390   38.5530 C.3   121  VAL121      0.0276
    159  CG1       14.5320  -16.9600   37.8000 C.3   121  VAL121      0.0022
    160  CG2       14.1900  -14.4320   37.8070 C.3   121  VAL121      0.0022
    161  N         10.2530  -15.0260   42.5310 N.3   123  PHE123     -0.1227
    162  CA        10.5790  -15.4220   43.9090 C.3   123  PHE123      0.1736
    163  C         11.8380  -14.7610   44.4890 C.2   123  PHE123      0.2595
    164  O         11.8520  -14.3620   45.6460 O.2   123  PHE123     -0.2718
    165  CB        10.7290  -16.9430   44.0030 C.3   123  PHE123      0.0547
    166  CG        11.3800  -17.4200   45.2840 C.ar  123  PHE123     -0.0202
    167  CD1       10.6900  -17.3920   46.4790 C.ar  123  PHE123     -0.0042
    168  CD2       12.6850  -17.9230   45.2880 C.ar  123  PHE123     -0.0042
    169  CE1       11.2850  -17.8300   47.6390 C.ar  123  PHE123     -0.0003
    170  CE2       13.2720  -18.3890   46.4400 C.ar  123  PHE123     -0.0003
    171  CZ        12.5750  -18.3300   47.6240 C.ar  123  PHE123     -0.0000
    172  N         12.8840  -14.6030   43.6910 N.am  124  TYR124     -0.1976
    173  CA        14.0870  -13.9050   44.2000 C.3   124  TYR124      0.1639
    174  C         13.8310  -12.4500   44.5560 C.2   124  TYR124      0.2290
    175  O         14.6030  -11.8780   45.2750 O.2   124  TYR124     -0.2864
    176  CB        15.2350  -13.9750   43.2210 C.3   124  TYR124      0.0560
    177  CG        15.7620  -15.3470   42.9110 C.ar  124  TYR124     -0.0198
    178  CD1       15.9170  -16.3020   43.9060 C.ar  124  TYR124     -0.0009
    179  CD2       16.1950  -15.6690   41.5990 C.ar  124  TYR124     -0.0009
    180  CE1       16.4560  -17.5370   43.6340 C.ar  124  TYR124      0.0417
    181  CE2       16.7390  -16.9240   41.3120 C.ar  124  TYR124      0.0417
    182  CZ        16.8730  -17.8410   42.3340 C.ar  124  TYR124      0.1957
    183  OH        17.3840  -19.0880   42.0810 O.3   124  TYR124     -0.2866
    184  N         10.9300  -21.3910   52.5370 N.3   135  VAL135     -0.1245
    185  CA         9.7820  -21.8650   51.7590 C.3   135  VAL135      0.1561
    186  C          9.4510  -23.2170   52.2900 C.2   135  VAL135      0.2260
    187  O         10.2650  -24.1210   52.1480 O.2   135  VAL135     -0.2867
    188  CB        10.0960  -22.0070   50.2390 C.3   135  VAL135      0.0252
    189  CG1        8.8860  -22.5260   49.4670 C.3   135  VAL135      0.0019
    190  CG2       10.5340  -20.6750   49.6400 C.3   135  VAL135      0.0019
    191  N         12.7060  -25.2790   52.2190 N.3   147  TRP147     -0.1241
    192  CA        13.7960  -24.7880   51.4030 C.3   147  TRP147      0.1605
    193  C         14.1120  -23.4450   51.9640 C.2   147  TRP147      0.2264
    194  O         13.2020  -22.6390   52.1730 O.2   147  TRP147     -0.2867
    195  CB        13.3530  -24.6280   49.9560 C.3   147  TRP147      0.0550
    196  CG        14.3950  -24.1640   48.9160 C.ar  147  TRP147      0.0003
    197  CD1       14.9920  -24.9470   47.9690 C.ar  147  TRP147      0.0946
    198  CD2       14.8560  -22.8380   48.6750 C.ar  147  TRP147      0.0152
    199  NE1       15.8160  -24.1980   47.1760 N.ar  147  TRP147     -0.2442
    200  CE2       15.7510  -22.8970   47.5880 C.ar  147  TRP147      0.0810
    201  CE3       14.6210  -21.6110   49.2780 C.ar  147  TRP147      0.0012
    202  CZ2       16.4080  -21.7810   47.0920 C.ar  147  TRP147      0.0191
    203  CZ3       15.2830  -20.4680   48.7570 C.ar  147  TRP147      0.0001
    204  CH2       16.1740  -20.5800   47.6870 C.ar  147  TRP147      0.0015
    205  N         21.8600  -22.6850   49.6500 N.3   155  PHE155     -0.1241
    206  CA        20.5090  -22.9460   50.1150 C.3   155  PHE155      0.1605
    207  C         20.4360  -24.3070   50.7600 C.2   155  PHE155      0.2264
    208  O         21.2070  -25.1840   50.4200 O.2   155  PHE155     -0.2867
    209  CB        19.4360  -22.7870   48.9940 C.3   155  PHE155      0.0534
    210  CG        19.4390  -23.8850   47.9300 C.ar  155  PHE155     -0.0203
    211  CD1       18.7800  -25.1060   48.1420 C.ar  155  PHE155     -0.0042
    212  CD2       20.0530  -23.6710   46.6850 C.ar  155  PHE155     -0.0042
    213  CE1       18.7770  -26.1020   47.1590 C.ar  155  PHE155     -0.0003
    214  CE2       20.0520  -24.6640   45.7020 C.ar  155  PHE155     -0.0003
    215  CZ        19.4180  -25.8850   45.9410 C.ar  155  PHE155     -0.0000
    216  N          1.9140  -24.1020   49.5750 N.3   169  THR169     -0.1218
    217  CA         3.2200  -23.4760   49.7640 C.3   169  THR169      0.1862
    218  C          3.0900  -22.3410   50.7280 C.2   169  THR169      0.2287
    219  O          2.1850  -21.5350   50.5940 O.2   169  THR169     -0.2866
    220  CB         3.8310  -22.9660   48.4270 C.3   169  THR169      0.1770
    221  OG1        4.1340  -24.0760   47.5870 O.3   169  THR169     -0.2211
    222  CG2        5.1530  -22.1830   48.6680 C.3   169  THR169      0.0375
    223  N          5.6070  -19.2330   52.0810 N.3   171  VAL171     -0.1245
    224  CA         6.8640  -18.4830   51.9540 C.3   171  VAL171      0.1561
    225  C          7.0770  -17.5410   53.1350 C.2   171  VAL171      0.2260
    226  O          6.3620  -16.5510   53.2720 O.2   171  VAL171     -0.2867
    227  CB         6.8940  -17.6430   50.6570 C.3   171  VAL171      0.0252
    228  CG1        8.1190  -16.7290   50.6320 C.3   171  VAL171      0.0019
    229  CG2        6.8980  -18.5630   49.4340 C.3   171  VAL171      0.0019
@<TRIPOS>BOND
     1   144   142    1
     2   150   151    1
     3   140   139    2
     4   138   137    1
     5   138   139    1
     6   138   141    1
     7   142   141    1
     8   151   152    1
     9   139   145   am
    10   143   141    1
    11   148   147    2
    12   147   146    1
    13   152   154   am
    14   152   153    2
    15   145   146    1
    16    80    79    1
    17    79    78    1
    18    77    78    1
    19    77    76    1
    20   154   155    1
    21   146   149    1
    22   159   158    1
    23   160   158    1
    24   136   135    2
    25   135   134    1
    26    36    34   am
    27    73    76    1
    28    73    72    1
    29    73    74    1
    30    75    74    2
    31   120   119    2
    32   158   155    1
    33    34    33    1
    34    34    35    2
    35    33    32    1
    36   155   156    1
    37    32    29    1
    38   119   118    1
    39   128   127    2
    40   125   126    1
    41   127   126    1
    42   127   133   am
    43    37    38    1
    44   134   133    1
    45   126   129    1
    46   121   118    1
    47   121   122    1
    48    42    44    1
    49    42    41    1
    50   156   157    2
    51   132   130    1
    52   118   117    1
    53    29    30    1
    54    29    28    1
    55   122   124   am
    56   122   123    2
    57    30    31    2
    58    38    41    1
    59    38    39    1
    60    60    58   am
    61    41    43    1
    62   129   130    1
    63   130   131    1
    64    67    68    1
    65   181   179   ar
    66   181   182   ar
    67   117   111   am
    68    28    19   am
    69   112   111    2
    70   179   177   ar
    71    70    69    2
    72    68    69    1
    73    68    71    1
    74    39    40    2
    75    53    54    1
    76   183   182    1
    77    58    59    2
    78    58    57    1
    79   111   110    1
    80    54    55    1
    81    54    57    1
    82    56    55    2
    83   182   180   ar
    84   161   162    1
    85    55    61   am
    86    19    20    2
    87    19    18    1
    88   177   176    1
    89   177   178   ar
    90   176   173    1
    91    64    63    2
    92    63    62    1
    93   180   178   ar
    94   110   109    1
    95   110   113    1
    96   172   173    1
    97   172   163   am
    98    92    91    2
    99    61    62    1
   100    18    21    1
   101    18    17    1
   102   162   165    1
   103   162   163    1
   104   109   103   am
   105   115   113    1
   106   101   102    1
   107   165   166    1
   108    21    22    1
   109   173   174    1
   110    15    14    2
   111    98    99    1
   112    98    97    1
   113   113   114    1
   114   103   104    2
   115   103   102    1
   116    23    22   ar
   117    23    25   ar
   118   163   164    2
   119    62    65    1
   120   174   175    2
   121    45    46    1
   122   102   105    1
   123    99   100    1
   124    94    97    1
   125    94    95    1
   126    94    93    1
   127    22    24   ar
   128    91    93   am
   129    91    90    1
   130    89    90    1
   131    17    14   am
   132    48    47    2
   133    25    27   ar
   134    14    13    1
   135   166   168   ar
   136   166   167   ar
   137   168   170   ar
   138    47    46    1
   139    46    49    1
   140    95    96    2
   141   214   215   ar
   142   214   212   ar
   143    65    66    1
   144   114   116    1
   145   215   213   ar
   146    24    26   ar
   147   105   106    1
   148    27    26   ar
   149    16    13    1
   150     8    10   ar
   151     8     6   ar
   152   170   171   ar
   153    10    11   ar
   154    13    12    1
   155   167   169   ar
   156   212   210   ar
   157   107   106    1
   158    12     3   am
   159    49    50    1
   160   202   200   ar
   161   202   204   ar
   162    52    50    1
   163    87    86   ar
   164   213   211   ar
   165   199   200   ar
   166   199   197   ar
   167    50    51    1
   168   106   108    1
   169    88    86   ar
   170     5     6    1
   171     5     2    1
   172     6     7   ar
   173    86    85    1
   174    11     9   ar
   175   221   220    1
   176   200   198   ar
   177   171   169   ar
   178   204   203   ar
   179    85    82    1
   180     3     2    1
   181     3     4    2
   182   210   211   ar
   183   210   209    1
   184   197   196   ar
   185     2     1    1
   186     7     9   ar
   187   220   222    1
   188   220   217    1
   189   198   196   ar
   190   198   201   ar
   191   203   201   ar
   192   196   195    1
   193   209   206    1
   194    82    83    1
   195    82    81    1
   196    83    84    2
   197   229   227    1
   198   189   188    1
   199   216   217    1
   200   190   188    1
   201   205   206    1
   202   217   218    1
   203   195   192    1
   204   206   207    1
   205   188   185    1
   206   208   207    2
   207   219   218    2
   208   228   227    1
   209   227   224    1
   210   192   193    1
   211   192   191    1
   212   185   186    1
   213   185   184    1
   214   224   223    1
   215   224   225    1
   216   193   194    2
   217   187   186    2
   218   225   226    2
