@<TRIPOS>MOLECULE
tmp/5zrdA00.pdb
 122 118 0 0 0
SMALL
GASTEIGER

@<TRIPOS>ATOM
      1  N         93.8870  -15.7360    5.8320 N.3   236  LYS236     -0.1245
      2  CA        93.1440  -15.0800    6.8980 C.3   236  LYS236      0.1561
      3  C         93.1240  -15.9650    8.1630 C.2   236  LYS236      0.2260
      4  O         93.2330  -15.4680    9.2670 O.2   236  LYS236     -0.2867
      5  CB        91.7330  -14.7500    6.4070 C.3   236  LYS236      0.0271
      6  CG        91.5850  -13.4640    5.6040 C.3   236  LYS236      0.0035
      7  CD        90.2060  -12.8490    5.8140 C.3   236  LYS236      0.0206
      8  CE        89.9610  -11.5640    5.0430 C.3   236  LYS236      0.1093
      9  NZ        90.4250  -10.3760    5.8010 N.3   236  LYS236     -0.1314
     10  N         84.5360   -9.6620   15.1060 N.3   252  THR252     -0.1218
     11  CA        84.7710   -8.6150   14.0950 C.3   252  THR252      0.1862
     12  C         84.5890   -7.2170   14.6740 C.2   252  THR252      0.2287
     13  O         85.1920   -6.2580   14.1710 O.2   252  THR252     -0.2866
     14  CB        83.8560   -8.7980   12.8750 C.3   252  THR252      0.1770
     15  OG1       82.5050   -9.0060   13.3090 O.3   252  THR252     -0.2211
     16  CG2       84.2850   -9.9730   12.0160 C.3   252  THR252      0.0375
     17  N         87.8340   -6.4190   16.6920 N.3   255  ALA255     -0.1231
     18  CA        89.0100   -6.3470   15.8390 C.3   255  ALA255      0.1694
     19  C         88.9880   -5.0290   15.0340 C.2   255  ALA255      0.2592
     20  O         89.9790   -4.3610   14.9000 O.2   255  ALA255     -0.2718
     21  CB        89.0440   -7.5810   14.9550 C.3   255  ALA255      0.0304
     22  N         87.8240   -4.6330   14.5500 N.am  256  SER256     -0.1952
     23  CA        87.6980   -3.4310   13.7250 C.3   256  SER256      0.1924
     24  C         88.1700   -2.2000   14.5120 C.2   256  SER256      0.2314
     25  O         88.9910   -1.3650   13.9880 O.2   256  SER256     -0.2863
     26  CB        86.2970   -3.2720   13.2040 C.3   256  SER256      0.2116
     27  OG        86.1020   -1.9890   12.6370 O.3   256  SER256     -0.2180
     28  N         91.8000   -2.3000   15.1030 N.3   259  ASN259     -0.1240
     29  CA        92.4990   -1.9300   13.8750 C.3   259  ASN259      0.1653
     30  C         92.4060   -0.4110   13.6190 C.2   259  ASN259      0.2266
     31  O         93.2310    0.1350   12.8770 O.2   259  ASN259     -0.2867
     32  CB        91.9660   -2.7570   12.7060 C.3   259  ASN259      0.1155
     33  CG        92.4520   -4.1950   12.7350 C.2   259  ASN259      0.2627
     34  OD1       93.4420   -4.5220   13.3950 O.2   259  ASN259     -0.2716
     35  ND2       91.8010   -5.0630   11.9820 N.am  259  ASN259     -0.0877
     36  N         97.2830   -4.8130   11.4030 N.3   265  LEU265     -0.1231
     37  CA        95.9870   -5.3930   11.1270 C.3   265  LEU265      0.1693
     38  C         95.8590   -6.6700   11.9340 C.2   265  LEU265      0.2592
     39  O         96.6460   -7.5830   11.7310 O.2   265  LEU265     -0.2718
     40  CB        95.8780   -5.7450    9.6370 C.3   265  LEU265      0.0284
     41  CG        95.4170   -4.6100    8.7250 C.3   265  LEU265      0.0019
     42  CD1       95.2360   -5.0860    7.2890 C.3   265  LEU265      0.0001
     43  CD2       94.1310   -3.9940    9.2290 C.3   265  LEU265      0.0001
     44  N         94.8730   -6.7470   12.8170 N.am  266  VAL266     -0.1966
     45  CA        94.5520   -8.0390   13.4160 C.3   266  VAL266      0.1727
     46  C         93.3200   -8.6310   12.7180 C.2   266  VAL266      0.2617
     47  O         92.4340   -7.9220   12.2540 O.2   266  VAL266     -0.2715
     48  CB        94.3740   -7.9610   14.9400 C.3   266  VAL266      0.0290
     49  CG1       95.5010   -7.1910   15.5990 C.3   266  VAL266      0.0023
     50  CG2       93.0580   -7.3780   15.3300 C.3   266  VAL266      0.0023
     51  N         93.2990   -9.9510   12.6660 N.am  267  THR267     -0.1937
     52  CA        92.2150  -10.6990   12.0910 C.3   267  THR267      0.2013
     53  C         91.6240  -11.6260   13.1580 C.2   267  THR267      0.2484
     54  O         92.3210  -12.5020   13.6310 O.2   267  THR267     -0.2729
     55  CB        92.6720  -11.5650   10.9130 C.3   267  THR267      0.1807
     56  OG1       93.1570  -10.6700    9.9200 O.3   267  THR267     -0.2208
     57  CG2       91.5490  -12.4160   10.3520 C.3   267  THR267      0.0379
     58  N         90.3450  -11.4490   13.4870 N.am  268  PRO268     -0.2726
     59  CA        89.6350  -12.3190   14.3850 C.3   268  PRO268      0.1402
     60  C         89.3090  -13.6570   13.7110 C.2   268  PRO268      0.2269
     61  O         89.1670  -13.7460   12.4740 O.2   268  PRO268     -0.2865
     62  CB        88.3410  -11.5730   14.7210 C.3   268  PRO268      0.0296
     63  CG        88.0660  -10.7330   13.4820 C.3   268  PRO268      0.0237
     64  CD        89.4080  -10.5410   12.8190 C.3   268  PRO268      0.0939
     65  N         86.3970  -13.8400   11.2000 N.3   271  SER271     -0.1217
     66  CA        86.5040  -13.2920    9.8450 C.3   271  SER271      0.1889
     67  C         86.5870  -14.4150    8.8010 C.2   271  SER271      0.2288
     68  O         85.7250  -14.5340    7.9590 O.2   271  SER271     -0.2866
     69  CB        87.6540  -12.3010    9.7700 C.3   271  SER271      0.2089
     70  OG        87.6530  -11.5870    8.5390 O.3   271  SER271     -0.2183
     71  N         89.4650   -8.9300    0.5730 N.3   459  HIS459     -0.1226
     72  CA        88.0260   -9.0100    0.8240 C.3   459  HIS459      0.1752
     73  C         87.7170   -8.8760    2.3350 C.2   459  HIS459      0.2595
     74  O         88.5590   -9.0580    3.1990 O.2   459  HIS459     -0.2718
     75  CB        87.4610  -10.3110    0.2660 C.3   459  HIS459      0.0759
     76  CG        87.8750  -11.5170    1.0530 C.ar  459  HIS459      0.0818
     77  ND1       88.9680  -12.2850    0.7140 N.ar  459  HIS459     -0.2268
     78  CD2       87.3740  -12.0570    2.1830 C.ar  459  HIS459      0.1154
     79  CE1       89.1020  -13.2690    1.5880 C.ar  459  HIS459      0.1986
     80  NE2       88.1430  -13.1470    2.5020 N.ar  459  HIS459     -0.2212
     81  N         86.4740   -8.5250    2.6120 N.am  460  LYS460     -0.1980
     82  CA        85.8840   -8.5600    3.9210 C.3   460  LYS460      0.1596
     83  C         84.4620   -9.0950    3.7610 C.2   460  LYS460      0.2287
     84  O         83.6740   -8.5370    3.0200 O.2   460  LYS460     -0.2864
     85  CB        85.8460   -7.1730    4.5580 C.3   460  LYS460      0.0298
     86  CG        85.2170   -7.0760    5.9520 C.3   460  LYS460      0.0038
     87  CD        85.1300   -5.6200    6.3800 C.3   460  LYS460      0.0206
     88  CE        84.4260   -5.3750    7.6990 C.3   460  LYS460      0.1093
     89  NZ        85.3690   -5.5760    8.8170 N.3   460  LYS460     -0.1314
     90  N         82.8310    0.2770    8.1840 N.3   481  VAL481     -0.1231
     91  CA        84.2500    0.5840    8.3900 C.3   481  VAL481      0.1692
     92  C         85.0430   -0.6950    8.1140 C.2   481  VAL481      0.2592
     93  O         84.7200   -1.7150    8.6360 O.2   481  VAL481     -0.2718
     94  CB        84.5260    1.1700    9.7880 C.3   481  VAL481      0.0266
     95  CG1       83.7270    0.4660   10.8480 C.3   481  VAL481      0.0020
     96  CG2       85.9970    1.1370   10.1310 C.3   481  VAL481      0.0020
     97  N         86.0210   -0.6320    7.2220 N.am  482  ALA482     -0.1966
     98  CA        86.7540   -1.8140    6.8110 C.3   482  ALA482      0.1728
     99  C         88.2160   -1.4190    6.6180 C.2   482  ALA482      0.2616
    100  O         88.4680   -0.3280    6.1200 O.2   482  ALA482     -0.2715
    101  CB        86.1710   -2.3830    5.5390 C.3   482  ALA482      0.0334
    102  N         89.1510   -2.2760    7.0290 N.am  483  HIS483     -0.1959
    103  CA        90.5520   -2.0050    6.8120 C.3   483  HIS483      0.1787
    104  C         91.1400   -3.0340    5.8460 C.2   483  HIS483      0.2620
    105  O         90.7160   -4.1890    5.8350 O.2   483  HIS483     -0.2715
    106  CB        91.3550   -2.0570    8.1070 C.3   483  HIS483      0.0785
    107  CG        90.7560   -1.2860    9.2220 C.ar  483  HIS483      0.0821
    108  ND1       91.0540    0.0450    9.4350 N.ar  483  HIS483     -0.2267
    109  CD2       89.8880   -1.6490   10.1860 C.ar  483  HIS483      0.1154
    110  CE1       90.3990    0.4590   10.5150 C.ar  483  HIS483      0.1986
    111  NE2       89.6700   -0.5620   10.9740 N.ar  483  HIS483     -0.2212
    112  N         92.1450   -2.6040    5.0710 N.am  484  PHE484     -0.1974
    113  CA        92.7970   -3.4960    4.1100 C.3   484  PHE484      0.1639
    114  C         94.2830   -3.1930    4.1250 C.2   484  PHE484      0.2290
    115  O         94.6660   -2.0410    4.2340 O.2   484  PHE484     -0.2864
    116  CB        92.2250   -3.3540    2.6980 C.3   484  PHE484      0.0560
    117  CG        90.7390   -3.6030    2.5740 C.ar  484  PHE484     -0.0200
    118  CD1       90.2400   -4.8690    2.3200 C.ar  484  PHE484     -0.0042
    119  CD2       89.8370   -2.5690    2.6860 C.ar  484  PHE484     -0.0042
    120  CE1       88.8810   -5.0930    2.1860 C.ar  484  PHE484     -0.0003
    121  CE2       88.4710   -2.7970    2.5750 C.ar  484  PHE484     -0.0003
    122  CZ        87.9910   -4.0600    2.3390 C.ar  484  PHE484     -0.0000
@<TRIPOS>BOND
     1    75    72    1
     2    75    76    1
     3    71    72    1
     4    77    76   ar
     5    77    79   ar
     6    72    73    1
     7    76    78   ar
     8    79    80   ar
     9    78    80   ar
    10   120   118   ar
    11   120   122   ar
    12   118   117   ar
    13    73    81   am
    14    73    74    2
    15   122   121   ar
    16   117   119   ar
    17   117   116    1
    18   121   119   ar
    19    81    82    1
    20   116   113    1
    21    84    83    2
    22    83    82    1
    23    82    85    1
    24   113   114    1
    25   113   112    1
    26   114   115    2
    27    85    86    1
    28     8     9    1
    29     8     7    1
    30   112   104   am
    31   101    98    1
    32     6     7    1
    33     6     5    1
    34     1     2    1
    35   105   104    2
    36   104   103    1
    37    86    87    1
    38   100    99    2
    39    87    88    1
    40     5     2    1
    41    99    98    1
    42    99   102   am
    43    98    97    1
    44   103   102    1
    45   103   106    1
    46     2     3    1
    47    97    92   am
    48    42    41    1
    49    88    89    1
    50    68    67    2
    51   106   107    1
    52    92    91    1
    53    92    93    2
    54     3     4    2
    55    90    91    1
    56    91    94    1
    57    70    69    1
    58    41    43    1
    59    41    40    1
    60    67    66    1
    61   107   108   ar
    62   107   109   ar
    63   108   110   ar
    64    40    37    1
    65    69    66    1
    66    94    96    1
    67    94    95    1
    68    66    65    1
    69    56    55    1
    70   109   111   ar
    71    57    55    1
    72   110   111   ar
    73    55    52    1
    74    37    36    1
    75    37    38    1
    76    39    38    2
    77    38    44   am
    78    35    33   am
    79    16    14    1
    80    52    51    1
    81    52    53    1
    82    47    46    2
    83    61    60    2
    84    27    26    1
    85    51    46   am
    86    32    33    1
    87    32    29    1
    88    46    45    1
    89    33    34    2
    90    44    45    1
    91    64    63    1
    92    64    58    1
    93    14    15    1
    94    14    11    1
    95    31    30    2
    96    53    58   am
    97    53    54    2
    98    26    23    1
    99    45    48    1
   100    63    62    1
   101    58    59    1
   102    30    29    1
   103    60    59    1
   104    23    24    1
   105    23    22    1
   106    29    28    1
   107    25    24    2
   108    11    12    1
   109    11    10    1
   110    13    12    2
   111    59    62    1
   112    22    19   am
   113    20    19    2
   114    48    50    1
   115    48    49    1
   116    21    18    1
   117    19    18    1
   118    18    17    1
