@<TRIPOS>MOLECULE
tmp/5zrrA00.pdb
 88 89 0 0 0
SMALL
GASTEIGER

@<TRIPOS>ATOM
      1  N        -29.1640    0.8900   -3.7750 N.3    63  GLY63      -0.1210
      2  CA       -29.9710    1.9910   -3.3000 C.3    63  GLY63       0.1956
      3  C        -31.0080    1.5530   -2.2880 C.2    63  GLY63       0.2612
      4  O        -31.0760    0.3820   -1.8890 O.2    63  GLY63      -0.2717
      5  N        -31.8200    2.5160   -1.8760 N.am   64  PHE64      -0.1962
      6  CA       -32.8550    2.2990   -0.8780 C.3    64  PHE64       0.1771
      7  C        -34.2160    1.9970   -1.5090 C.2    64  PHE64       0.2620
      8  O        -34.8560    1.0200   -1.1250 O.2    64  PHE64      -0.2715
      9  CB       -32.9310    3.5190    0.0500 C.3    64  PHE64       0.0574
     10  CG       -34.0360    3.4510    1.0720 C.ar   64  PHE64      -0.0200
     11  CD1      -33.9680    2.5690    2.1360 C.ar   64  PHE64      -0.0042
     12  CD2      -35.1290    4.2980    0.9800 C.ar   64  PHE64      -0.0042
     13  CE1      -34.9860    2.5090    3.0790 C.ar   64  PHE64      -0.0003
     14  CE2      -36.1510    4.2470    1.9230 C.ar   64  PHE64      -0.0003
     15  CZ       -36.0750    3.3530    2.9710 C.ar   64  PHE64      -0.0000
     16  N        -34.6670    2.8130   -2.4650 N.am   65  THR65      -0.1951
     17  CA       -36.0380    2.6390   -2.9710 C.3    65  THR65       0.1897
     18  C        -36.2580    1.2960   -3.6520 C.2    65  THR65       0.2313
     19  O        -35.3670    0.7690   -4.3260 O.2    65  THR65      -0.2863
     20  CB       -36.5330    3.7620   -3.9160 C.3    65  THR65       0.1794
     21  OG1      -35.8390    3.6990   -5.1670 O.3    65  THR65      -0.2208
     22  CG2      -36.3990    5.1400   -3.2750 C.3    65  THR65       0.0378
     23  N        -25.0230    2.5720   -5.6860 N.3   133  HIS133     -0.1226
     24  CA       -26.1180    3.1900   -6.4230 C.3   133  HIS133      0.1752
     25  C        -27.0030    4.0180   -5.5020 C.2   133  HIS133      0.2596
     26  O        -27.4290    3.5500   -4.4440 O.2   133  HIS133     -0.2718
     27  CB       -26.9800    2.1020   -7.0670 C.3   133  HIS133      0.0759
     28  CG       -28.1250    2.6440   -7.8670 C.ar  133  HIS133      0.0818
     29  ND1      -29.3990    2.1150   -7.8130 N.ar  133  HIS133     -0.2268
     30  CD2      -28.1790    3.6720   -8.7460 C.ar  133  HIS133      0.1154
     31  CE1      -30.1870    2.7960   -8.6290 C.ar  133  HIS133      0.1986
     32  NE2      -29.4740    3.7520   -9.1980 N.ar  133  HIS133     -0.2212
     33  N        -27.2800    5.2510   -5.9220 N.am  134  ALA134     -0.1966
     34  CA       -28.3130    6.0770   -5.3050 C.3   134  ALA134      0.1728
     35  C        -27.9430    6.3660   -3.8470 C.2   134  ALA134      0.2616
     36  O        -26.8760    6.9260   -3.6210 O.2   134  ALA134     -0.2715
     37  CB       -29.6690    5.4310   -5.4590 C.3   134  ALA134      0.0334
     38  N        -28.7740    6.0090   -2.8640 N.am  135  MET135     -0.1977
     39  CA       -28.3420    6.2080   -1.4840 C.3   135  MET135      0.1605
     40  C        -27.0490    5.4590   -1.1720 C.2   135  MET135      0.2287
     41  O        -26.2770    5.8820   -0.3120 O.2   135  MET135     -0.2864
     42  CB       -29.4250    5.8350   -0.4680 C.3   135  MET135      0.0413
     43  CG       -29.1140    6.4010    0.9070 C.3   135  MET135      0.0598
     44  SD       -30.2530    5.8910    2.2000 S.3   135  MET135     -0.1393
     45  CE       -31.7510    6.6660    1.5890 C.3   135  MET135      0.0692
     46  N        -27.2410    9.7630   -4.2460 N.3   158  TRP158     -0.1241
     47  CA       -28.2120   10.5450   -3.4880 C.3   158  TRP158      0.1605
     48  C        -27.6170   10.8150   -2.1170 C.2   158  TRP158      0.2264
     49  O        -27.2090    9.8800   -1.4180 O.2   158  TRP158     -0.2867
     50  CB       -29.5140    9.7560   -3.3360 C.3   158  TRP158      0.0550
     51  CG       -30.6240   10.5410   -2.7120 C.ar  158  TRP158      0.0003
     52  CD1      -31.6120   11.2170   -3.3740 C.ar  158  TRP158      0.0946
     53  CD2      -30.8600   10.7440   -1.3150 C.ar  158  TRP158      0.0152
     54  NE1      -32.4440   11.8300   -2.4720 N.ar  158  TRP158     -0.2442
     55  CE2      -32.0130   11.5510   -1.2010 C.ar  158  TRP158      0.0810
     56  CE3      -30.2180   10.3160   -0.1480 C.ar  158  TRP158      0.0012
     57  CZ2      -32.5310   11.9420    0.0280 C.ar  158  TRP158      0.0191
     58  CZ3      -30.7300   10.7110    1.0680 C.ar  158  TRP158      0.0001
     59  CH2      -31.8820   11.5110    1.1480 C.ar  158  TRP158      0.0015
     60  N        -35.1180   11.1080   -9.0930 N.3   181  ILE181     -0.1245
     61  CA       -35.0100   10.5970   -7.7240 C.3   181  ILE181      0.1561
     62  C        -33.7530   11.1480   -7.0450 C.2   181  ILE181      0.2260
     63  O        -33.7960   11.6080   -5.9040 O.2   181  ILE181     -0.2867
     64  CB       -35.0180    9.0620   -7.7160 C.3   181  ILE181      0.0252
     65  CG1      -36.3980    8.5610   -8.1490 C.3   181  ILE181      0.0019
     66  CG2      -34.6810    8.5240   -6.3380 C.3   181  ILE181      0.0019
     67  CD1      -36.4640    7.0750   -8.4080 C.3   181  ILE181      0.0001
     68  N        -32.9740    7.1210  -13.3560 N.3   211  HIS211     -0.1226
     69  CA       -32.3470    6.7760  -12.1000 C.3   211  HIS211      0.1752
     70  C        -31.9030    5.3240  -12.0210 C.2   211  HIS211      0.2596
     71  O        -30.9460    4.9970  -11.3140 O.2   211  HIS211     -0.2718
     72  CB       -33.3310    7.0240  -10.9700 C.3   211  HIS211      0.0759
     73  CG       -32.7350    6.7860   -9.6270 C.ar  211  HIS211      0.0818
     74  ND1      -31.6870    7.5380   -9.1470 N.ar  211  HIS211     -0.2268
     75  CD2      -33.0040    5.8600   -8.6810 C.ar  211  HIS211      0.1154
     76  CE1      -31.3480    7.1000   -7.9490 C.ar  211  HIS211      0.1986
     77  NE2      -32.1280    6.0780   -7.6500 N.ar  211  HIS211     -0.2212
     78  N        -32.5920    4.4420  -12.7300 N.am  212  PHE212     -0.1976
     79  CA       -32.2990    3.0220  -12.6010 C.3   212  PHE212      0.1639
     80  C        -31.3750    2.4950  -13.6960 C.2   212  PHE212      0.2290
     81  O        -31.1170    1.2950  -13.7810 O.2   212  PHE212     -0.2864
     82  CB       -33.6000    2.2270  -12.5070 C.3   212  PHE212      0.0560
     83  CG       -34.4510    2.6320  -11.3400 C.ar  212  PHE212     -0.0200
     84  CD1      -34.1570    2.1800  -10.0640 C.ar  212  PHE212     -0.0042
     85  CD2      -35.5240    3.4920  -11.5120 C.ar  212  PHE212     -0.0042
     86  CE1      -34.9300    2.5600   -8.9820 C.ar  212  PHE212     -0.0003
     87  CE2      -36.3000    3.8770  -10.4360 C.ar  212  PHE212     -0.0003
     88  CZ       -36.0020    3.4110   -9.1680 C.ar  212  PHE212     -0.0000
@<TRIPOS>BOND
     1    81    80    2
     2    80    79    1
     3    68    69    1
     4    78    79    1
     5    78    70   am
     6    79    82    1
     7    82    83    1
     8    69    70    1
     9    69    72    1
    10    70    71    2
    11    85    83   ar
    12    85    87   ar
    13    83    84   ar
    14    72    73    1
    15    87    88   ar
    16    84    86   ar
    17    73    74   ar
    18    73    75   ar
    19    32    30   ar
    20    32    31   ar
    21    88    86   ar
    22    74    76   ar
    23    60    61    1
    24    30    28   ar
    25    75    77   ar
    26    31    29   ar
    27    67    65    1
    28    65    64    1
    29    76    77   ar
    30    28    29   ar
    31    28    27    1
    32    61    64    1
    33    61    62    1
    34    64    66    1
    35    27    24    1
    36    62    63    2
    37    24    23    1
    38    24    25    1
    39    33    25   am
    40    33    34    1
    41    25    26    2
    42    37    34    1
    43    34    35    1
    44    21    20    1
    45    19    18    2
    46    46    47    1
    47    20    22    1
    48    20    17    1
    49    35    36    2
    50    35    38   am
    51     1     2    1
    52    18    17    1
    53    47    50    1
    54    47    48    1
    55    52    51   ar
    56    52    54   ar
    57    50    51    1
    58     2     3    1
    59    17    16    1
    60    38    39    1
    61    51    53   ar
    62    54    55   ar
    63    16     7   am
    64     3     4    2
    65     3     5   am
    66    48    49    2
    67     5     6    1
    68     7     8    2
    69     7     6    1
    70    39    40    1
    71    39    42    1
    72    53    55   ar
    73    53    56   ar
    74    55    57   ar
    75    40    41    2
    76     6     9    1
    77    42    43    1
    78    56    58   ar
    79    57    59   ar
    80     9    10    1
    81    43    44    1
    82    12    10   ar
    83    12    14   ar
    84    58    59   ar
    85    10    11   ar
    86    45    44    1
    87    14    15   ar
    88    11    13   ar
    89    15    13   ar
