@<TRIPOS>MOLECULE
tmp/5zsaB01.pdb
 128 123 0 0 0
SMALL
GASTEIGER

@<TRIPOS>ATOM
      1  N        -22.3180  -24.6410   -2.3600 N.3   238  TYR238     -0.1227
      2  CA       -20.9990  -24.9470   -2.8940 C.3   238  TYR238      0.1736
      3  C        -20.4120  -23.7340   -3.6180 C.2   238  TYR238      0.2595
      4  O        -21.0380  -23.1660   -4.5190 O.2   238  TYR238     -0.2718
      5  CB       -21.0810  -26.1460   -3.8420 C.3   238  TYR238      0.0548
      6  CG       -19.7150  -26.6670   -4.1940 C.ar  238  TYR238     -0.0200
      7  CD1      -18.8580  -27.1270   -3.1980 C.ar  238  TYR238     -0.0009
      8  CD2      -19.2560  -26.6610   -5.5080 C.ar  238  TYR238     -0.0009
      9  CE1      -17.5890  -27.5860   -3.4960 C.ar  238  TYR238      0.0417
     10  CE2      -17.9670  -27.1260   -5.8270 C.ar  238  TYR238      0.0417
     11  CZ       -17.1460  -27.5790   -4.8080 C.ar  238  TYR238      0.1957
     12  OH       -15.8830  -28.0340   -5.0830 O.3   238  TYR238     -0.2866
     13  N        -19.2070  -23.3220   -3.2170 N.am  239  ASN239     -0.1974
     14  CA       -18.5490  -22.1710   -3.8440 C.3   239  ASN239      0.1688
     15  C        -19.4190  -20.9100   -3.7950 C.2   239  ASN239      0.2292
     16  O        -19.4320  -20.1140   -4.7340 O.2   239  ASN239     -0.2864
     17  CB       -18.1250  -22.4580   -5.2920 C.3   239  ASN239      0.1181
     18  CG       -16.8380  -23.2680   -5.3930 C.2   239  ASN239      0.2629
     19  OD1      -16.0070  -23.2800   -4.4720 O.2   239  ASN239     -0.2716
     20  ND2      -16.6440  -23.9160   -6.5390 N.am  239  ASN239     -0.0877
     21  N        -25.8890  -24.8460  -13.2830 N.3   323  PHE323     -0.1241
     22  CA       -25.2100  -25.1560  -12.0270 C.3   323  PHE323      0.1605
     23  C        -26.0180  -26.1400  -11.1630 C.2   323  PHE323      0.2264
     24  O        -26.2960  -25.9080   -9.9790 O.2   323  PHE323     -0.2867
     25  CB       -24.8700  -23.8510  -11.2850 C.3   323  PHE323      0.0534
     26  CG       -23.8090  -23.0470  -11.9900 C.ar  323  PHE323     -0.0203
     27  CD1      -22.4950  -23.4900  -12.0150 C.ar  323  PHE323     -0.0042
     28  CD2      -24.1240  -21.8740  -12.6550 C.ar  323  PHE323     -0.0042
     29  CE1      -21.5200  -22.7740  -12.7040 C.ar  323  PHE323     -0.0003
     30  CE2      -23.1610  -21.1590  -13.3390 C.ar  323  PHE323     -0.0003
     31  CZ       -21.8530  -21.6080  -13.3700 C.ar  323  PHE323     -0.0000
     32  N        -24.7870  -29.4680  -11.3060 N.3   325  PHE325     -0.1241
     33  CA       -23.8830  -30.6060  -11.3200 C.3   325  PHE325      0.1605
     34  C        -23.7310  -31.2250   -9.9370 C.2   325  PHE325      0.2264
     35  O        -23.8330  -30.5530   -8.9010 O.2   325  PHE325     -0.2867
     36  CB       -22.5130  -30.1810  -11.8520 C.3   325  PHE325      0.0534
     37  CG       -21.7830  -29.2270  -10.9450 C.ar  325  PHE325     -0.0203
     38  CD1      -21.9670  -27.8590  -11.0700 C.ar  325  PHE325     -0.0042
     39  CD2      -20.9110  -29.6900   -9.9860 C.ar  325  PHE325     -0.0042
     40  CE1      -21.3030  -26.9710  -10.2400 C.ar  325  PHE325     -0.0003
     41  CE2      -20.2430  -28.8080   -9.1490 C.ar  325  PHE325     -0.0003
     42  CZ       -20.4350  -27.4480   -9.2720 C.ar  325  PHE325     -0.0000
     43  N        -17.8770  -33.0360   -7.5860 N.3   328  GLN328     -0.1231
     44  CA       -16.7710  -33.9380   -7.9110 C.3   328  GLN328      0.1698
     45  C        -17.0350  -34.8660   -9.0940 C.2   328  GLN328      0.2592
     46  O        -16.2960  -35.8370   -9.2760 O.2   328  GLN328     -0.2718
     47  CB       -16.3720  -34.7920   -6.7010 C.3   328  GLN328      0.0381
     48  CG       -16.3390  -34.0390   -5.3860 C.3   328  GLN328      0.0905
     49  CD       -15.3510  -32.8910   -5.4060 C.2   328  GLN328      0.2608
     50  OE1      -14.2660  -32.9990   -5.9910 O.2   328  GLN328     -0.2717
     51  NE2      -15.7230  -31.7790   -4.7680 N.am  328  GLN328     -0.0878
     52  N        -18.0430  -34.6050   -9.9250 N.am  329  VAL329     -0.1966
     53  CA       -18.3840  -35.4840  -11.0430 C.3   329  VAL329      0.1727
     54  C        -18.1270  -34.7670  -12.3650 C.2   329  VAL329      0.2616
     55  O        -18.6390  -33.6630  -12.5990 O.2   329  VAL329     -0.2715
     56  CB       -19.8440  -35.9670  -10.9690 C.3   329  VAL329      0.0290
     57  CG1      -20.1530  -36.8940  -12.1530 C.3   329  VAL329      0.0023
     58  CG2      -20.0910  -36.6720   -9.6640 C.3   329  VAL329      0.0023
     59  N        -17.3710  -35.4170  -13.2440 N.am  330  TYR330     -0.1974
     60  CA       -17.1010  -34.9210  -14.5850 C.3   330  TYR330      0.1639
     61  C        -17.7450  -35.8780  -15.5900 C.2   330  TYR330      0.2290
     62  O        -17.1020  -36.7830  -16.1100 O.2   330  TYR330     -0.2864
     63  CB       -15.5990  -34.8030  -14.7790 C.3   330  TYR330      0.0560
     64  CG       -15.1360  -33.9850  -15.9620 C.ar  330  TYR330     -0.0198
     65  CD1      -16.0140  -33.1870  -16.6960 C.ar  330  TYR330     -0.0009
     66  CD2      -13.8050  -34.0250  -16.3530 C.ar  330  TYR330     -0.0009
     67  CE1      -15.5610  -32.4490  -17.7750 C.ar  330  TYR330      0.0417
     68  CE2      -13.3560  -33.2940  -17.4220 C.ar  330  TYR330      0.0417
     69  CZ       -14.2280  -32.5160  -18.1270 C.ar  330  TYR330      0.1957
     70  OH       -13.7300  -31.8060  -19.1860 O.3   330  TYR330     -0.2866
     71  N        -22.8100  -25.0630  -16.1700 N.3   353  GLY353     -0.1225
     72  CA       -22.4290  -25.8400  -15.0030 C.3   353  GLY353      0.1811
     73  C        -23.1290  -27.1780  -14.8960 C.2   353  GLY353      0.2280
     74  O        -23.4720  -27.6070  -13.7830 O.2   353  GLY353     -0.2866
     75  N        -21.4180  -29.6520  -16.5350 N.3   355  VAL355     -0.1245
     76  CA       -20.0780  -30.2030  -16.3700 C.3   355  VAL355      0.1561
     77  C        -19.9660  -31.5720  -17.0280 C.2   355  VAL355      0.2260
     78  O        -20.2410  -32.6040  -16.4030 O.2   355  VAL355     -0.2867
     79  CB       -19.6840  -30.2550  -14.8870 C.3   355  VAL355      0.0252
     80  CG1      -18.2340  -30.6570  -14.7400 C.3   355  VAL355      0.0019
     81  CG2      -19.9490  -28.9160  -14.2520 C.3   355  VAL355      0.0019
     82  N        -19.6350  -22.5470  -19.2460 N.3   380  THR380     -0.1218
     83  CA       -19.0470  -23.0770  -18.0100 C.3   380  THR380      0.1862
     84  C        -19.4410  -24.5430  -17.7960 C.2   380  THR380      0.2287
     85  O        -20.0060  -24.9350  -16.7810 O.2   380  THR380     -0.2866
     86  CB       -19.4040  -22.2020  -16.8010 C.3   380  THR380      0.1770
     87  OG1      -19.0530  -20.8470  -17.0880 O.3   380  THR380     -0.2211
     88  CG2      -18.6290  -22.6260  -15.5400 C.3   380  THR380      0.0375
     89  N        -16.8890  -27.0160  -18.9710 N.3   382  PHE382     -0.1241
     90  CA       -15.6220  -27.7350  -19.1060 C.3   382  PHE382      0.1605
     91  C        -15.6910  -28.7800  -20.2130 C.2   382  PHE382      0.2264
     92  O        -15.0840  -29.8530  -20.1030 O.2   382  PHE382     -0.2867
     93  CB       -15.2000  -28.3730  -17.7860 C.3   382  PHE382      0.0534
     94  CG       -14.9840  -27.3800  -16.6900 C.ar  382  PHE382     -0.0203
     95  CD1      -13.7210  -26.8810  -16.4340 C.ar  382  PHE382     -0.0042
     96  CD2      -16.0470  -26.9260  -15.9330 C.ar  382  PHE382     -0.0042
     97  CE1      -13.5180  -25.9510  -15.4360 C.ar  382  PHE382     -0.0003
     98  CE2      -15.8480  -25.9950  -14.9280 C.ar  382  PHE382     -0.0003
     99  CZ       -14.5800  -25.5130  -14.6780 C.ar  382  PHE382     -0.0000
    100  N        -14.6020  -30.4790  -23.4470 N.3   384  LYS384     -0.1245
    101  CA       -13.3270  -30.5950  -24.1450 C.3   384  LYS384      0.1561
    102  C        -13.4760  -30.7830  -25.6540 C.2   384  LYS384      0.2260
    103  O        -12.5660  -30.4010  -26.4000 O.2   384  LYS384     -0.2867
    104  CB       -12.5140  -31.7750  -23.5830 C.3   384  LYS384      0.0271
    105  CG       -12.1970  -31.6670  -22.1000 C.3   384  LYS384      0.0035
    106  CD       -10.9700  -32.4790  -21.6580 C.3   384  LYS384      0.0206
    107  CE       -10.5030  -32.0240  -20.2560 C.3   384  LYS384      0.1093
    108  NZ       -10.0090  -33.1220  -19.3530 N.3   384  LYS384     -0.1314
    109  N        -13.4140  -25.8510  -22.3880 N.3   406  LYS406     -0.1245
    110  CA       -12.0510  -26.2720  -22.6700 C.3   406  LYS406      0.1561
    111  C        -11.9330  -26.8010  -24.0940 C.2   406  LYS406      0.2260
    112  O        -11.1010  -27.6660  -24.3700 O.2   406  LYS406     -0.2867
    113  CB       -11.5860  -27.3100  -21.6470 C.3   406  LYS406      0.0271
    114  CG       -11.0950  -26.6920  -20.3150 C.3   406  LYS406      0.0035
    115  CD       -10.6720  -27.7710  -19.3000 C.3   406  LYS406      0.0206
    116  CE        -9.2540  -28.3200  -19.5270 C.3   406  LYS406      0.1093
    117  NZ        -8.8430  -29.3420  -18.4830 N.3   406  LYS406     -0.1314
    118  N        -23.8660  -16.7300   -9.2050 N.3   417  PHE417     -0.1241
    119  CA       -23.3020  -16.8220   -7.8660 C.3   417  PHE417      0.1605
    120  C        -23.4270  -15.5170   -7.0780 C.2   417  PHE417      0.2264
    121  O        -22.7550  -15.3400   -6.0620 O.2   417  PHE417     -0.2867
    122  CB       -21.8560  -17.2920   -7.9460 C.3   417  PHE417      0.0534
    123  CG       -21.7400  -18.7440   -8.2050 C.ar  417  PHE417     -0.0203
    124  CD1      -21.4680  -19.6190   -7.1670 C.ar  417  PHE417     -0.0042
    125  CD2      -21.9310  -19.2470   -9.4880 C.ar  417  PHE417     -0.0042
    126  CE1      -21.3600  -20.9750   -7.3880 C.ar  417  PHE417     -0.0003
    127  CE2      -21.8460  -20.6000   -9.7320 C.ar  417  PHE417     -0.0003
    128  CZ       -21.5460  -21.4770   -8.6760 C.ar  417  PHE417     -0.0000
@<TRIPOS>BOND
     1   103   102    2
     2   102   101    1
     3   112   111    2
     4   101   104    1
     5   101   100    1
     6   111   110    1
     7   104   105    1
     8   110   109    1
     9   110   113    1
    10   105   106    1
    11   106   107    1
    12   113   114    1
    13   114   115    1
    14   107   108    1
    15    91    92    2
    16    91    90    1
    17   116   115    1
    18   116   117    1
    19    82    83    1
    20    70    69    1
    21    90    89    1
    22    90    93    1
    23    69    67   ar
    24    69    68   ar
    25    83    84    1
    26    83    86    1
    27    84    85    2
    28    93    94    1
    29    67    65   ar
    30    68    66   ar
    31    87    86    1
    32    77    78    2
    33    77    76    1
    34    86    88    1
    35    65    64   ar
    36    94    95   ar
    37    94    96   ar
    38    75    76    1
    39    95    97   ar
    40    76    79    1
    41    66    64   ar
    42    71    72    1
    43    62    61    2
    44    64    63    1
    45    96    98   ar
    46    61    60    1
    47    97    99   ar
    48    72    73    1
    49    98    99   ar
    50    73    74    2
    51    79    80    1
    52    79    81    1
    53    63    60    1
    54    60    59    1
    55    31    30   ar
    56    31    29   ar
    57    30    28   ar
    58    21    22    1
    59    59    54   am
    60    29    27   ar
    61    28    26   ar
    62    55    54    2
    63    54    53    1
    64    57    56    1
    65    22    25    1
    66    22    23    1
    67    27    26   ar
    68    26    25    1
    69    36    33    1
    70    36    37    1
    71    33    32    1
    72    33    34    1
    73    23    24    2
    74    38    37   ar
    75    38    40   ar
    76    53    56    1
    77    53    52    1
    78    56    58    1
    79    37    39   ar
    80    40    42   ar
    81    39    41   ar
    82    34    35    2
    83    52    45   am
    84   127   125   ar
    85   127   128   ar
    86   125   123   ar
    87    46    45    2
    88    42    41   ar
    89   118   119    1
    90    45    44    1
    91   128   126   ar
    92   123   122    1
    93   123   124   ar
    94   122   119    1
    95    44    43    1
    96    44    47    1
    97   119   120    1
    98   126   124   ar
    99   120   121    2
   100    47    48    1
   101    20    18   am
   102    50    49    2
   103    10     8   ar
   104    10    11   ar
   105     8     6   ar
   106    49    48    1
   107    49    51   am
   108    18    17    1
   109    18    19    2
   110    17    14    1
   111    12    11    1
   112    11     9   ar
   113    16    15    2
   114     4     3    2
   115     6     5    1
   116     6     7   ar
   117    14    15    1
   118    14    13    1
   119     5     2    1
   120     3    13   am
   121     3     2    1
   122     9     7   ar
   123     2     1    1
