@<TRIPOS>MOLECULE
tmp/5zsaB00.pdb
 236 228 0 0 0
SMALL
GASTEIGER

@<TRIPOS>ATOM
      1  N        -28.3280    9.8210   -0.6770 N.3    48  ILE48      -0.1245
      2  CA       -26.8890    9.9550   -0.4450 C.3    48  ILE48       0.1561
      3  C        -26.5550   11.3670    0.0290 C.2    48  ILE48       0.2260
      4  O        -25.8780   12.1360   -0.6650 O.2    48  ILE48      -0.2867
      5  CB       -26.0650    9.5640   -1.6910 C.3    48  ILE48       0.0252
      6  CG1      -26.5800    8.2390   -2.2770 C.3    48  ILE48       0.0019
      7  CG2      -24.6080    9.4130   -1.3170 C.3    48  ILE48       0.0019
      8  CD1      -25.9200    7.8220   -3.5520 C.3    48  ILE48       0.0001
      9  N        -26.4040   13.5290    4.2600 N.3    50  HIS50      -0.1241
     10  CA       -26.2770   13.2760    5.6830 C.3    50  HIS50       0.1621
     11  C        -27.2270   14.1700    6.4460 C.2    50  HIS50       0.2264
     12  O        -26.8670   14.8460    7.4100 O.2    50  HIS50      -0.2867
     13  CB       -24.8240   13.4310    6.1050 C.3    50  HIS50       0.0745
     14  CG       -23.9000   12.6050    5.2720 C.ar   50  HIS50       0.0817
     15  ND1      -23.2570   13.1040    4.1630 N.ar   50  HIS50      -0.2268
     16  CD2      -23.6240   11.2810    5.3010 C.ar   50  HIS50       0.1154
     17  CE1      -22.5640   12.1410    3.5870 C.ar   50  HIS50       0.1986
     18  NE2      -22.7750   11.0230    4.2550 N.ar   50  HIS50      -0.2212
     19  N        -33.5280    8.1910    0.5040 N.3    71  ARG71      -0.1231
     20  CA       -32.7760    6.9780    0.8150 C.3    71  ARG71       0.1694
     21  C        -31.3390    7.2980    1.2150 C.2    71  ARG71       0.2592
     22  O        -30.7690    8.3150    0.8020 O.2    71  ARG71      -0.2718
     23  CB       -32.7380    6.0170   -0.3750 C.3    71  ARG71       0.0321
     24  CG       -34.0710    5.5160   -0.8280 C.3    71  ARG71       0.0489
     25  CD       -34.1380    5.4750   -2.3460 C.3    71  ARG71       0.2205
     26  NE       -33.2300    4.5150   -2.9540 N.pl3  71  ARG71      -0.0865
     27  CZ       -32.5430    4.7310   -4.0760 C.cat  71  ARG71       0.5346
     28  NH1      -32.6160    5.8930   -4.7240 N.pl3  71  ARG71       0.1354
     29  NH2      -31.7590    3.7740   -4.5430 N.pl3  71  ARG71       0.1354
     30  N        -30.7510    6.4010    2.0190 N.am   72  CYS72      -0.1970
     31  CA       -29.2970    6.3640    2.2500 C.3    72  CYS72       0.1712
     32  C        -28.7750    7.6950    2.7970 C.2    72  CYS72       0.2296
     33  O        -27.8420    8.2890    2.2590 O.2    72  CYS72      -0.2864
     34  CB       -28.5360    5.9610    0.9810 C.3    72  CYS72       0.0983
     35  SG       -29.0820    4.4340    0.2070 S.3    72  CYS72      -0.0798
     36  N        -26.8760    4.8600    6.1070 N.3    75  VAL75      -0.1245
     37  CA       -26.7830    3.4930    5.6180 C.3    75  VAL75       0.1561
     38  C        -26.2930    2.6200    6.7640 C.2    75  VAL75       0.2260
     39  O        -25.5400    3.0910    7.6320 O.2    75  VAL75      -0.2867
     40  CB       -25.8290    3.4280    4.4160 C.3    75  VAL75       0.0252
     41  CG1      -25.7470    2.0150    3.8070 C.3    75  VAL75       0.0019
     42  CG2      -26.2440    4.4640    3.3920 C.3    75  VAL75       0.0019
     43  N        -22.9190   -1.7860    5.0920 N.3    79  LEU79      -0.1231
     44  CA       -23.3320   -1.4930    3.7270 C.3    79  LEU79       0.1693
     45  C        -22.7860   -0.1660    3.2090 C.2    79  LEU79       0.2593
     46  O        -22.6990    0.0290    1.9910 O.2    79  LEU79      -0.2718
     47  CB       -24.8640   -1.4630    3.6490 C.3    79  LEU79       0.0284
     48  CG       -25.6320   -2.7250    4.0290 C.3    79  LEU79       0.0019
     49  CD1      -27.1140   -2.4330    4.1000 C.3    79  LEU79       0.0001
     50  CD2      -25.3610   -3.7770    2.9950 C.3    79  LEU79       0.0001
     51  N        -22.4350    0.7600    4.0990 N.am   80  GLY80      -0.1942
     52  CA       -22.0890    2.1040    3.7030 C.3    80  GLY80       0.2014
     53  C        -20.5980    2.3740    3.7610 C.2    80  GLY80       0.2640
     54  O        -19.7810    1.5050    4.0450 O.2    80  GLY80      -0.2714
     55  N        -20.2630    3.6310    3.4880 N.am   81  SER81      -0.1935
     56  CA       -18.8760    4.0730    3.5020 C.3    81  SER81       0.2055
     57  C        -18.2370    3.7970    4.8600 C.2    81  SER81       0.2642
     58  O        -18.8070    4.1310    5.9020 O.2    81  SER81      -0.2714
     59  CB       -18.8250    5.5650    3.1780 C.3    81  SER81       0.2130
     60  OG       -17.5250    6.0930    3.3180 O.3    81  SER81      -0.2179
     61  N        -17.0680    3.1470    4.8540 N.am   82  LYS82      -0.1977
     62  CA       -16.3380    3.0100    6.1060 C.3    82  LYS82       0.1596
     63  C        -15.4680    4.2290    6.4130 C.2    82  LYS82       0.2287
     64  O        -14.9720    4.3540    7.5380 O.2    82  LYS82      -0.2864
     65  CB       -15.5090    1.7280    6.0980 C.3    82  LYS82       0.0298
     66  CG       -16.1340    0.6240    6.9700 C.3    82  LYS82       0.0038
     67  CD       -17.5230    0.1810    6.4560 C.3    82  LYS82       0.0206
     68  CE       -17.4060   -0.4410    5.0670 C.3    82  LYS82       0.1093
     69  NZ       -18.6580   -1.0940    4.5590 N.3    82  LYS82      -0.1314
     70  N        -16.8570    7.4180    5.9970 N.3    84  ASN84      -0.1240
     71  CA       -17.8270    8.3660    6.5390 C.3    84  ASN84       0.1653
     72  C        -19.0010    7.5580    7.1020 C.2    84  ASN84       0.2266
     73  O        -20.0760    7.4990    6.5140 O.2    84  ASN84      -0.2867
     74  CB       -18.2690    9.3530    5.4600 C.3    84  ASN84       0.1155
     75  CG       -19.1180   10.4800    6.0040 C.2    84  ASN84       0.2627
     76  OD1      -19.1940   10.7010    7.2230 O.2    84  ASN84      -0.2716
     77  ND2      -19.7520   11.2200    5.0960 N.am   84  ASN84      -0.0877
     78  N        -35.2990    3.9110    2.3770 N.3   109  ASP109     -0.1225
     79  CA       -34.3620    2.8120    2.5150 C.3   109  ASP109      0.1805
     80  C        -33.0150    3.2980    3.0520 C.2   109  ASP109      0.2598
     81  O        -32.6120    4.4490    2.8600 O.2   109  ASP109     -0.2718
     82  CB       -34.1700    2.1120    1.1630 C.3   109  ASP109      0.1424
     83  CG       -35.4880    1.9230    0.4120 C.2   109  ASP109      0.3668
     84  OD1      -36.0070    0.7760    0.3250 O.co2 109  ASP109     -0.2456
     85  OD2      -36.0050    2.9390   -0.0930 O.co2 109  ASP109     -0.2456
     86  N        -32.3260    2.4070    3.7510 N.am  110  GLY110     -0.1957
     87  CA       -30.9460    2.6850    4.1080 C.3   110  GLY110      0.1869
     88  C        -30.7810    3.8330    5.0720 C.2   110  GLY110      0.2309
     89  O        -29.8720    4.6470    4.9080 O.2   110  GLY110     -0.2863
     90  N        -36.2150   -0.8290    2.5290 N.3   130  GLU130     -0.1231
     91  CA       -35.0970   -1.7680    2.4320 C.3   130  GLU130      0.1699
     92  C        -33.8940   -1.2880    3.2440 C.2   130  GLU130      0.2592
     93  O        -33.7380   -0.1000    3.5420 O.2   130  GLU130     -0.2718
     94  CB       -34.6930   -1.9840    0.9600 C.3   130  GLU130      0.0402
     95  CG       -35.8550   -2.4560    0.0160 C.3   130  GLU130      0.1161
     96  CD       -35.3870   -2.9000   -1.3940 C.2   130  GLU130      0.3649
     97  OE1      -34.3730   -2.3550   -1.8970 O.co2 130  GLU130     -0.2457
     98  OE2      -36.0380   -3.7930   -2.0120 O.co2 130  GLU130     -0.2457
     99  N        -33.0650   -2.2400    3.6590 N.am  131  ALA131     -0.1980
    100  CA       -31.7650   -1.9270    4.2640 C.3   131  ALA131      0.1597
    101  C        -31.9080   -1.0310    5.4990 C.2   131  ALA131      0.2287
    102  O        -31.0520   -0.1800    5.7670 O.2   131  ALA131     -0.2864
    103  CB       -30.7990   -1.3040    3.2300 C.3   131  ALA131      0.0319
    104  N        -33.8720   -6.8500    2.9500 N.3   155  GLN155     -0.1245
    105  CA       -32.5110   -6.4740    3.3610 C.3   155  GLN155      0.1566
    106  C        -32.4800   -5.7910    4.7230 C.2   155  GLN155      0.2260
    107  O        -31.5680   -5.0110    5.0180 O.2   155  GLN155     -0.2867
    108  CB       -31.8120   -5.6150    2.2960 C.3   155  GLN155      0.0367
    109  CG       -31.4340   -6.4750    1.1050 C.3   155  GLN155      0.0905
    110  CD       -30.8700   -5.7140   -0.0840 C.2   155  GLN155      0.2608
    111  OE1      -31.4940   -5.6880   -1.1490 O.2   155  GLN155     -0.2717
    112  NE2      -29.6660   -5.1380    0.0700 N.am  155  GLN155     -0.0878
    113  N        -29.9360   -9.6200    7.2430 N.3   158  TYR158     -0.1227
    114  CA       -29.1260  -10.5830    6.5040 C.3   158  TYR158      0.1736
    115  C        -27.6610  -10.3400    6.8430 C.2   158  TYR158      0.2595
    116  O        -27.3360   -9.4710    7.6550 O.2   158  TYR158     -0.2718
    117  CB       -29.4010  -10.5190    5.0050 C.3   158  TYR158      0.0548
    118  CG       -28.9190   -9.2900    4.2850 C.ar  158  TYR158     -0.0200
    119  CD1      -29.4470   -8.0400    4.5720 C.ar  158  TYR158     -0.0009
    120  CD2      -27.9650   -9.3850    3.2600 C.ar  158  TYR158     -0.0009
    121  CE1      -29.0150   -6.9030    3.8790 C.ar  158  TYR158      0.0417
    122  CE2      -27.5400   -8.2630    2.5680 C.ar  158  TYR158      0.0417
    123  CZ       -28.0700   -7.0300    2.8810 C.ar  158  TYR158      0.1957
    124  OH       -27.6610   -5.9150    2.2090 O.3   158  TYR158     -0.2866
    125  N        -26.7720  -11.1470    6.2500 N.am  159  TYR159     -0.1962
    126  CA       -25.3890  -11.1950    6.7340 C.3   159  TYR159      0.1771
    127  C        -24.7170   -9.8170    6.7020 C.2   159  TYR159      0.2619
    128  O        -24.0090   -9.4500    7.6480 O.2   159  TYR159     -0.2715
    129  CB       -24.5970  -12.2440    5.9460 C.3   159  TYR159      0.0574
    130  CG       -24.0520  -11.8270    4.5880 C.ar  159  TYR159     -0.0198
    131  CD1      -22.7010  -11.5490    4.4280 C.ar  159  TYR159     -0.0009
    132  CD2      -24.8700  -11.7670    3.4610 C.ar  159  TYR159     -0.0009
    133  CE1      -22.1830  -11.1840    3.2030 C.ar  159  TYR159      0.0417
    134  CE2      -24.3620  -11.4020    2.2120 C.ar  159  TYR159      0.0417
    135  CZ       -23.0110  -11.1110    2.0960 C.ar  159  TYR159      0.1957
    136  OH       -22.4630  -10.7400    0.8870 O.3   159  TYR159     -0.2866
    137  N        -24.9640   -9.0120    5.6540 N.am  160  ARG160     -0.1977
    138  CA       -24.3920   -7.6680    5.5950 C.3   160  ARG160      0.1597
    139  C        -25.0980   -6.6740    6.5130 C.2   160  ARG160      0.2287
    140  O        -24.5630   -5.5810    6.7600 O.2   160  ARG160     -0.2864
    141  CB       -24.4520   -7.1180    4.1700 C.3   160  ARG160      0.0334
    142  CG       -23.7810   -7.9640    3.1220 C.3   160  ARG160      0.0492
    143  CD       -22.4590   -7.3790    2.7340 C.3   160  ARG160      0.2205
    144  NE       -22.5860   -6.1020    2.0470 N.pl3 160  ARG160     -0.0865
    145  CZ       -21.6210   -5.1910    2.0390 C.cat 160  ARG160      0.5346
    146  NH1      -20.4860   -5.4210    2.6840 N.pl3 160  ARG160      0.1354
    147  NH2      -21.7900   -4.0450    1.4060 N.pl3 160  ARG160      0.1354
    148  N        -20.5430  -15.7890   -0.6060 N.3   242  PHE242     -0.1241
    149  CA       -21.0820  -15.1180    0.5640 C.3   242  PHE242      0.1605
    150  C        -21.2510  -16.1630    1.6560 C.2   242  PHE242      0.2264
    151  O        -21.3060  -17.3630    1.3660 O.2   242  PHE242     -0.2867
    152  CB       -22.4140  -14.4290    0.2360 C.3   242  PHE242      0.0534
    153  CG       -23.3400  -15.2820   -0.5850 C.ar  242  PHE242     -0.0203
    154  CD1      -23.3290  -15.2010   -1.9770 C.ar  242  PHE242     -0.0042
    155  CD2      -24.1960  -16.1970    0.0260 C.ar  242  PHE242     -0.0042
    156  CE1      -24.1710  -15.9940   -2.7450 C.ar  242  PHE242     -0.0003
    157  CE2      -25.0440  -16.9990   -0.7430 C.ar  242  PHE242     -0.0003
    158  CZ       -25.0290  -16.9010   -2.1280 C.ar  242  PHE242     -0.0000
    159  N        -20.8050  -11.6350  -12.7390 N.3   414  LEU414     -0.1245
    160  CA       -21.2120  -12.4580  -11.6150 C.3   414  LEU414      0.1561
    161  C        -22.7290  -12.5250  -11.7000 C.2   414  LEU414      0.2260
    162  O        -23.3970  -11.4860  -11.6970 O.2   414  LEU414     -0.2867
    163  CB       -20.7200  -11.8540  -10.2950 C.3   414  LEU414      0.0270
    164  CG       -20.6630  -12.6230   -8.9690 C.3   414  LEU414      0.0019
    165  CD1      -19.5890  -13.6950   -9.0010 C.3   414  LEU414      0.0001
    166  CD2      -20.3980  -11.6590   -7.8040 C.3   414  LEU414      0.0001
    167  N        -24.2760  -14.6020   -7.5150 N.3   418  ARG418     -0.1231
    168  CA       -24.5450  -13.4330   -6.7050 C.3   418  ARG418      0.1694
    169  C        -25.5090  -13.7740   -5.5760 C.2   418  ARG418      0.2592
    170  O        -26.3520  -14.6630   -5.6940 O.2   418  ARG418     -0.2718
    171  CB       -25.1300  -12.3140   -7.5590 C.3   418  ARG418      0.0321
    172  CG       -24.0930  -11.6420   -8.4090 C.3   418  ARG418      0.0489
    173  CD       -24.6090  -10.3490   -8.9660 C.3   418  ARG418      0.2205
    174  NE       -25.0860   -9.4760   -7.8980 N.pl3 418  ARG418     -0.0865
    175  CZ       -25.5660   -8.2520   -8.0990 C.cat 418  ARG418      0.5346
    176  NH1      -25.9920   -7.5290   -7.0780 N.pl3 418  ARG418      0.1354
    177  NH2      -25.6170   -7.7450   -9.3260 N.pl3 418  ARG418      0.1354
    178  N        -25.3690  -13.0530   -4.4670 N.am  419  TYR419     -0.1962
    179  CA       -26.3120  -13.2170   -3.3670 C.3   419  TYR419      0.1771
    180  C        -27.6890  -12.7170   -3.7710 C.2   419  TYR419      0.2619
    181  O        -28.6600  -13.4760   -3.7700 O.2   419  TYR419     -0.2715
    182  CB       -25.8180  -12.4910   -2.1100 C.3   419  TYR419      0.0574
    183  CG       -26.8340  -12.4780   -0.9750 C.ar  419  TYR419     -0.0198
    184  CD1      -27.1120  -13.6370   -0.2520 C.ar  419  TYR419     -0.0009
    185  CD2      -27.5020  -11.3020   -0.6150 C.ar  419  TYR419     -0.0009
    186  CE1      -28.0440  -13.6310    0.7890 C.ar  419  TYR419      0.0417
    187  CE2      -28.4250  -11.2810    0.4300 C.ar  419  TYR419      0.0417
    188  CZ       -28.6940  -12.4540    1.1230 C.ar  419  TYR419      0.1957
    189  OH       -29.6100  -12.4650    2.1440 O.3   419  TYR419     -0.2866
    190  N        -27.7920  -11.4390   -4.1330 N.am  420  ASP420     -0.1971
    191  CA       -29.0550  -10.8400   -4.5580 C.3   420  ASP420      0.1709
    192  C        -28.7780  -10.0990   -5.8660 C.2   420  ASP420      0.2293
    193  O        -28.3990   -8.9280   -5.8920 O.2   420  ASP420     -0.2864
    194  CB       -29.6360   -9.9410   -3.4700 C.3   420  ASP420      0.1436
    195  CG       -30.9560   -9.3130   -3.8600 C.2   420  ASP420      0.3671
    196  OD1      -31.4170   -9.5040   -5.0100 O.co2 420  ASP420     -0.2456
    197  OD2      -31.5560   -8.6390   -2.9870 O.co2 420  ASP420     -0.2456
    198  N        -30.5990   -6.5990   -6.2570 N.3   423  ALA423     -0.1231
    199  CA       -30.5290   -5.5830   -5.2220 C.3   423  ALA423      0.1694
    200  C        -30.4280   -4.1840   -5.8210 C.2   423  ALA423      0.2592
    201  O        -29.8030   -3.9660   -6.8600 O.2   423  ALA423     -0.2718
    202  CB       -29.3600   -5.8550   -4.2950 C.3   423  ALA423      0.0304
    203  N        -31.0720   -3.2440   -5.1510 N.am  424  ARG424     -0.1966
    204  CA       -31.0830   -1.8480   -5.5440 C.3   424  ARG424      0.1729
    205  C        -29.8370   -1.1450   -5.0130 C.2   424  ARG424      0.2617
    206  O        -29.3800   -1.4270   -3.9050 O.2   424  ARG424     -0.2715
    207  CB       -32.3420   -1.2000   -4.9690 C.3   424  ARG424      0.0348
    208  CG       -32.8500    0.0120   -5.6570 C.3   424  ARG424      0.0492
    209  CD       -33.8460    0.7130   -4.7530 C.3   424  ARG424      0.2205
    210  NE       -35.1560    0.0580   -4.7880 N.pl3 424  ARG424     -0.0865
    211  CZ       -36.1030    0.2350   -3.8650 C.cat 424  ARG424      0.5346
    212  NH1      -37.2720   -0.3980   -3.9680 N.pl3 424  ARG424      0.1354
    213  NH2      -35.8820    1.0450   -2.8290 N.pl3 424  ARG424      0.1354
    214  N        -29.2860   -0.2260   -5.8000 N.am  425  SER425     -0.1936
    215  CA       -28.1890    0.6070   -5.3200 C.3   425  SER425      0.2055
    216  C        -28.7500    1.8680   -4.6680 C.2   425  SER425      0.2643
    217  O        -29.9420    2.1560   -4.7550 O.2   425  SER425     -0.2714
    218  CB       -27.2500    0.9860   -6.4670 C.3   425  SER425      0.2130
    219  OG       -27.7900    2.0880   -7.1910 O.3   425  SER425     -0.2179
    220  N        -27.8820    2.6380   -4.0060 N.am  426  CYS426     -0.1953
    221  CA       -28.3580    3.8970   -3.4300 C.3   426  CYS426      0.1843
    222  C        -28.6110    4.9780   -4.4880 C.2   426  CYS426      0.2625
    223  O        -29.4410    5.8680   -4.2710 O.2   426  CYS426     -0.2714
    224  CB       -27.3720    4.4200   -2.3810 C.3   426  CYS426      0.0997
    225  SG       -27.4510    3.6570   -0.7470 S.3   426  CYS426     -0.0797
    226  N        -27.9440    4.9320   -5.6350 N.am  427  ARG427     -0.1977
    227  CA       -27.9550    6.1170   -6.4880 C.3   427  ARG427      0.1597
    228  C        -29.2480    6.2920   -7.3100 C.2   427  ARG427      0.2287
    229  O        -29.7990    5.3420   -7.8830 O.2   427  ARG427     -0.2864
    230  CB       -26.7270    6.0980   -7.3960 C.3   427  ARG427      0.0334
    231  CG       -26.3200    7.4880   -7.8250 C.3   427  ARG427      0.0492
    232  CD       -24.8080    7.5830   -8.0140 C.3   427  ARG427      0.2205
    233  NE       -24.3110    8.9520   -7.8550 N.pl3 427  ARG427     -0.0865
    234  CZ       -23.4110    9.3100   -6.9440 C.cat 427  ARG427      0.5346
    235  NH1      -22.9050    8.3970   -6.1190 N.pl3 427  ARG427      0.1354
    236  NH2      -23.0040   10.5740   -6.8690 N.pl3 427  ARG427      0.1354
@<TRIPOS>BOND
     1   159   160    1
     2   161   162    2
     3   161   160    1
     4   160   163    1
     5   163   164    1
     6   177   175    1
     7   165   164    1
     8   164   166    1
     9   173   172    1
    10   173   174    1
    11   172   171    1
    12   175   174    2
    13   175   176    1
    14   232   233    1
    15   232   231    1
    16   229   228    2
    17   233   234    2
    18   231   230    1
    19   171   168    1
    20   167   168    1
    21   230   227    1
    22   228   227    1
    23   219   218    1
    24   234   236    1
    25   234   235    1
    26   201   200    2
    27   168   169    1
    28   227   226    1
    29   218   215    1
    30   198   199    1
    31   193   192    2
    32   192   191    1
    33   200   199    1
    34   200   203   am
    35   214   215    1
    36   214   205   am
    37   170   169    2
    38   208   207    1
    39   208   209    1
    40   226   222   am
    41   169   178   am
    42   204   203    1
    43   204   205    1
    44   204   207    1
    45   215   216    1
    46   199   202    1
    47   205   206    2
    48   196   195   ar
    49   210   209    1
    50   210   211    2
    51   217   216    2
    52    28    27    1
    53   216   220   am
    54   191   190    1
    55   191   194    1
    56    29    27    1
    57   222   223    2
    58   222   221    1
    59   178   179    1
    60   190   180   am
    61    27    26    2
    62   220   221    1
    63   212   211    1
    64   211   213    1
    65   195   194    1
    66   195   197   ar
    67   180   181    2
    68   180   179    1
    69     8     6    1
    70   221   224    1
    71   179   182    1
    72    26    25    1
    73   156   158   ar
    74   156   154   ar
    75   224   225    1
    76    25    24    1
    77     6     5    1
    78   158   157   ar
    79   182   183    1
    80    98    96   ar
    81   154   153   ar
    82    97    96   ar
    83     5     7    1
    84     5     2    1
    85    96    95    1
    86   111   110    2
    87   183   185   ar
    88   183   184   ar
    89    24    23    1
    90   225    35    1
    91   157   155   ar
    92     1     2    1
    93     4     3    2
    94   185   187   ar
    95   148   149    1
    96   153   155   ar
    97   153   152    1
    98     2     3    1
    99    23    20    1
   100   184   186   ar
   101    85    83   ar
   102   110   112   am
   103   110   109    1
   104    95    94    1
   105    35    34    1
   106   152   149    1
   107    84    83   ar
   108    83    82    1
   109   187   188   ar
   110    19    20    1
   111   149   150    1
   112   186   188   ar
   113    22    21    2
   114    20    21    1
   115   136   135    1
   116    94    91    1
   117    34    31    1
   118   109   108    1
   119   188   189    1
   120    82    79    1
   121    21    30   am
   122   151   150    2
   123   147   145    1
   124    46    45    2
   125    30    31    1
   126   145   144    2
   127   145   146    1
   128   144   143    1
   129   135   134   ar
   130   135   133   ar
   131   124   123    1
   132   134   132   ar
   133    31    32    1
   134    33    32    2
   135   108   105    1
   136    78    79    1
   137    91    90    1
   138    91    92    1
   139    79    80    1
   140   122   123   ar
   141   122   120   ar
   142   143   142    1
   143    81    80    2
   144   123   121   ar
   145   104   105    1
   146    50    48    1
   147    80    86   am
   148   142   141    1
   149    59    60    1
   150    59    56    1
   151   133   131   ar
   152    45    44    1
   153    45    51   am
   154   103   100    1
   155    92    93    2
   156    92    99   am
   157   120   118   ar
   158   105   106    1
   159    42    40    1
   160   132   130   ar
   161    55    56    1
   162    55    53   am
   163    56    57    1
   164    17    15   ar
   165    17    18   ar
   166    47    44    1
   167    47    48    1
   168    99   100    1
   169    52    53    1
   170    52    51    1
   171    44    43    1
   172    86    87    1
   173    53    54    2
   174    41    40    1
   175   121   119   ar
   176    48    49    1
   177    87    88    1
   178    15    14   ar
   179   141   138    1
   180    18    16   ar
   181     9    10    1
   182   100   101    1
   183   118   119   ar
   184   118   117    1
   185    40    37    1
   186   131   130   ar
   187    69    68    1
   188   130   129    1
   189   106   107    2
   190    61    57   am
   191    61    62    1
   192    57    58    2
   193    89    88    2
   194   117   114    1
   195    68    67    1
   196    77    75   am
   197    14    16   ar
   198    14    13    1
   199    74    75    1
   200    74    71    1
   201   101   102    2
   202   138   137    1
   203   138   139    1
   204    37    36    1
   205    37    38    1
   206   137   127   am
   207    10    13    1
   208    10    11    1
   209   129   126    1
   210    70    71    1
   211    75    76    2
   212    65    62    1
   213    65    66    1
   214    62    63    1
   215   125   126    1
   216   125   115   am
   217    63    64    2
   218    11    12    2
   219    67    66    1
   220   114   115    1
   221   114   113    1
   222   139   140    2
   223    73    72    2
   224    71    72    1
   225   127   126    1
   226   127   128    2
   227    38    39    2
   228   115   116    2
