@<TRIPOS>MOLECULE
tmp/5zsbB00.pdb
 214 206 0 0 0
SMALL
GASTEIGER

@<TRIPOS>ATOM
      1  N        -28.3780    9.7850   -0.7300 N.3    48  ILE48      -0.1245
      2  CA       -26.9370    9.9190   -0.4760 C.3    48  ILE48       0.1561
      3  C        -26.5850   11.3290   -0.0170 C.2    48  ILE48       0.2260
      4  O        -25.9260   12.0930   -0.7340 O.2    48  ILE48      -0.2867
      5  CB       -26.0530    9.5150   -1.6730 C.3    48  ILE48       0.0252
      6  CG1      -26.4210    8.1350   -2.1960 C.3    48  ILE48       0.0019
      7  CG2      -24.5930    9.4410   -1.2390 C.3    48  ILE48       0.0019
      8  CD1      -26.1790    7.9890   -3.6490 C.3    48  ILE48       0.0001
      9  N        -26.4030   13.5330    4.2110 N.3    50  HIS50      -0.1241
     10  CA       -26.2090   13.2580    5.6270 C.3    50  HIS50       0.1621
     11  C        -27.1460   14.0960    6.4600 C.2    50  HIS50       0.2264
     12  O        -26.7650   14.6630    7.4830 O.2    50  HIS50      -0.2867
     13  CB       -24.7520   13.4830    6.0120 C.3    50  HIS50       0.0745
     14  CG       -23.8150   12.6970    5.1620 C.ar   50  HIS50       0.0817
     15  ND1      -23.5700   11.3600    5.3770 N.ar   50  HIS50      -0.2268
     16  CD2      -23.1400   13.0290    4.0400 C.ar   50  HIS50       0.1154
     17  CE1      -22.7450   10.9120    4.4490 C.ar   50  HIS50       0.1986
     18  NE2      -22.4730   11.9050    3.6230 N.ar   50  HIS50      -0.2212
     19  N        -33.4020    8.1130    0.5220 N.3    71  ARG71      -0.1231
     20  CA       -32.6430    6.9080    0.8340 C.3    71  ARG71       0.1694
     21  C        -31.2020    7.2180    1.2150 C.2    71  ARG71       0.2592
     22  O        -30.6170    8.2080    0.7660 O.2    71  ARG71      -0.2718
     23  CB       -32.6210    5.9490   -0.3460 C.3    71  ARG71       0.0321
     24  CG       -33.9380    5.3930   -0.7250 C.3    71  ARG71       0.0489
     25  CD       -34.0530    5.4120   -2.2390 C.3    71  ARG71       0.2205
     26  NE       -33.1620    4.4820   -2.9190 N.pl3  71  ARG71      -0.0865
     27  CZ       -32.6400    4.7030   -4.1180 C.cat  71  ARG71       0.5346
     28  NH1      -32.8840    5.8360   -4.7600 N.pl3  71  ARG71       0.1354
     29  NH2      -31.8580    3.7950   -4.6660 N.pl3  71  ARG71       0.1354
     30  N        -30.6200    6.3140    2.0070 N.am   72  CYS72      -0.1970
     31  CA       -29.1880    6.3100    2.3020 C.3    72  CYS72       0.1712
     32  C        -28.7280    7.6640    2.8390 C.2    72  CYS72       0.2296
     33  O        -27.8010    8.2900    2.3270 O.2    72  CYS72      -0.2864
     34  CB       -28.3750    5.8980    1.0780 C.3    72  CYS72       0.0983
     35  SG       -28.9720    4.4600    0.2030 S.3    72  CYS72      -0.0798
     36  N        -26.8060    4.8810    6.0680 N.3    75  VAL75      -0.1245
     37  CA       -26.6840    3.4990    5.6030 C.3    75  VAL75       0.1561
     38  C        -26.1990    2.6320    6.7540 C.2    75  VAL75       0.2260
     39  O        -25.4270    3.1150    7.6070 O.2    75  VAL75      -0.2867
     40  CB       -25.7100    3.4310    4.4210 C.3    75  VAL75       0.0252
     41  CG1      -25.7010    2.0510    3.8240 C.3    75  VAL75       0.0019
     42  CG2      -26.0990    4.4730    3.3870 C.3    75  VAL75       0.0019
     43  N        -22.8130   -1.6580    5.0730 N.3    79  LEU79      -0.1231
     44  CA       -23.2380   -1.3610    3.7100 C.3    79  LEU79       0.1693
     45  C        -22.7350   -0.0220    3.1910 C.2    79  LEU79       0.2593
     46  O        -22.6140    0.1470    1.9760 O.2    79  LEU79      -0.2718
     47  CB       -24.7690   -1.3700    3.6030 C.3    79  LEU79       0.0284
     48  CG       -25.5160   -2.6330    4.0010 C.3    79  LEU79       0.0019
     49  CD1      -26.9880   -2.3720    4.0820 C.3    79  LEU79       0.0001
     50  CD2      -25.2370   -3.6790    2.9750 C.3    79  LEU79       0.0001
     51  N        -22.4750    0.9490    4.0630 N.am   80  GLY80      -0.1942
     52  CA       -22.1270    2.2850    3.6410 C.3    80  GLY80       0.2014
     53  C        -20.6280    2.5130    3.6110 C.2    80  GLY80       0.2640
     54  O        -19.8240    1.5930    3.7520 O.2    80  GLY80      -0.2714
     55  N        -20.2590    3.7760    3.4080 N.am   81  SER81      -0.1935
     56  CA       -18.8550    4.1630    3.4290 C.3    81  SER81       0.2055
     57  C        -18.2360    3.8370    4.7830 C.2    81  SER81       0.2642
     58  O        -18.8450    4.0800    5.8280 O.2    81  SER81      -0.2714
     59  CB       -18.7240    5.6590    3.1460 C.3    81  SER81       0.2130
     60  OG       -17.3880    6.0120    2.8460 O.3    81  SER81      -0.2179
     61  N        -17.0120    3.3010    4.7760 N.am   82  LYS82      -0.1977
     62  CA       -16.3060    3.1940    6.0440 C.3    82  LYS82       0.1596
     63  C        -15.4630    4.4250    6.3530 C.2    82  LYS82       0.2287
     64  O        -15.0620    4.6210    7.5060 O.2    82  LYS82      -0.2864
     65  CB       -15.4380    1.9340    6.0860 C.3    82  LYS82       0.0298
     66  CG       -16.0540    0.8350    6.9670 C.3    82  LYS82       0.0038
     67  CD       -17.4600    0.3860    6.4480 C.3    82  LYS82       0.0206
     68  CE       -17.3450   -0.2250    5.0440 C.3    82  LYS82       0.1093
     69  NZ       -18.5610   -0.9370    4.5190 N.3    82  LYS82      -0.1314
     70  N        -16.7480    7.4580    5.9910 N.3    84  ASN84      -0.1240
     71  CA       -17.7620    8.3530    6.5400 C.3    84  ASN84       0.1653
     72  C        -18.9390    7.5020    7.0400 C.2    84  ASN84       0.2266
     73  O        -20.0110    7.4630    6.4380 O.2    84  ASN84      -0.2867
     74  CB       -18.2100    9.3840    5.5020 C.3    84  ASN84       0.1155
     75  CG       -18.9810   10.5400    6.1220 C.2    84  ASN84       0.2627
     76  OD1      -19.0680   10.6560    7.3550 O.2    84  ASN84      -0.2716
     77  ND2      -19.5470   11.4030    5.2730 N.am   84  ASN84      -0.0877
     78  N        -35.2300    3.8760    2.3340 N.3   109  ASP109     -0.1225
     79  CA       -34.2910    2.7710    2.4740 C.3   109  ASP109      0.1805
     80  C        -32.9400    3.2350    3.0220 C.2   109  ASP109      0.2598
     81  O        -32.5350    4.3850    2.8670 O.2   109  ASP109     -0.2718
     82  CB       -34.0750    2.0750    1.1320 C.3   109  ASP109      0.1424
     83  CG       -35.3520    1.9230    0.3490 C.2   109  ASP109      0.3668
     84  OD1      -35.9010    0.8080    0.2930 O.co2 109  ASP109     -0.2456
     85  OD2      -35.8100    2.9280   -0.2220 O.co2 109  ASP109     -0.2456
     86  N        -32.2450    2.3210    3.6860 N.am  110  GLY110     -0.1957
     87  CA       -30.8760    2.6060    4.0680 C.3   110  GLY110      0.1869
     88  C        -30.7290    3.7520    5.0380 C.2   110  GLY110      0.2309
     89  O        -29.7770    4.5320    4.9340 O.2   110  GLY110     -0.2863
     90  N        -36.2280   -0.8590    2.5530 N.3   130  GLU130     -0.1231
     91  CA       -35.0860   -1.7660    2.4510 C.3   130  GLU130      0.1699
     92  C        -33.8690   -1.2470    3.2140 C.2   130  GLU130      0.2592
     93  O        -33.6680   -0.0440    3.3860 O.2   130  GLU130     -0.2718
     94  CB       -34.7070   -1.9730    0.9880 C.3   130  GLU130      0.0402
     95  CG       -35.8500   -2.4690    0.1350 C.3   130  GLU130      0.1161
     96  CD       -35.4220   -2.8190   -1.2900 C.2   130  GLU130      0.3649
     97  OE1      -34.4620   -2.2060   -1.8040 O.co2 130  GLU130     -0.2457
     98  OE2      -36.0250   -3.7400   -1.8920 O.co2 130  GLU130     -0.2457
     99  N        -33.0340   -2.1730    3.6680 N.am  131  ALA131     -0.1980
    100  CA       -31.7440   -1.8220    4.2710 C.3   131  ALA131      0.1597
    101  C        -31.9110   -0.9700    5.5180 C.2   131  ALA131      0.2287
    102  O        -31.0320   -0.1770    5.8580 O.2   131  ALA131     -0.2864
    103  CB       -30.8150   -1.1140    3.2730 C.3   131  ALA131      0.0319
    104  N        -33.8450   -6.8890    2.8680 N.3   155  GLN155     -0.1245
    105  CA       -32.4790   -6.5000    3.2710 C.3   155  GLN155      0.1566
    106  C        -32.4420   -5.8350    4.6420 C.2   155  GLN155      0.2260
    107  O        -31.5240   -5.0670    4.9540 O.2   155  GLN155     -0.2867
    108  CB       -31.8150   -5.6010    2.2200 C.3   155  GLN155      0.0367
    109  CG       -31.3650   -6.3970    1.0550 C.3   155  GLN155      0.0905
    110  CD       -30.9090   -5.5690   -0.1100 C.2   155  GLN155      0.2608
    111  OE1      -31.6420   -5.4340   -1.0920 O.2   155  GLN155     -0.2717
    112  NE2      -29.6820   -5.0480   -0.0430 N.am  155  GLN155     -0.0878
    113  N        -29.8450   -9.6280    7.1440 N.3   158  TYR158     -0.1227
    114  CA       -29.0270  -10.6090    6.4330 C.3   158  TYR158      0.1736
    115  C        -27.5620  -10.3710    6.7690 C.2   158  TYR158      0.2595
    116  O        -27.2350   -9.5410    7.6150 O.2   158  TYR158     -0.2718
    117  CB       -29.2760  -10.5770    4.9330 C.3   158  TYR158      0.0548
    118  CG       -28.8020   -9.3500    4.2050 C.ar  158  TYR158     -0.0200
    119  CD1      -29.3580   -8.1030    4.4750 C.ar  158  TYR158     -0.0009
    120  CD2      -27.8410   -9.4390    3.1870 C.ar  158  TYR158     -0.0009
    121  CE1      -28.9490   -6.9640    3.7890 C.ar  158  TYR158      0.0417
    122  CE2      -27.4330   -8.3110    2.4970 C.ar  158  TYR158      0.0417
    123  CZ       -27.9960   -7.0770    2.8080 C.ar  158  TYR158      0.1957
    124  OH       -27.6260   -5.9470    2.1490 O.3   158  TYR158     -0.2866
    125  N        -26.6700  -11.1310    6.1240 N.am  159  TYR159     -0.1962
    126  CA       -25.2900  -11.1830    6.6090 C.3   159  TYR159      0.1771
    127  C        -24.6220   -9.8070    6.5840 C.2   159  TYR159      0.2619
    128  O        -23.8840   -9.4550    7.5110 O.2   159  TYR159     -0.2715
    129  CB       -24.4760  -12.2170    5.8160 C.3   159  TYR159      0.0574
    130  CG       -23.9180  -11.8260    4.4480 C.ar  159  TYR159     -0.0198
    131  CD1      -22.5750  -11.5040    4.3000 C.ar  159  TYR159     -0.0009
    132  CD2      -24.7130  -11.8080    3.3160 C.ar  159  TYR159     -0.0009
    133  CE1      -22.0380  -11.1500    3.0630 C.ar  159  TYR159      0.0417
    134  CE2      -24.1850  -11.4630    2.0620 C.ar  159  TYR159      0.0417
    135  CZ       -22.8420  -11.1360    1.9470 C.ar  159  TYR159      0.1957
    136  OH       -22.2820  -10.7890    0.7240 O.3   159  TYR159     -0.2866
    137  N        -24.8950   -8.9970    5.5550 N.am  160  ARG160     -0.1977
    138  CA       -24.3490   -7.6500    5.5030 C.3   160  ARG160      0.1597
    139  C        -25.0740   -6.6670    6.4150 C.2   160  ARG160      0.2287
    140  O        -24.5820   -5.5500    6.6090 O.2   160  ARG160     -0.2864
    141  CB       -24.3890   -7.1280    4.0700 C.3   160  ARG160      0.0334
    142  CG       -23.6630   -7.9890    3.0750 C.3   160  ARG160      0.0492
    143  CD       -22.3350   -7.3840    2.7010 C.3   160  ARG160      0.2205
    144  NE       -22.4650   -6.0810    2.0590 N.pl3 160  ARG160     -0.0865
    145  CZ       -21.5080   -5.1580    2.0750 C.cat 160  ARG160      0.5346
    146  NH1      -20.3640   -5.4010    2.6980 N.pl3 160  ARG160      0.1354
    147  NH2      -21.6900   -3.9890    1.4760 N.pl3 160  ARG160      0.1354
    148  N        -20.5610  -11.9650  -12.9520 N.3   414  LEU414     -0.1245
    149  CA       -20.9940  -12.7340  -11.7960 C.3   414  LEU414      0.1561
    150  C        -22.5120  -12.6410  -11.7740 C.2   414  LEU414      0.2260
    151  O        -23.0680  -11.5410  -11.7040 O.2   414  LEU414     -0.2867
    152  CB       -20.3510  -12.2030  -10.5110 C.3   414  LEU414      0.0270
    153  CG       -20.6420  -12.8610   -9.1580 C.3   414  LEU414      0.0019
    154  CD1      -19.5350  -13.8250   -8.7390 C.3   414  LEU414      0.0001
    155  CD2      -20.8310  -11.7980   -8.1070 C.3   414  LEU414      0.0001
    156  N        -24.1620  -14.6850   -7.4250 N.3   418  ARG418     -0.1231
    157  CA       -24.2130  -13.6050   -6.4640 C.3   418  ARG418      0.1694
    158  C        -25.3860  -13.7750   -5.5100 C.2   418  ARG418      0.2592
    159  O        -26.3220  -14.5240   -5.7580 O.2   418  ARG418     -0.2718
    160  CB       -24.2340  -12.2480   -7.1590 C.3   418  ARG418      0.0321
    161  CG       -24.9970  -12.1420   -8.4190 C.3   418  ARG418      0.0489
    162  CD       -24.6460  -10.7900   -8.9930 C.3   418  ARG418      0.2205
    163  NE       -25.0250   -9.7080   -8.0830 N.pl3 418  ARG418     -0.0865
    164  CZ       -25.1750   -8.4410   -8.4590 C.cat 418  ARG418      0.5346
    165  NH1      -25.5420   -7.5130   -7.5800 N.pl3 418  ARG418      0.1354
    166  NH2      -24.9680   -8.1100   -9.7260 N.pl3 418  ARG418      0.1354
    167  N        -25.2960  -13.0760   -4.3870 N.am  419  TYR419     -0.1962
    168  CA       -26.3000  -13.2020   -3.3410 C.3   419  TYR419      0.1771
    169  C        -27.6440  -12.6760   -3.8170 C.2   419  TYR419      0.2619
    170  O        -28.6290  -13.4180   -3.8710 O.2   419  TYR419     -0.2715
    171  CB       -25.8290  -12.4730   -2.0800 C.3   419  TYR419      0.0574
    172  CG       -26.8200  -12.4940   -0.9340 C.ar  419  TYR419     -0.0198
    173  CD1      -27.0750  -13.6650   -0.2340 C.ar  419  TYR419     -0.0009
    174  CD2      -27.4910  -11.3340   -0.5460 C.ar  419  TYR419     -0.0009
    175  CE1      -27.9780  -13.6800    0.8060 C.ar  419  TYR419      0.0417
    176  CE2      -28.3910  -11.3370    0.4920 C.ar  419  TYR419      0.0417
    177  CZ       -28.6340  -12.5170    1.1680 C.ar  419  TYR419      0.1957
    178  OH       -29.5310  -12.5420    2.2040 O.3   419  TYR419     -0.2866
    179  N        -27.7150  -11.3960   -4.1640 N.am  420  ASP420     -0.1971
    180  CA       -28.9680  -10.8040   -4.6330 C.3   420  ASP420      0.1709
    181  C        -28.7040   -9.9990   -5.9060 C.2   420  ASP420      0.2293
    182  O        -28.4280   -8.8020   -5.8530 O.2   420  ASP420     -0.2864
    183  CB       -29.6060   -9.9750   -3.5240 C.3   420  ASP420      0.1436
    184  CG       -30.9260   -9.3700   -3.9260 C.2   420  ASP420      0.3671
    185  OD1      -31.3620   -9.5240   -5.1030 O.co2 420  ASP420     -0.2456
    186  OD2      -31.5430   -8.7280   -3.0440 O.co2 420  ASP420     -0.2456
    187  N        -30.5910   -6.5720   -6.3000 N.3   423  ALA423     -0.1231
    188  CA       -30.5210   -5.5620   -5.2640 C.3   423  ALA423      0.1694
    189  C        -30.4550   -4.1650   -5.8680 C.2   423  ALA423      0.2592
    190  O        -29.7280   -3.9160   -6.8260 O.2   423  ALA423     -0.2718
    191  CB       -29.3150   -5.8140   -4.3740 C.3   423  ALA423      0.0304
    192  N        -31.1980   -3.2470   -5.2670 N.am  424  ARG424     -0.1966
    193  CA       -31.1930   -1.8430   -5.6440 C.3   424  ARG424      0.1729
    194  C        -29.9710   -1.1360   -5.0690 C.2   424  ARG424      0.2617
    195  O        -29.4640   -1.4970   -4.0090 O.2   424  ARG424     -0.2715
    196  CB       -32.4700   -1.1880   -5.1190 C.3   424  ARG424      0.0348
    197  CG       -32.8530    0.1170   -5.7260 C.3   424  ARG424      0.0492
    198  CD       -33.8730    0.7930   -4.8170 C.3   424  ARG424      0.2205
    199  NE       -35.1630    0.1020   -4.8420 N.pl3 424  ARG424     -0.0865
    200  CZ       -36.0630    0.1530   -3.8610 C.cat 424  ARG424      0.5346
    201  NH1      -37.2130   -0.4950   -3.9870 N.pl3 424  ARG424      0.1354
    202  NH2      -35.8230    0.8480   -2.7510 N.pl3 424  ARG424      0.1354
    203  N        -29.5120   -0.1090   -5.7670 N.am  425  SER425     -0.1936
    204  CA       -28.3780    0.7000   -5.3350 C.3   425  SER425      0.2055
    205  C        -28.8740    2.0070   -4.7270 C.2   425  SER425      0.2643
    206  O        -30.0360    2.3860   -4.8840 O.2   425  SER425     -0.2714
    207  CB       -27.4500    1.0060   -6.5110 C.3   425  SER425      0.2130
    208  OG       -27.9860    2.0800   -7.2760 O.3   425  SER425     -0.2179
    209  N        -27.9820    2.6940   -4.0080 N.am  426  CYS426     -0.1967
    210  CA       -28.3870    3.9500   -3.3750 C.3   426  CYS426      0.1712
    211  C        -28.7950    5.0140   -4.4020 C.2   426  CYS426      0.2296
    212  O        -29.5720    5.9160   -4.0750 O.2   426  CYS426     -0.2864
    213  CB       -27.2930    4.4690   -2.4430 C.3   426  CYS426      0.0983
    214  SG       -27.3330    3.7160   -0.7910 S.3   426  CYS426     -0.0798
@<TRIPOS>BOND
     1   148   149    1
     2   149   150    1
     3   149   152    1
     4   150   151    2
     5   152   153    1
     6   166   164    1
     7   153   154    1
     8   153   155    1
     9   162   161    1
    10   162   163    1
    11   164   163    2
    12   164   165    1
    13   161   160    1
    14   156   157    1
    15   208   207    1
    16   160   157    1
    17   190   189    2
    18   207   204    1
    19   157   158    1
    20   187   188    1
    21   181   182    2
    22   181   180    1
    23   189   192   am
    24   189   188    1
    25   203   204    1
    26   203   194   am
    27   159   158    2
    28   197   196    1
    29   197   198    1
    30   193   192    1
    31   193   196    1
    32   193   194    1
    33   158   167   am
    34   204   205    1
    35   188   191    1
    36   185   184   ar
    37   194   195    2
    38   206   205    2
    39   199   198    1
    40   199   200    2
    41    28    27    1
    42   205   209   am
    43    29    27    1
    44   180   179    1
    45   180   183    1
    46   211   212    2
    47   211   210    1
    48   167   168    1
    49   179   169   am
    50    27    26    2
    51   209   210    1
    52   201   200    1
    53   184   183    1
    54   184   186   ar
    55   170   169    2
    56   200   202    1
    57   169   168    1
    58     8     6    1
    59   210   213    1
    60   168   171    1
    61    26    25    1
    62   213   214    1
    63    25    24    1
    64     6     5    1
    65   171   172    1
    66    98    96   ar
    67    97    96   ar
    68     5     7    1
    69     5     2    1
    70    96    95    1
    71   111   110    2
    72   172   174   ar
    73   172   173   ar
    74   214    35    1
    75     4     3    2
    76     1     2    1
    77    24    23    1
    78   174   176   ar
    79     2     3    1
    80    23    20    1
    81   173   175   ar
    82    85    83   ar
    83   110   112   am
    84   110   109    1
    85    95    94    1
    86    35    34    1
    87    84    83   ar
    88    83    82    1
    89   176   177   ar
    90    19    20    1
    91   136   135    1
    92    22    21    2
    93   175   177   ar
    94    20    21    1
    95    94    91    1
    96   109   108    1
    97    34    31    1
    98    82    79    1
    99   177   178    1
   100    21    30   am
   101   147   145    1
   102   135   134   ar
   103   135   133   ar
   104    46    45    2
   105    30    31    1
   106   144   145    2
   107   144   143    1
   108   134   132   ar
   109   145   146    1
   110   124   123    1
   111   108   105    1
   112    31    32    1
   113    33    32    2
   114    78    79    1
   115    91    90    1
   116    91    92    1
   117    79    80    1
   118   122   123   ar
   119   122   120   ar
   120   143   142    1
   121   123   121   ar
   122    60    59    1
   123    81    80    2
   124   104   105    1
   125    50    48    1
   126    80    86   am
   127   133   131   ar
   128   142   141    1
   129    59    56    1
   130   120   118   ar
   131    45    44    1
   132    45    51   am
   133    92    93    2
   134    92    99   am
   135   105   106    1
   136   103   100    1
   137   132   130   ar
   138    42    40    1
   139    55    56    1
   140    55    53   am
   141    56    57    1
   142    47    44    1
   143    47    48    1
   144    53    52    1
   145    53    54    2
   146    18    16   ar
   147    18    17   ar
   148    52    51    1
   149    99   100    1
   150    86    87    1
   151    44    43    1
   152   121   119   ar
   153    41    40    1
   154    48    49    1
   155    16    14   ar
   156    87    88    1
   157   141   138    1
   158   118   119   ar
   159   118   117    1
   160     9    10    1
   161   100   101    1
   162   131   130   ar
   163    40    37    1
   164   130   129    1
   165    17    15   ar
   166    69    68    1
   167   106   107    2
   168    61    57   am
   169    61    62    1
   170    57    58    2
   171   117   114    1
   172    89    88    2
   173    68    67    1
   174    14    15   ar
   175    14    13    1
   176    77    75   am
   177    74    75    1
   178    74    71    1
   179   138   137    1
   180   138   139    1
   181   101   102    2
   182   137   127   am
   183    37    36    1
   184    37    38    1
   185    10    13    1
   186    10    11    1
   187   129   126    1
   188    70    71    1
   189    62    65    1
   190    62    63    1
   191    65    66    1
   192    75    76    2
   193   125   126    1
   194   125   115   am
   195    63    64    2
   196   139   140    2
   197   114   115    1
   198   114   113    1
   199    73    72    2
   200    67    66    1
   201    11    12    2
   202    71    72    1
   203   127   126    1
   204   127   128    2
   205    38    39    2
   206   115   116    2
