@<TRIPOS>MOLECULE
tmp/5zsfB00.pdb
 95 92 0 0 0
SMALL
GASTEIGER

@<TRIPOS>ATOM
      1  N        -21.9060  -24.8910   -2.1800 N.3   238  TYR238     -0.1227
      2  CA       -20.5780  -25.1790   -2.7070 C.3   238  TYR238      0.1736
      3  C        -20.0420  -23.9860   -3.4890 C.2   238  TYR238      0.2595
      4  O        -20.7150  -23.4660   -4.3830 O.2   238  TYR238     -0.2718
      5  CB       -20.6200  -26.4170   -3.6020 C.3   238  TYR238      0.0548
      6  CG       -19.2550  -26.8050   -4.1440 C.ar  238  TYR238     -0.0200
      7  CD1      -18.2450  -27.2620   -3.2940 C.ar  238  TYR238     -0.0009
      8  CD2      -18.9750  -26.7090   -5.5070 C.ar  238  TYR238     -0.0009
      9  CE1      -16.9830  -27.6130   -3.7920 C.ar  238  TYR238      0.0417
     10  CE2      -17.7210  -27.0650   -6.0170 C.ar  238  TYR238      0.0417
     11  CZ       -16.7320  -27.5160   -5.1520 C.ar  238  TYR238      0.1957
     12  OH       -15.4920  -27.8650   -5.6560 O.3   238  TYR238     -0.2866
     13  N        -18.8270  -23.5440   -3.1430 N.am  239  ASN239     -0.1974
     14  CA       -18.2000  -22.3890   -3.7950 C.3   239  ASN239      0.1688
     15  C        -19.0330  -21.1090   -3.6750 C.2   239  ASN239      0.2292
     16  O        -18.9400  -20.2330   -4.5300 O.2   239  ASN239     -0.2864
     17  CB       -17.9090  -22.6640   -5.2770 C.3   239  ASN239      0.1181
     18  CG       -16.5880  -23.3710   -5.4910 C.2   239  ASN239      0.2629
     19  OD1      -15.6990  -23.3110   -4.6360 O.2   239  ASN239     -0.2716
     20  ND2      -16.4410  -24.0300   -6.6360 N.am  239  ASN239     -0.0877
     21  N        -24.7000  -29.7590  -11.3050 N.3   325  PHE325     -0.1241
     22  CA       -23.8040  -30.9020  -11.3750 C.3   325  PHE325      0.1605
     23  C        -23.5540  -31.5130   -9.9980 C.2   325  PHE325      0.2264
     24  O        -23.6230  -30.8450   -8.9620 O.2   325  PHE325     -0.2867
     25  CB       -22.4830  -30.5010  -12.0410 C.3   325  PHE325      0.0534
     26  CG       -21.6060  -29.6150  -11.2010 C.ar  325  PHE325     -0.0203
     27  CD1      -21.7800  -28.2340  -11.1980 C.ar  325  PHE325     -0.0042
     28  CD2      -20.5630  -30.1530  -10.4590 C.ar  325  PHE325     -0.0042
     29  CE1      -20.9660  -27.4130  -10.4410 C.ar  325  PHE325     -0.0003
     30  CE2      -19.7270  -29.3250   -9.6980 C.ar  325  PHE325     -0.0003
     31  CZ       -19.9390  -27.9600   -9.6820 C.ar  325  PHE325     -0.0000
     32  N        -17.7440  -33.1340   -7.6600 N.3   328  GLN328     -0.1231
     33  CA       -16.6360  -34.0320   -7.9720 C.3   328  GLN328      0.1698
     34  C        -16.9620  -35.0520   -9.0590 C.2   328  GLN328      0.2592
     35  O        -16.2810  -36.0740   -9.1670 O.2   328  GLN328     -0.2718
     36  CB       -16.1420  -34.7790   -6.7190 C.3   328  GLN328      0.0381
     37  CG       -15.8750  -33.9250   -5.4770 C.3   328  GLN328      0.0905
     38  CD       -14.7770  -32.8920   -5.6900 C.2   328  GLN328      0.2608
     39  OE1      -14.0280  -32.9540   -6.6700 O.2   328  GLN328     -0.2717
     40  NE2      -14.6580  -31.9510   -4.7540 N.am  328  GLN328     -0.0878
     41  N        -17.9770  -34.8170   -9.8830 N.am  329  VAL329     -0.1966
     42  CA       -18.3110  -35.7230  -10.9750 C.3   329  VAL329      0.1727
     43  C        -18.0940  -34.9950  -12.2900 C.2   329  VAL329      0.2616
     44  O        -18.6850  -33.9330  -12.5220 O.2   329  VAL329     -0.2715
     45  CB       -19.7550  -36.2470  -10.8830 C.3   329  VAL329      0.0290
     46  CG1      -20.0680  -37.0980  -12.1130 C.3   329  VAL329      0.0023
     47  CG2      -19.9420  -37.0680   -9.6190 C.3   329  VAL329      0.0023
     48  N        -17.2880  -35.5940  -13.1640 N.am  330  TYR330     -0.1974
     49  CA       -17.0320  -35.0840  -14.5100 C.3   330  TYR330      0.1639
     50  C        -17.6580  -36.0650  -15.5130 C.2   330  TYR330      0.2290
     51  O        -16.9980  -36.9800  -15.9920 O.2   330  TYR330     -0.2864
     52  CB       -15.5300  -34.9330  -14.7150 C.3   330  TYR330      0.0560
     53  CG       -15.0930  -34.1120  -15.9120 C.ar  330  TYR330     -0.0198
     54  CD1      -15.9930  -33.3440  -16.6480 C.ar  330  TYR330     -0.0009
     55  CD2      -13.7640  -34.1310  -16.3160 C.ar  330  TYR330     -0.0009
     56  CE1      -15.5600  -32.6070  -17.7370 C.ar  330  TYR330      0.0417
     57  CE2      -13.3270  -33.4000  -17.3970 C.ar  330  TYR330      0.0417
     58  CZ       -14.2200  -32.6410  -18.1010 C.ar  330  TYR330      0.1957
     59  OH       -13.7490  -31.9320  -19.1800 O.3   330  TYR330     -0.2866
     60  N        -21.3240  -29.8230  -16.5300 N.3   355  VAL355     -0.1245
     61  CA       -19.9790  -30.3710  -16.3380 C.3   355  VAL355      0.1561
     62  C        -19.8570  -31.7440  -16.9840 C.2   355  VAL355      0.2260
     63  O        -20.1580  -32.7670  -16.3560 O.2   355  VAL355     -0.2867
     64  CB       -19.5920  -30.4290  -14.8440 C.3   355  VAL355      0.0252
     65  CG1      -18.1460  -30.8640  -14.6880 C.3   355  VAL355      0.0019
     66  CG2      -19.7890  -29.0680  -14.2010 C.3   355  VAL355      0.0019
     67  N        -16.8670  -27.1570  -18.9180 N.3   382  PHE382     -0.1241
     68  CA       -15.5830  -27.8470  -19.0930 C.3   382  PHE382      0.1605
     69  C        -15.6490  -28.8800  -20.2310 C.2   382  PHE382      0.2264
     70  O        -15.0790  -29.9740  -20.1550 O.2   382  PHE382     -0.2867
     71  CB       -15.1190  -28.4870  -17.7810 C.3   382  PHE382      0.0534
     72  CG       -15.1270  -27.5400  -16.6240 C.ar  382  PHE382     -0.0203
     73  CD1      -14.0950  -26.6270  -16.4580 C.ar  382  PHE382     -0.0042
     74  CD2      -16.1710  -27.5470  -15.7160 C.ar  382  PHE382     -0.0042
     75  CE1      -14.1050  -25.7360  -15.4170 C.ar  382  PHE382     -0.0003
     76  CE2      -16.1870  -26.6580  -14.6580 C.ar  382  PHE382     -0.0003
     77  CZ       -15.1490  -25.7450  -14.5090 C.ar  382  PHE382     -0.0000
     78  N        -14.5420  -30.6020  -23.3760 N.3   384  LYS384     -0.1245
     79  CA       -13.2870  -30.7260  -24.1160 C.3   384  LYS384      0.1561
     80  C        -13.4980  -30.9500  -25.6130 C.2   384  LYS384      0.2260
     81  O        -12.6620  -30.5300  -26.4180 O.2   384  LYS384     -0.2867
     82  CB       -12.4320  -31.8610  -23.5410 C.3   384  LYS384      0.0271
     83  CG       -11.9930  -31.6040  -22.1010 C.3   384  LYS384      0.0035
     84  CD       -10.8870  -32.5380  -21.6120 C.3   384  LYS384      0.0206
     85  CE       -10.1410  -31.9280  -20.4090 C.3   384  LYS384      0.1093
     86  NZ        -9.5290  -32.9490  -19.4830 N.3   384  LYS384     -0.1314
     87  N        -13.5700  -25.9370  -22.4730 N.3   406  LYS406     -0.1245
     88  CA       -12.2120  -26.3910  -22.7370 C.3   406  LYS406      0.1561
     89  C        -12.0990  -26.9670  -24.1430 C.2   406  LYS406      0.2260
     90  O        -11.3820  -27.9390  -24.3860 O.2   406  LYS406     -0.2867
     91  CB       -11.7690  -27.4110  -21.6890 C.3   406  LYS406      0.0271
     92  CG       -11.3300  -26.7800  -20.3630 C.3   406  LYS406      0.0035
     93  CD       -10.9220  -27.8260  -19.3390 C.3   406  LYS406      0.0206
     94  CE        -9.4550  -28.2220  -19.4850 C.3   406  LYS406      0.1093
     95  NZ        -8.9740  -29.1350  -18.3930 N.3   406  LYS406     -0.1314
@<TRIPOS>BOND
     1    81    80    2
     2    80    79    1
     3    90    89    2
     4    89    88    1
     5    79    82    1
     6    79    78    1
     7    82    83    1
     8    88    87    1
     9    88    91    1
    10    83    84    1
    11    91    92    1
    12    84    85    1
    13    85    86    1
    14    92    93    1
    15    69    70    2
    16    69    68    1
    17    94    93    1
    18    94    95    1
    19    59    58    1
    20    68    67    1
    21    68    71    1
    22    58    56   ar
    23    58    57   ar
    24    71    72    1
    25    56    54   ar
    26    57    55   ar
    27    62    63    2
    28    62    61    1
    29    54    53   ar
    30    72    73   ar
    31    72    74   ar
    32    60    61    1
    33    73    75   ar
    34    61    64    1
    35    55    53   ar
    36    51    50    2
    37    53    52    1
    38    74    76   ar
    39    50    49    1
    40    75    77   ar
    41    64    65    1
    42    64    66    1
    43    52    49    1
    44    76    77   ar
    45    49    48    1
    46    48    43   am
    47    44    43    2
    48    43    42    1
    49    46    45    1
    50    25    22    1
    51    25    26    1
    52    22    21    1
    53    22    23    1
    54    26    27   ar
    55    26    28   ar
    56    27    29   ar
    57    42    45    1
    58    42    41    1
    59    45    47    1
    60    28    30   ar
    61    29    31   ar
    62    23    24    2
    63    41    34   am
    64    30    31   ar
    65    35    34    2
    66    34    33    1
    67    33    32    1
    68    33    36    1
    69    36    37    1
    70    39    38    2
    71    20    18   am
    72    10     8   ar
    73    10    11   ar
    74    38    37    1
    75    38    40   am
    76    12    11    1
    77     8     6   ar
    78    18    17    1
    79    18    19    2
    80    17    14    1
    81    11     9   ar
    82    16    15    2
    83     4     3    2
    84     6     5    1
    85     6     7   ar
    86    14    15    1
    87    14    13    1
    88     9     7   ar
    89     5     2    1
    90     3    13   am
    91     3     2    1
    92     2     1    1
