@<TRIPOS>MOLECULE
tmp/5zsgA00.pdb
 128 123 0 0 0
SMALL
GASTEIGER

@<TRIPOS>ATOM
      1  N         16.1480   -5.3690  -43.8250 N.3   238  TYR238     -0.1227
      2  CA        14.8320   -5.9790  -43.6530 C.3   238  TYR238      0.1736
      3  C         14.3110   -5.7440  -42.2320 C.2   238  TYR238      0.2595
      4  O         15.0150   -5.9860  -41.2490 O.2   238  TYR238     -0.2718
      5  CB        14.8860   -7.4780  -43.9750 C.3   238  TYR238      0.0548
      6  CG        13.5230   -8.1650  -44.0620 C.ar  238  TYR238     -0.0200
      7  CD1       12.5880   -7.7910  -45.0270 C.ar  238  TYR238     -0.0009
      8  CD2       13.1820   -9.1940  -43.1910 C.ar  238  TYR238     -0.0009
      9  CE1       11.3390   -8.4330  -45.1160 C.ar  238  TYR238      0.0417
     10  CE2       11.9520   -9.8350  -43.2650 C.ar  238  TYR238      0.0417
     11  CZ        11.0380   -9.4630  -44.2230 C.ar  238  TYR238      0.1957
     12  OH         9.8200  -10.1220  -44.2640 O.3   238  TYR238     -0.2866
     13  N         13.0640   -5.2640  -42.1360 N.am  239  ASN239     -0.1974
     14  CA        12.4010   -4.9530  -40.8580 C.3   239  ASN239      0.1688
     15  C         13.2280   -4.0020  -39.9850 C.2   239  ASN239      0.2292
     16  O         13.1250   -4.0100  -38.7560 O.2   239  ASN239     -0.2864
     17  CB        12.0720   -6.2340  -40.0780 C.3   239  ASN239      0.1181
     18  CG        10.8030   -6.9090  -40.5580 C.2   239  ASN239      0.2629
     19  OD1        9.8510   -6.2450  -40.9750 O.2   239  ASN239     -0.2716
     20  ND2       10.7840   -8.2430  -40.5130 N.am  239  ASN239     -0.0877
     21  N         20.1150  -13.7380  -37.0610 N.3   323  PHE323     -0.1241
     22  CA        19.4250  -13.0390  -38.1460 C.3   323  PHE323      0.1605
     23  C         20.2750  -13.0250  -39.4200 C.2   323  PHE323      0.2264
     24  O         20.6140  -11.9800  -39.9850 O.2   323  PHE323     -0.2867
     25  CB        19.0030  -11.6360  -37.6960 C.3   323  PHE323      0.0534
     26  CG        18.0220  -11.6850  -36.5670 C.ar  323  PHE323     -0.0203
     27  CD1       16.6950  -12.0040  -36.8100 C.ar  323  PHE323     -0.0042
     28  CD2       18.4380  -11.5240  -35.2620 C.ar  323  PHE323     -0.0042
     29  CE1       15.7900  -12.1160  -35.7670 C.ar  323  PHE323     -0.0003
     30  CE2       17.5420  -11.6340  -34.2100 C.ar  323  PHE323     -0.0003
     31  CZ        16.2160  -11.9290  -34.4610 C.ar  323  PHE323     -0.0000
     32  N         19.0470  -15.3320  -41.8630 N.3   325  PHE325     -0.1241
     33  CA        18.1960  -16.1650  -42.6970 C.3   325  PHE325      0.1605
     34  C         17.9200  -15.5090  -44.0470 C.2   325  PHE325      0.2264
     35  O         17.9300  -14.2840  -44.1900 O.2   325  PHE325     -0.2867
     36  CB        16.8840  -16.4820  -41.9840 C.3   325  PHE325      0.0534
     37  CG        15.9200  -15.3330  -41.9540 C.ar  325  PHE325     -0.0203
     38  CD1       16.0830  -14.3030  -41.0580 C.ar  325  PHE325     -0.0042
     39  CD2       14.8460  -15.2940  -42.8240 C.ar  325  PHE325     -0.0042
     40  CE1       15.2030  -13.2460  -41.0310 C.ar  325  PHE325     -0.0003
     41  CE2       13.9580  -14.2390  -42.8050 C.ar  325  PHE325     -0.0003
     42  CZ        14.1320  -13.2090  -41.9070 C.ar  325  PHE325     -0.0000
     43  N         12.0290  -14.8290  -46.9470 N.3   328  GLN328     -0.1231
     44  CA        10.9370  -15.6680  -47.4390 C.3   328  GLN328      0.1698
     45  C         11.2830  -17.1480  -47.4280 C.2   328  GLN328      0.2592
     46  O         10.5990  -17.9450  -48.0660 O.2   328  GLN328     -0.2718
     47  CB        10.4770  -15.2570  -48.8440 C.3   328  GLN328      0.0381
     48  CG        10.5140  -13.7580  -49.1260 C.3   328  GLN328      0.0905
     49  CD         9.7320  -12.9490  -48.0920 C.2   328  GLN328      0.2608
     50  OE1        8.7170  -13.4110  -47.5480 O.2   328  GLN328     -0.2717
     51  NE2       10.2050  -11.7310  -47.8180 N.am  328  GLN328     -0.0878
     52  N         12.3230  -17.5570  -46.7090 N.am  329  VAL329     -0.1966
     53  CA        12.7040  -18.9590  -46.6260 C.3   329  VAL329      0.1727
     54  C         12.4940  -19.4410  -45.1970 C.2   329  VAL329      0.2616
     55  O         13.0510  -18.8780  -44.2450 O.2   329  VAL329     -0.2715
     56  CB        14.1540  -19.1790  -47.0670 C.3   329  VAL329      0.0290
     57  CG1       14.5300  -20.6590  -46.9210 C.3   329  VAL329      0.0023
     58  CG2       14.3380  -18.7120  -48.4990 C.3   329  VAL329      0.0023
     59  N         11.7150  -20.5030  -45.0610 N.am  330  TYR330     -0.1974
     60  CA        11.4510  -21.1920  -43.8060 C.3   330  TYR330      0.1639
     61  C         12.0610  -22.5930  -43.9210 C.2   330  TYR330      0.2290
     62  O         11.3970  -23.5360  -44.3530 O.2   330  TYR330     -0.2864
     63  CB         9.9400  -21.2290  -43.5440 C.3   330  TYR330      0.0560
     64  CG         9.5030  -21.6950  -42.1680 C.ar  330  TYR330     -0.0198
     65  CD1       10.4170  -21.8440  -41.1250 C.ar  330  TYR330     -0.0009
     66  CD2        8.1610  -21.9590  -41.9100 C.ar  330  TYR330     -0.0009
     67  CE1       10.0010  -22.2500  -39.8670 C.ar  330  TYR330      0.0417
     68  CE2        7.7330  -22.3670  -40.6600 C.ar  330  TYR330      0.0417
     69  CZ         8.6530  -22.5050  -39.6360 C.ar  330  TYR330      0.1957
     70  OH         8.2180  -22.9240  -38.3890 O.3   330  TYR330     -0.2866
     71  N         17.0900  -16.1580  -35.2790 N.3   353  GLY353     -0.1225
     72  CA        16.7060  -15.7240  -36.6140 C.3   353  GLY353      0.1811
     73  C         17.3810  -16.4780  -37.7430 C.2   353  GLY353      0.2280
     74  O         17.7140  -15.8800  -38.7800 O.2   353  GLY353     -0.2866
     75  N         15.6920  -19.3840  -38.5920 N.3   355  VAL355     -0.1245
     76  CA        14.3330  -19.5930  -39.0910 C.3   355  VAL355      0.1561
     77  C         14.2140  -20.9770  -39.7200 C.2   355  VAL355      0.2260
     78  O         14.4600  -21.1530  -40.9180 O.2   355  VAL355     -0.2867
     79  CB        13.9060  -18.4790  -40.0730 C.3   355  VAL355      0.0252
     80  CG1       12.4260  -18.6260  -40.4390 C.3   355  VAL355      0.0019
     81  CG2       14.1670  -17.0870  -39.4750 C.3   355  VAL355      0.0019
     82  N         13.9550  -17.0110  -31.2340 N.3   380  THR380     -0.1218
     83  CA        13.4190  -16.3110  -32.4170 C.3   380  THR380      0.1862
     84  C         13.7820  -17.0370  -33.7200 C.2   380  THR380      0.2287
     85  O         14.3570  -16.4720  -34.6510 O.2   380  THR380     -0.2866
     86  CB        13.8670  -14.8380  -32.4700 C.3   380  THR380      0.1770
     87  OG1       13.7370  -14.2370  -31.1750 O.3   380  THR380     -0.2211
     88  CG2       12.9690  -14.0430  -33.4470 C.3   380  THR380      0.0375
     89  N         11.2500  -19.5560  -34.9180 N.3   382  PHE382     -0.1241
     90  CA         9.9910  -20.1900  -35.3160 C.3   382  PHE382      0.1605
     91  C         10.0930  -21.7180  -35.3400 C.2   382  PHE382      0.2264
     92  O          9.4270  -22.3850  -36.1320 O.2   382  PHE382     -0.2867
     93  CB         9.5000  -19.6200  -36.6500 C.3   382  PHE382      0.0534
     94  CG         9.2540  -18.1380  -36.5850 C.ar  382  PHE382     -0.0203
     95  CD1        8.0260  -17.6470  -36.1880 C.ar  382  PHE382     -0.0042
     96  CD2       10.2800  -17.2360  -36.8400 C.ar  382  PHE382     -0.0042
     97  CE1        7.8140  -16.2830  -36.0810 C.ar  382  PHE382     -0.0003
     98  CE2       10.0730  -15.8720  -36.7380 C.ar  382  PHE382     -0.0003
     99  CZ         8.8400  -15.3990  -36.3550 C.ar  382  PHE382     -0.0000
    100  N          9.0670  -25.2430  -34.6160 N.3   384  LYS384     -0.1245
    101  CA         7.7920  -25.8740  -34.2610 C.3   384  LYS384      0.1561
    102  C          7.9440  -27.1780  -33.4950 C.2   384  LYS384      0.2260
    103  O          7.0660  -27.5120  -32.6970 O.2   384  LYS384     -0.2867
    104  CB         6.9470  -26.1510  -35.5140 C.3   384  LYS384      0.0271
    105  CG         6.4640  -24.9010  -36.2380 C.3   384  LYS384      0.0035
    106  CD         5.4320  -25.2340  -37.3240 C.3   384  LYS384      0.0206
    107  CE         4.5880  -23.9990  -37.6880 C.3   384  LYS384      0.1093
    108  NZ         4.1120  -24.0340  -39.1080 N.3   384  LYS384     -0.1314
    109  N          7.8960  -21.4750  -31.8000 N.3   406  LYS406     -0.1245
    110  CA         6.5370  -21.9930  -31.8850 C.3   406  LYS406      0.1561
    111  C          6.4550  -23.4370  -31.4110 C.2   406  LYS406      0.2260
    112  O          5.6540  -24.2210  -31.9290 O.2   406  LYS406     -0.2867
    113  CB         5.9870  -21.8470  -33.3030 C.3   406  LYS406      0.0271
    114  CG         5.4930  -20.4440  -33.6010 C.3   406  LYS406      0.0035
    115  CD         4.9540  -20.3020  -35.0240 C.3   406  LYS406      0.0206
    116  CE         3.4940  -20.7510  -35.1290 C.3   406  LYS406      0.1093
    117  NZ         2.8890  -20.5040  -36.4890 N.3   406  LYS406     -0.1314
    118  N         17.8810   -5.4590  -33.6010 N.3   417  PHE417     -0.1241
    119  CA        17.3250   -4.6030  -34.6300 C.3   417  PHE417      0.1605
    120  C         17.5420   -3.1160  -34.3880 C.2   417  PHE417      0.2264
    121  O         17.4490   -2.3430  -35.3460 O.2   417  PHE417     -0.2867
    122  CB        15.8360   -4.9250  -34.8520 C.3   417  PHE417      0.0534
    123  CG        15.6440   -6.1470  -35.6960 C.ar  417  PHE417     -0.0203
    124  CD1       15.4420   -6.0330  -37.0720 C.ar  417  PHE417     -0.0042
    125  CD2       15.7970   -7.4130  -35.1460 C.ar  417  PHE417     -0.0042
    126  CE1       15.3300   -7.1730  -37.8780 C.ar  417  PHE417     -0.0003
    127  CE2       15.6840   -8.5430  -35.9340 C.ar  417  PHE417     -0.0003
    128  CZ        15.4490   -8.4260  -37.3090 C.ar  417  PHE417     -0.0000
@<TRIPOS>BOND
     1    48    47    1
     2    48    49    1
     3    47    44    1
     4    58    56    1
     5    49    51   am
     6    49    50    2
     7    46    45    2
     8    44    45    1
     9    44    43    1
    10    45    52   am
    11    56    57    1
    12    56    53    1
    13    52    53    1
    14    53    54    1
    15    54    59   am
    16    54    55    2
    17     9     7   ar
    18     9    11   ar
    19    59    60    1
    20     7     6   ar
    21    62    61    2
    22    12    11    1
    23    11    10   ar
    24    35    34    2
    25     6     5    1
    26     6     8   ar
    27    34    33    1
    28     5     2    1
    29    61    60    1
    30     1     2    1
    31    60    63    1
    32     2     3    1
    33    63    64    1
    34    10     8   ar
    35    39    41   ar
    36    39    37   ar
    37    41    42   ar
    38    33    36    1
    39    33    32    1
    40     3    13   am
    41     3     4    2
    42    64    66   ar
    43    64    65   ar
    44    13    14    1
    45    36    37    1
    46    37    38   ar
    47    66    68   ar
    48    42    40   ar
    49    65    67   ar
    50    38    40   ar
    51    19    18    2
    52    78    77    2
    53    14    17    1
    54    14    15    1
    55    68    69   ar
    56    18    20   am
    57    18    17    1
    58    80    79    1
    59    79    81    1
    60    79    76    1
    61    24    23    2
    62    15    16    2
    63    67    69   ar
    64    77    76    1
    65    69    70    1
    66    23    22    1
    67   108   107    1
    68    76    75    1
    69    74    73    2
    70    22    25    1
    71    22    21    1
    72   126   128   ar
    73   126   124   ar
    74    73    72    1
    75    25    26    1
    76   107   106    1
    77   106   105    1
    78   128   127   ar
    79   124   123   ar
    80    96    98   ar
    81    96    94   ar
    82    27    26   ar
    83    27    29   ar
    84    98    99   ar
    85    93    94    1
    86    93    90    1
    87    72    71    1
    88    94    95   ar
    89    26    28   ar
    90   117   116    1
    91    99    97   ar
    92   105   104    1
    93    95    97   ar
    94    92    91    2
    95   127   125   ar
    96    29    31   ar
    97   123   125   ar
    98   123   122    1
    99   104   101    1
   100   121   120    2
   101    91    90    1
   102    90    89    1
   103    28    30   ar
   104   116   115    1
   105   115   114    1
   106   122   119    1
   107    85    84    2
   108   119   120    1
   109   119   118    1
   110   100   101    1
   111    31    30   ar
   112   101   102    1
   113    84    83    1
   114   114   113    1
   115   102   103    2
   116    88    86    1
   117   113   110    1
   118    86    83    1
   119    86    87    1
   120    83    82    1
   121   112   111    2
   122   110   109    1
   123   110   111    1
