@<TRIPOS>MOLECULE
tmp/5zshB05.pdb
 103 99 0 0 0
SMALL
GASTEIGER

@<TRIPOS>ATOM
      1  N        -21.6120  -24.5960   -2.5210 N.3   238  TYR238     -0.1227
      2  CA       -20.2910  -24.8750   -3.0710 C.3   238  TYR238      0.1736
      3  C        -19.7920  -23.6730   -3.8730 C.2   238  TYR238      0.2595
      4  O        -20.4820  -23.1930   -4.7790 O.2   238  TYR238     -0.2718
      5  CB       -20.3510  -26.1310   -3.9510 C.3   238  TYR238      0.0548
      6  CG       -18.9910  -26.6200   -4.3990 C.ar  238  TYR238     -0.0200
      7  CD1      -18.0550  -27.0310   -3.4620 C.ar  238  TYR238     -0.0009
      8  CD2      -18.6460  -26.6810   -5.7540 C.ar  238  TYR238     -0.0009
      9  CE1      -16.8070  -27.4760   -3.8420 C.ar  238  TYR238      0.0417
     10  CE2      -17.3950  -27.1360   -6.1430 C.ar  238  TYR238      0.0417
     11  CZ       -16.4820  -27.5340   -5.1730 C.ar  238  TYR238      0.1957
     12  OH       -15.2420  -28.0080   -5.5140 O.3   238  TYR238     -0.2866
     13  N        -18.6050  -23.1720   -3.5120 N.am  239  ASN239     -0.1974
     14  CA       -17.9930  -22.0000   -4.1540 C.3   239  ASN239      0.1688
     15  C        -18.8820  -20.7480   -4.0700 C.2   239  ASN239      0.2292
     16  O        -18.8790  -19.9030   -4.9720 O.2   239  ASN239     -0.2864
     17  CB       -17.6120  -22.3040   -5.6020 C.3   239  ASN239      0.1181
     18  CG       -16.3700  -23.1630   -5.6980 C.2   239  ASN239      0.2629
     19  OD1      -15.4990  -23.1150   -4.8130 O.2   239  ASN239     -0.2716
     20  ND2      -16.2860  -23.9810   -6.7520 N.am  239  ASN239     -0.0877
     21  N        -25.2760  -24.8380  -13.4990 N.3   323  PHE323     -0.1241
     22  CA       -24.6040  -25.2270  -12.2620 C.3   323  PHE323      0.1605
     23  C        -25.4720  -26.1920  -11.4610 C.2   323  PHE323      0.2264
     24  O        -25.9350  -25.8900  -10.3560 O.2   323  PHE323     -0.2867
     25  CB       -24.2110  -23.9970  -11.4330 C.3   323  PHE323      0.0534
     26  CG       -23.1950  -23.1270  -12.1120 C.ar  323  PHE323     -0.0203
     27  CD1      -21.8530  -23.4570  -12.0860 C.ar  323  PHE323     -0.0042
     28  CD2      -23.5920  -21.9950  -12.8100 C.ar  323  PHE323     -0.0042
     29  CE1      -20.9220  -22.6610  -12.7310 C.ar  323  PHE323     -0.0003
     30  CE2      -22.6680  -21.2140  -13.4710 C.ar  323  PHE323     -0.0003
     31  CZ       -21.3300  -21.5440  -13.4310 C.ar  323  PHE323     -0.0000
     32  N        -24.1530  -29.4830  -11.4800 N.3   325  PHE325     -0.1241
     33  CA       -23.2280  -30.6030  -11.5030 C.3   325  PHE325      0.1605
     34  C        -23.0600  -31.2500  -10.1320 C.2   325  PHE325      0.2264
     35  O        -23.1560  -30.6120   -9.0780 O.2   325  PHE325     -0.2867
     36  CB       -21.8690  -30.1530  -12.0390 C.3   325  PHE325      0.0534
     37  CG       -21.0990  -29.2400  -11.1020 C.ar  325  PHE325     -0.0203
     38  CD1      -21.3840  -27.8800  -11.0320 C.ar  325  PHE325     -0.0042
     39  CD2      -20.0640  -29.7370  -10.3280 C.ar  325  PHE325     -0.0042
     40  CE1      -20.6680  -27.0510  -10.1930 C.ar  325  PHE325     -0.0003
     41  CE2      -19.3490  -28.9090   -9.4800 C.ar  325  PHE325     -0.0003
     42  CZ       -19.6440  -27.5680   -9.4140 C.ar  325  PHE325     -0.0000
     43  N        -16.7280  -35.4170  -13.2500 N.3   330  TYR330     -0.1241
     44  CA       -16.4320  -34.8620  -14.5620 C.3   330  TYR330      0.1605
     45  C        -17.0890  -35.7930  -15.5840 C.2   330  TYR330      0.2264
     46  O        -16.4670  -36.7490  -16.0570 O.2   330  TYR330     -0.2867
     47  CB       -14.9150  -34.7420  -14.7610 C.3   330  TYR330      0.0534
     48  CG       -14.4680  -33.8950  -15.9510 C.ar  330  TYR330     -0.0201
     49  CD1      -15.3710  -33.1090  -16.6800 C.ar  330  TYR330     -0.0009
     50  CD2      -13.1390  -33.8940  -16.3450 C.ar  330  TYR330     -0.0009
     51  CE1      -14.9480  -32.3360  -17.7610 C.ar  330  TYR330      0.0417
     52  CE2      -12.7060  -33.1360  -17.4200 C.ar  330  TYR330      0.0417
     53  CZ       -13.6050  -32.3660  -18.1330 C.ar  330  TYR330      0.1957
     54  OH       -13.1180  -31.6360  -19.2090 O.3   330  TYR330     -0.2866
     55  N        -22.1270  -25.0150  -16.4000 N.3   353  GLY353     -0.1225
     56  CA       -21.7280  -25.7570  -15.2130 C.3   353  GLY353      0.1811
     57  C        -22.3990  -27.1030  -15.0630 C.2   353  GLY353      0.2280
     58  O        -22.7020  -27.5310  -13.9380 O.2   353  GLY353     -0.2866
     59  N        -20.6380  -29.5120  -16.6400 N.3   355  VAL355     -0.1245
     60  CA       -19.2710  -30.0110  -16.4510 C.3   355  VAL355      0.1561
     61  C        -19.0980  -31.3870  -17.0980 C.2   355  VAL355      0.2260
     62  O        -19.2930  -32.4270  -16.4520 O.2   355  VAL355     -0.2867
     63  CB       -18.8770  -30.0450  -14.9550 C.3   355  VAL355      0.0252
     64  CG1      -17.4050  -30.4390  -14.7780 C.3   355  VAL355      0.0019
     65  CG2      -19.1550  -28.7060  -14.2830 C.3   355  VAL355      0.0019
     66  N        -18.9540  -22.3540  -19.4490 N.3   380  THR380     -0.1218
     67  CA       -18.4070  -22.8380  -18.1800 C.3   380  THR380      0.1862
     68  C        -18.7960  -24.3030  -17.9640 C.2   380  THR380      0.2287
     69  O        -19.4360  -24.6750  -16.9820 O.2   380  THR380     -0.2866
     70  CB       -18.8640  -21.9560  -17.0100 C.3   380  THR380      0.1770
     71  OG1      -18.7150  -20.5770  -17.3710 O.3   380  THR380     -0.2211
     72  CG2      -18.0380  -22.2380  -15.7560 C.3   380  THR380      0.0375
     73  N        -16.2710  -26.8110  -19.1640 N.3   382  PHE382     -0.1241
     74  CA       -14.9970  -27.5190  -19.3220 C.3   382  PHE382      0.1605
     75  C        -15.0640  -28.5620  -20.4350 C.2   382  PHE382      0.2264
     76  O        -14.4300  -29.6200  -20.3630 O.2   382  PHE382     -0.2867
     77  CB       -14.5450  -28.1420  -18.0010 C.3   382  PHE382      0.0534
     78  CG       -14.1940  -27.1270  -16.9680 C.ar  382  PHE382     -0.0203
     79  CD1      -12.8990  -26.6300  -16.8750 C.ar  382  PHE382     -0.0042
     80  CD2      -15.1610  -26.6320  -16.1250 C.ar  382  PHE382     -0.0042
     81  CE1      -12.5700  -25.6730  -15.9280 C.ar  382  PHE382     -0.0003
     82  CE2      -14.8360  -25.6760  -15.1820 C.ar  382  PHE382     -0.0003
     83  CZ       -13.5320  -25.1950  -15.0910 C.ar  382  PHE382     -0.0000
     84  N        -12.8280  -25.6520  -22.6830 N.3   406  LYS406     -0.1245
     85  CA       -11.4720  -26.0620  -23.0410 C.3   406  LYS406      0.1561
     86  C        -11.4420  -26.6720  -24.4390 C.2   406  LYS406      0.2260
     87  O        -10.6240  -27.5530  -24.7240 O.2   406  LYS406     -0.2867
     88  CB       -10.8900  -27.0400  -22.0090 C.3   406  LYS406      0.0271
     89  CG       -10.8110  -26.4770  -20.5960 C.3   406  LYS406      0.0035
     90  CD       -10.2140  -27.4300  -19.5510 C.3   406  LYS406      0.0206
     91  CE        -8.7230  -27.6700  -19.6940 C.3   406  LYS406      0.1093
     92  NZ        -8.2720  -28.7120  -18.6950 N.3   406  LYS406     -0.1314
     93  N        -23.5330  -16.7580   -9.2960 N.3   417  PHE417     -0.1241
     94  CA       -22.9210  -16.9090   -7.9880 C.3   417  PHE417      0.1605
     95  C        -23.0280  -15.6710   -7.1140 C.2   417  PHE417      0.2264
     96  O        -22.6570  -15.7310   -5.9420 O.2   417  PHE417     -0.2867
     97  CB       -21.4620  -17.3230   -8.1360 C.3   417  PHE417      0.0534
     98  CG       -21.3000  -18.7710   -8.4360 C.ar  417  PHE417     -0.0203
     99  CD1      -21.0320  -19.6720   -7.4090 C.ar  417  PHE417     -0.0042
    100  CD2      -21.4760  -19.2490   -9.7380 C.ar  417  PHE417     -0.0042
    101  CE1      -20.8910  -21.0300   -7.6700 C.ar  417  PHE417     -0.0003
    102  CE2      -21.3590  -20.6100  -10.0250 C.ar  417  PHE417     -0.0003
    103  CZ       -21.0590  -21.5110   -8.9910 C.ar  417  PHE417     -0.0000
@<TRIPOS>BOND
     1    87    86    2
     2    86    85    1
     3    85    84    1
     4    85    88    1
     5    88    89    1
     6    89    90    1
     7    75    76    2
     8    75    74    1
     9    91    90    1
    10    91    92    1
    11    66    67    1
    12    74    73    1
    13    74    77    1
    14    54    53    1
    15    67    68    1
    16    67    70    1
    17    53    51   ar
    18    53    52   ar
    19    77    78    1
    20    68    69    2
    21    51    49   ar
    22    52    50   ar
    23    71    70    1
    24    61    62    2
    25    61    60    1
    26    70    72    1
    27    78    79   ar
    28    78    80   ar
    29    79    81   ar
    30    49    48   ar
    31    59    60    1
    32    60    63    1
    33    55    56    1
    34    50    48   ar
    35    80    82   ar
    36    46    45    2
    37    48    47    1
    38    81    83   ar
    39    45    44    1
    40    56    57    1
    41    82    83   ar
    42    57    58    2
    43    63    64    1
    44    63    65    1
    45    47    44    1
    46    44    43    1
    47    21    22    1
    48    30    31   ar
    49    30    28   ar
    50    31    29   ar
    51    28    26   ar
    52    29    27   ar
    53    22    23    1
    54    22    25    1
    55    26    27   ar
    56    26    25    1
    57    36    33    1
    58    36    37    1
    59    33    32    1
    60    33    34    1
    61    23    24    2
    62    37    38   ar
    63    37    39   ar
    64    38    40   ar
    65    39    41   ar
    66    40    42   ar
    67    34    35    2
    68   102   100   ar
    69   102   103   ar
    70   100    98   ar
    71    41    42   ar
    72    93    94    1
    73   103   101   ar
    74    98    97    1
    75    98    99   ar
    76    97    94    1
    77    94    95    1
    78   101    99   ar
    79    95    96    2
    80    20    18   am
    81    10     8   ar
    82    10    11   ar
    83     8     6   ar
    84    18    17    1
    85    18    19    2
    86    17    14    1
    87    12    11    1
    88    11     9   ar
    89    16    15    2
    90     4     3    2
    91     6     5    1
    92     6     7   ar
    93    14    15    1
    94    14    13    1
    95     5     2    1
    96     3    13   am
    97     3     2    1
    98     9     7   ar
    99     2     1    1
