@<TRIPOS>MOLECULE
tmp/5zsiB00.pdb
 110 106 0 0 0
SMALL
GASTEIGER

@<TRIPOS>ATOM
      1  N        -21.8890  -24.7370   -2.2010 N.3   238  TYR238     -0.1227
      2  CA       -20.5270  -25.0140   -2.6300 C.3   238  TYR238      0.1736
      3  C        -20.0260  -23.8520   -3.4750 C.2   238  TYR238      0.2595
      4  O        -20.6950  -23.4370   -4.4310 O.2   238  TYR238     -0.2718
      5  CB       -20.4700  -26.3140   -3.4260 C.3   238  TYR238      0.0548
      6  CG       -19.0540  -26.7800   -3.7470 C.ar  238  TYR238     -0.0200
      7  CD1      -18.1960  -27.1630   -2.7350 C.ar  238  TYR238     -0.0009
      8  CD2      -18.5790  -26.8350   -5.0670 C.ar  238  TYR238     -0.0009
      9  CE1      -16.9140  -27.5930   -3.0030 C.ar  238  TYR238      0.0417
     10  CE2      -17.2860  -27.2630   -5.3450 C.ar  238  TYR238      0.0417
     11  CZ       -16.4610  -27.6440   -4.2930 C.ar  238  TYR238      0.1957
     12  OH       -15.1730  -28.0920   -4.4990 O.3   238  TYR238     -0.2866
     13  N        -18.8600  -23.3070   -3.1000 N.am  239  ASN239     -0.1974
     14  CA       -18.2750  -22.1500   -3.7890 C.3   239  ASN239      0.1688
     15  C        -19.1990  -20.9340   -3.7850 C.2   239  ASN239      0.2292
     16  O        -19.2380  -20.1720   -4.7550 O.2   239  ASN239     -0.2864
     17  CB       -17.8660  -22.4860   -5.2290 C.3   239  ASN239      0.1181
     18  CG       -16.6210  -23.3320   -5.2920 C.2   239  ASN239      0.2629
     19  OD1      -15.8070  -23.3170   -4.3700 O.2   239  ASN239     -0.2716
     20  ND2      -16.4510  -24.0660   -6.3840 N.am  239  ASN239     -0.0877
     21  N        -25.5530  -24.8020  -13.4820 N.3   323  PHE323     -0.1241
     22  CA       -24.8880  -25.1130  -12.2290 C.3   323  PHE323      0.1605
     23  C        -25.7010  -26.0980  -11.3920 C.2   323  PHE323      0.2264
     24  O        -26.0360  -25.8440  -10.2410 O.2   323  PHE323     -0.2867
     25  CB       -24.5810  -23.8160  -11.4750 C.3   323  PHE323      0.0534
     26  CG       -23.5970  -22.9650  -12.1970 C.ar  323  PHE323     -0.0203
     27  CD1      -22.2590  -23.3110  -12.2150 C.ar  323  PHE323     -0.0042
     28  CD2      -24.0120  -21.8640  -12.9300 C.ar  323  PHE323     -0.0042
     29  CE1      -21.3570  -22.5520  -12.9140 C.ar  323  PHE323     -0.0003
     30  CE2      -23.1090  -21.1030  -13.6360 C.ar  323  PHE323     -0.0003
     31  CZ       -21.7890  -21.4510  -13.6370 C.ar  323  PHE323     -0.0000
     32  N        -24.3920  -29.3690  -11.5030 N.3   325  PHE325     -0.1241
     33  CA       -23.4240  -30.4490  -11.5470 C.3   325  PHE325      0.1605
     34  C        -23.3410  -31.2150  -10.2330 C.2   325  PHE325      0.2264
     35  O        -23.6210  -30.6890   -9.1520 O.2   325  PHE325     -0.2867
     36  CB       -22.0410  -29.8920  -11.8910 C.3   325  PHE325      0.0534
     37  CG       -21.4400  -29.0120  -10.8100 C.ar  325  PHE325     -0.0203
     38  CD1      -21.7740  -27.6620  -10.7160 C.ar  325  PHE325     -0.0042
     39  CD2      -20.5300  -29.5300   -9.9020 C.ar  325  PHE325     -0.0042
     40  CE1      -21.2090  -26.8530   -9.7300 C.ar  325  PHE325     -0.0003
     41  CE2      -19.9580  -28.7170   -8.8990 C.ar  325  PHE325     -0.0003
     42  CZ       -20.3020  -27.3860   -8.8140 C.ar  325  PHE325     -0.0000
     43  N        -17.5240  -34.8650   -9.9450 N.3   329  VAL329     -0.1231
     44  CA       -17.7580  -35.7120  -11.0990 C.3   329  VAL329      0.1692
     45  C        -17.4110  -34.9060  -12.3430 C.2   329  VAL329      0.2592
     46  O        -17.7780  -33.7300  -12.4610 O.2   329  VAL329     -0.2718
     47  CB       -19.2260  -36.1960  -11.1300 C.3   329  VAL329      0.0266
     48  CG1      -19.5150  -37.0370  -12.3680 C.3   329  VAL329      0.0020
     49  CG2      -19.5550  -36.9510   -9.8710 C.3   329  VAL329      0.0020
     50  N        -16.7410  -35.5430  -13.2860 N.am  330  TYR330     -0.1976
     51  CA       -16.4880  -34.9410  -14.5840 C.3   330  TYR330      0.1639
     52  C        -17.2100  -35.8330  -15.6040 C.2   330  TYR330      0.2290
     53  O        -16.5460  -36.6540  -16.2350 O.2   330  TYR330     -0.2864
     54  CB       -14.9750  -34.8920  -14.8080 C.3   330  TYR330      0.0560
     55  CG       -14.5350  -33.9570  -15.8910 C.ar  330  TYR330     -0.0198
     56  CD1      -15.4610  -33.2200  -16.6280 C.ar  330  TYR330     -0.0009
     57  CD2      -13.1810  -33.7690  -16.1450 C.ar  330  TYR330     -0.0009
     58  CE1      -15.0420  -32.3430  -17.6320 C.ar  330  TYR330      0.0417
     59  CE2      -12.7480  -32.8930  -17.1250 C.ar  330  TYR330      0.0417
     60  CZ       -13.6710  -32.1880  -17.8700 C.ar  330  TYR330      0.1957
     61  OH       -13.1970  -31.3410  -18.8450 O.3   330  TYR330     -0.2866
     62  N        -22.3990  -24.8850  -16.3810 N.3   353  GLY353     -0.1225
     63  CA       -22.0320  -25.6120  -15.1770 C.3   353  GLY353      0.1811
     64  C        -22.7180  -26.9460  -15.0020 C.2   353  GLY353      0.2280
     65  O        -23.0100  -27.3460  -13.8690 O.2   353  GLY353     -0.2866
     66  N        -20.9640  -29.4480  -16.5690 N.3   355  VAL355     -0.1245
     67  CA       -19.6070  -29.9920  -16.4470 C.3   355  VAL355      0.1561
     68  C        -19.4700  -31.3540  -17.1210 C.2   355  VAL355      0.2260
     69  O        -19.8080  -32.3870  -16.5280 O.2   355  VAL355     -0.2867
     70  CB       -19.1740  -30.0760  -14.9740 C.3   355  VAL355      0.0252
     71  CG1      -17.7320  -30.5440  -14.8640 C.3   355  VAL355      0.0019
     72  CG2      -19.3810  -28.7350  -14.2880 C.3   355  VAL355      0.0019
     73  N        -19.1400  -22.3970  -19.3690 N.3   380  THR380     -0.1218
     74  CA       -18.5890  -22.8600  -18.0900 C.3   380  THR380      0.1862
     75  C        -18.9390  -24.3310  -17.8740 C.2   380  THR380      0.2287
     76  O        -19.6320  -24.7130  -16.9310 O.2   380  THR380     -0.2866
     77  CB       -19.0650  -22.0030  -16.9070 C.3   380  THR380      0.1770
     78  OG1      -18.9610  -20.6180  -17.2290 O.3   380  THR380     -0.2211
     79  CG2      -18.2000  -22.2430  -15.7050 C.3   380  THR380      0.0375
     80  N        -16.3270  -26.8370  -18.9760 N.3   382  PHE382     -0.1241
     81  CA       -15.0680  -27.5680  -19.0970 C.3   382  PHE382      0.1605
     82  C        -15.1280  -28.5820  -20.2330 C.2   382  PHE382      0.2264
     83  O        -14.5580  -29.6750  -20.1450 O.2   382  PHE382     -0.2867
     84  CB       -14.6980  -28.2340  -17.7780 C.3   382  PHE382      0.0534
     85  CG       -14.5940  -27.2660  -16.6510 C.ar  382  PHE382     -0.0203
     86  CD1      -13.4030  -26.6270  -16.3780 C.ar  382  PHE382     -0.0042
     87  CD2      -15.7040  -26.9580  -15.8900 C.ar  382  PHE382     -0.0042
     88  CE1      -13.3190  -25.7100  -15.3550 C.ar  382  PHE382     -0.0003
     89  CE2      -15.6180  -26.0490  -14.8540 C.ar  382  PHE382     -0.0003
     90  CZ       -14.4190  -25.4290  -14.5890 C.ar  382  PHE382     -0.0000
     91  N        -12.9950  -25.5900  -22.4030 N.3   406  LYS406     -0.1245
     92  CA       -11.6270  -26.0270  -22.6520 C.3   406  LYS406      0.1561
     93  C        -11.4550  -26.5660  -24.0760 C.2   406  LYS406      0.2260
     94  O        -10.5810  -27.4130  -24.3270 O.2   406  LYS406     -0.2867
     95  CB       -11.2420  -27.0900  -21.6250 C.3   406  LYS406      0.0271
     96  CG       -10.7930  -26.5750  -20.2820 C.3   406  LYS406      0.0035
     97  CD       -10.2730  -27.7250  -19.3950 C.3   406  LYS406      0.0206
     98  CE        -8.7550  -27.7710  -19.2810 C.3   406  LYS406      0.1093
     99  NZ        -8.2790  -29.0010  -18.5380 N.3   406  LYS406     -0.1314
    100  N        -23.7450  -16.8230   -9.2860 N.3   417  PHE417     -0.1241
    101  CA       -23.2930  -17.0020   -7.9190 C.3   417  PHE417      0.1605
    102  C        -23.4900  -15.7680   -7.0460 C.2   417  PHE417      0.2264
    103  O        -23.3460  -15.8790   -5.8180 O.2   417  PHE417     -0.2867
    104  CB       -21.8230  -17.4440   -7.9050 C.3   417  PHE417      0.0534
    105  CG       -21.6440  -18.9050   -8.1980 C.ar  417  PHE417     -0.0203
    106  CD1      -21.4360  -19.8250   -7.1580 C.ar  417  PHE417     -0.0042
    107  CD2      -21.7080  -19.3660   -9.5210 C.ar  417  PHE417     -0.0042
    108  CE1      -21.2690  -21.1830   -7.4270 C.ar  417  PHE417     -0.0003
    109  CE2      -21.5490  -20.7050   -9.8110 C.ar  417  PHE417     -0.0003
    110  CZ       -21.3260  -21.6290   -8.7610 C.ar  417  PHE417     -0.0000
@<TRIPOS>BOND
     1    94    93    2
     2    93    92    1
     3    92    91    1
     4    92    95    1
     5    95    96    1
     6    96    97    1
     7    82    83    2
     8    82    81    1
     9    97    98    1
    10    73    74    1
    11    98    99    1
    12    81    80    1
    13    81    84    1
    14    61    60    1
    15    74    75    1
    16    74    77    1
    17    75    76    2
    18    60    58   ar
    19    60    59   ar
    20    84    85    1
    21    58    56   ar
    22    78    77    1
    23    59    57   ar
    24    68    69    2
    25    68    67    1
    26    77    79    1
    27    85    86   ar
    28    85    87   ar
    29    56    55   ar
    30    66    67    1
    31    67    70    1
    32    62    63    1
    33    86    88   ar
    34    53    52    2
    35    57    55   ar
    36    55    54    1
    37    87    89   ar
    38    52    51    1
    39    88    90   ar
    40    63    64    1
    41    64    65    2
    42    70    71    1
    43    70    72    1
    44    89    90   ar
    45    54    51    1
    46    51    50    1
    47    31    30   ar
    48    31    29   ar
    49    30    28   ar
    50    21    22    1
    51    50    45   am
    52    28    26   ar
    53    29    27   ar
    54    46    45    2
    55    48    47    1
    56    45    44    1
    57    22    25    1
    58    22    23    1
    59    27    26   ar
    60    26    25    1
    61    36    33    1
    62    36    37    1
    63    33    32    1
    64    33    34    1
    65    23    24    2
    66    47    44    1
    67    47    49    1
    68    44    43    1
    69    37    38   ar
    70    37    39   ar
    71    38    40   ar
    72    34    35    2
    73    39    41   ar
    74   109   107   ar
    75   109   110   ar
    76    40    42   ar
    77   107   105   ar
    78   100   101    1
    79    41    42   ar
    80   110   108   ar
    81   105   104    1
    82   105   106   ar
    83   101   104    1
    84   101   102    1
    85   108   106   ar
    86   102   103    2
    87    20    18   am
    88    10     8   ar
    89    10    11   ar
    90    18    17    1
    91    18    19    2
    92    17    14    1
    93     8     6   ar
    94    16    15    2
    95    12    11    1
    96     4     3    2
    97    11     9   ar
    98    14    15    1
    99    14    13    1
   100     6     5    1
   101     6     7   ar
   102     3    13   am
   103     3     2    1
   104     5     2    1
   105     9     7   ar
   106     2     1    1
