@<TRIPOS>MOLECULE
tmp/5zsjB00.pdb
 133 128 0 0 0
SMALL
GASTEIGER

@<TRIPOS>ATOM
      1  N         22.0730  -24.4540    2.8130 N.3   238  TYR238     -0.1227
      2  CA        20.7470  -24.6640    3.3820 C.3   238  TYR238      0.1736
      3  C         20.2170  -23.3990    4.0590 C.2   238  TYR238      0.2595
      4  O         20.9320  -22.7300    4.8120 O.2   238  TYR238     -0.2718
      5  CB        20.7560  -25.8300    4.3700 C.3   238  TYR238      0.0548
      6  CG        19.3700  -26.4230    4.5520 C.ar  238  TYR238     -0.0200
      7  CD1       18.7370  -27.1230    3.5140 C.ar  238  TYR238     -0.0009
      8  CD2       18.6750  -26.2510    5.7540 C.ar  238  TYR238     -0.0009
      9  CE1       17.4450  -27.6540    3.6830 C.ar  238  TYR238      0.0417
     10  CE2       17.3970  -26.7770    5.9360 C.ar  238  TYR238      0.0417
     11  CZ        16.7850  -27.4710    4.9030 C.ar  238  TYR238      0.1957
     12  OH        15.5190  -27.9730    5.1170 O.3   238  TYR238     -0.2866
     13  N         18.9520  -23.0660    3.7650 N.am  239  ASN239     -0.1974
     14  CA        18.2870  -21.8620    4.2910 C.3   239  ASN239      0.1688
     15  C         19.1630  -20.6120    4.1990 C.2   239  ASN239      0.2292
     16  O         19.0910  -19.7340    5.0550 O.2   239  ASN239     -0.2864
     17  CB        17.7830  -22.0750    5.7260 C.3   239  ASN239      0.1181
     18  CG        16.6020  -23.0580    5.8000 C.2   239  ASN239      0.2629
     19  OD1       15.6870  -23.0240    4.9710 O.2   239  ASN239     -0.2716
     20  ND2       16.6210  -23.9390    6.8070 N.am  239  ASN239     -0.0877
     21  N         25.9120  -24.8290   13.5530 N.3   323  PHE323     -0.1241
     22  CA        25.2390  -25.1720   12.3050 C.3   323  PHE323      0.1605
     23  C         26.0670  -26.1600   11.4800 C.2   323  PHE323      0.2264
     24  O         26.4650  -25.8980   10.3400 O.2   323  PHE323     -0.2867
     25  CB        24.8860  -23.8910   11.5460 C.3   323  PHE323      0.0534
     26  CG        23.8780  -23.0480   12.2790 C.ar  323  PHE323     -0.0203
     27  CD1       22.5700  -23.5060   12.4550 C.ar  323  PHE323     -0.0042
     28  CD2       24.2470  -21.8450   12.8700 C.ar  323  PHE323     -0.0042
     29  CE1       21.6360  -22.7580   13.1740 C.ar  323  PHE323     -0.0003
     30  CE2       23.3230  -21.0920   13.5940 C.ar  323  PHE323     -0.0003
     31  CZ        22.0120  -21.5510   13.7490 C.ar  323  PHE323     -0.0000
     32  N         24.7800  -29.4470   11.6090 N.3   325  PHE325     -0.1241
     33  CA        23.8200  -30.5480   11.6300 C.3   325  PHE325      0.1605
     34  C         23.6810  -31.2330   10.2780 C.2   325  PHE325      0.2264
     35  O         23.8700  -30.6310    9.2180 O.2   325  PHE325     -0.2867
     36  CB        22.4430  -30.0430   12.0720 C.3   325  PHE325      0.0534
     37  CG        21.7650  -29.1200   11.0760 C.ar  325  PHE325     -0.0203
     38  CD1       22.0520  -27.7670   11.0500 C.ar  325  PHE325     -0.0042
     39  CD2       20.8280  -29.6070   10.1890 C.ar  325  PHE325     -0.0042
     40  CE1       21.4150  -26.9150   10.1500 C.ar  325  PHE325     -0.0003
     41  CE2       20.1900  -28.7620    9.2800 C.ar  325  PHE325     -0.0003
     42  CZ        20.4770  -27.4170    9.2630 C.ar  325  PHE325     -0.0000
     43  N         17.9000  -33.2730    7.7480 N.3   328  GLN328     -0.1231
     44  CA        16.8200  -34.2370    7.9480 C.3   328  GLN328      0.1698
     45  C         17.0550  -35.1850    9.1200 C.2   328  GLN328      0.2592
     46  O         16.2220  -36.0620    9.3520 O.2   328  GLN328     -0.2718
     47  CB        16.5850  -35.1060    6.6950 C.3   328  GLN328      0.0381
     48  CG        16.3160  -34.3420    5.3680 C.3   328  GLN328      0.0905
     49  CD        15.3350  -33.1800    5.5090 C.2   328  GLN328      0.2608
     50  OE1       14.4340  -33.1870    6.3610 O.2   328  GLN328     -0.2717
     51  NE2       15.5080  -32.1670    4.6580 N.am  328  GLN328     -0.0878
     52  N         18.1250  -35.0120    9.8890 N.am  329  VAL329     -0.1966
     53  CA        18.3680  -35.7720   11.1080 C.3   329  VAL329      0.1727
     54  C         17.9570  -34.9510   12.3240 C.2   329  VAL329      0.2616
     55  O         18.3160  -33.7740   12.4430 O.2   329  VAL329     -0.2715
     56  CB        19.8470  -36.1840   11.1970 C.3   329  VAL329      0.0290
     57  CG1       20.1300  -36.9190   12.5110 C.3   329  VAL329      0.0023
     58  CG2       20.2290  -37.0140    9.9870 C.3   329  VAL329      0.0023
     59  N         17.2510  -35.5840   13.2520 N.am  330  TYR330     -0.1974
     60  CA        16.9110  -35.0010   14.5480 C.3   330  TYR330      0.1639
     61  C         17.5440  -35.8970   15.6100 C.2   330  TYR330      0.2290
     62  O         16.8850  -36.7850   16.1560 O.2   330  TYR330     -0.2864
     63  CB        15.3960  -34.8910   14.7360 C.3   330  TYR330      0.0560
     64  CG        14.9560  -33.9910   15.8750 C.ar  330  TYR330     -0.0198
     65  CD1       15.8790  -33.2450   16.6180 C.ar  330  TYR330     -0.0009
     66  CD2       13.6160  -33.9070   16.2230 C.ar  330  TYR330     -0.0009
     67  CE1       15.4640  -32.4180   17.6590 C.ar  330  TYR330      0.0417
     68  CE2       13.1920  -33.0890   17.2540 C.ar  330  TYR330      0.0417
     69  CZ        14.1120  -32.3470   17.9690 C.ar  330  TYR330      0.1957
     70  OH        13.6500  -31.5560   18.9970 O.3   330  TYR330     -0.2866
     71  N         21.4600  -29.7360   16.6330 N.3   355  VAL355     -0.1245
     72  CA        20.0910  -30.2440   16.4850 C.3   355  VAL355      0.1561
     73  C         19.8990  -31.6250   17.1130 C.2   355  VAL355      0.2260
     74  O         20.0980  -32.6570   16.4610 O.2   355  VAL355     -0.2867
     75  CB        19.6370  -30.2380   15.0160 C.3   355  VAL355      0.0252
     76  CG1       18.1870  -30.6030   14.9560 C.3   355  VAL355      0.0019
     77  CG2       19.8550  -28.8550   14.3980 C.3   355  VAL355      0.0019
     78  N         17.6070  -33.8010   20.6100 N.3   357  LYS357     -0.1245
     79  CA        16.3650  -33.7630   21.3820 C.3   357  LYS357      0.1561
     80  C         16.5840  -33.5660   22.8740 C.2   357  LYS357      0.2260
     81  O         15.7790  -32.9020   23.5350 O.2   357  LYS357     -0.2867
     82  CB        15.5710  -35.0530   21.1750 C.3   357  LYS357      0.0271
     83  CG        14.9400  -35.1760   19.8130 C.3   357  LYS357      0.0035
     84  CD        14.4430  -36.5860   19.5760 C.3   357  LYS357      0.0206
     85  CE        13.7120  -36.7040   18.2560 C.3   357  LYS357      0.1093
     86  NZ        13.9280  -38.0620   17.7080 N.3   357  LYS357     -0.1314
     87  N         19.5980  -22.6370   19.4840 N.3   380  THR380     -0.1218
     88  CA        19.0380  -23.0700   18.2020 C.3   380  THR380      0.1862
     89  C         19.3580  -24.5410   17.9540 C.2   380  THR380      0.2287
     90  O         19.8980  -24.9270   16.9160 O.2   380  THR380     -0.2866
     91  CB        19.5450  -22.1760   17.0620 C.3   380  THR380      0.1770
     92  OG1       19.4870  -20.8060   17.4780 O.3   380  THR380     -0.2211
     93  CG2       18.6900  -22.3320   15.7970 C.3   380  THR380      0.0375
     94  N         16.8490  -27.0420   19.0470 N.3   382  PHE382     -0.1241
     95  CA        15.5830  -27.7700   19.1800 C.3   382  PHE382      0.1605
     96  C         15.6550  -28.8050   20.2970 C.2   382  PHE382      0.2264
     97  O         15.0880  -29.8910   20.2080 O.2   382  PHE382     -0.2867
     98  CB        15.1700  -28.4030   17.8530 C.3   382  PHE382      0.0534
     99  CG        14.8580  -27.3810   16.8150 C.ar  382  PHE382     -0.0203
    100  CD1       13.6300  -26.7390   16.8180 C.ar  382  PHE382     -0.0042
    101  CD2       15.8130  -27.0030   15.8850 C.ar  382  PHE382     -0.0042
    102  CE1       13.3490  -25.7510   15.8940 C.ar  382  PHE382     -0.0003
    103  CE2       15.5350  -26.0250   14.9510 C.ar  382  PHE382     -0.0003
    104  CZ        14.3010  -25.3920   14.9530 C.ar  382  PHE382     -0.0000
    105  N         14.5130  -30.5690   23.4330 N.3   384  LYS384     -0.1245
    106  CA        13.2440  -30.6580   24.1560 C.3   384  LYS384      0.1561
    107  C         13.4120  -30.8600   25.6600 C.2   384  LYS384      0.2260
    108  O         12.6180  -30.3210   26.4360 O.2   384  LYS384     -0.2867
    109  CB        12.3550  -31.7770   23.5850 C.3   384  LYS384      0.0271
    110  CG        12.0360  -31.6110   22.0760 C.3   384  LYS384      0.0035
    111  CD        10.7170  -32.2750   21.6490 C.3   384  LYS384      0.0206
    112  CE        10.0990  -31.5040   20.4380 C.3   384  LYS384      0.1093
    113  NZ         8.9380  -30.5780   20.7560 N.3   384  LYS384     -0.1314
    114  N         13.3710  -25.8490   22.3730 N.3   406  LYS406     -0.1245
    115  CA        12.0120  -26.2700   22.6670 C.3   406  LYS406      0.1561
    116  C         11.9240  -26.9000   24.0460 C.2   406  LYS406      0.2260
    117  O         11.1530  -27.8410   24.2630 O.2   406  LYS406     -0.2867
    118  CB        11.4900  -27.2130   21.5810 C.3   406  LYS406      0.0271
    119  CG        11.0810  -26.4180   20.3500 C.3   406  LYS406      0.0035
    120  CD         9.9120  -26.9880   19.6010 C.3   406  LYS406      0.0206
    121  CE         9.6960  -26.1960   18.3160 C.3   406  LYS406      0.1093
    122  NZ         8.2560  -26.1620   17.9580 N.3   406  LYS406     -0.1314
    123  N         23.7920  -16.6600    9.5290 N.3   417  PHE417     -0.1241
    124  CA        23.2230  -16.8420    8.2070 C.3   417  PHE417      0.1605
    125  C         23.2810  -15.6130    7.3180 C.2   417  PHE417      0.2264
    126  O         22.8760  -15.7080    6.1640 O.2   417  PHE417     -0.2867
    127  CB        21.7810  -17.3330    8.3240 C.3   417  PHE417      0.0534
    128  CG        21.6930  -18.7830    8.6360 C.ar  417  PHE417     -0.0203
    129  CD1       21.5770  -19.7140    7.6110 C.ar  417  PHE417     -0.0042
    130  CD2       21.7680  -19.2250    9.9540 C.ar  417  PHE417     -0.0042
    131  CE1       21.5150  -21.0630    7.8860 C.ar  417  PHE417     -0.0003
    132  CE2       21.7160  -20.5690   10.2440 C.ar  417  PHE417     -0.0003
    133  CZ        21.5820  -21.4960    9.2110 C.ar  417  PHE417     -0.0000
@<TRIPOS>BOND
     1     1     2    1
     2     2     3    1
     3     2     5    1
     4     7     9   ar
     5     7     6   ar
     6     9    11   ar
     7    13     3   am
     8    13    14    1
     9     3     4    2
    10    15    14    1
    11    15    16    2
    12    14    17    1
    13     5     6    1
    14     6     8   ar
    15    51    49   am
    16    11    12    1
    17    11    10   ar
    18    19    18    2
    19    48    49    1
    20    48    47    1
    21    49    50    2
    22    17    18    1
    23     8    10   ar
    24    18    20   am
    25   126   125    2
    26    47    44    1
    27   125   124    1
    28   129   131   ar
    29   129   128   ar
    30    43    44    1
    31   131   133   ar
    32    44    45    1
    33   124   127    1
    34   124   123    1
    35   127   128    1
    36   128   130   ar
    37    45    46    2
    38    45    52   am
    39   133   132   ar
    40    35    34    2
    41    42    41   ar
    42    42    40   ar
    43    41    39   ar
    44    52    53    1
    45   130   132   ar
    46    58    56    1
    47    40    38   ar
    48    39    37   ar
    49    34    33    1
    50    24    23    2
    51    38    37   ar
    52    37    36    1
    53    53    56    1
    54    53    54    1
    55    56    57    1
    56    23    22    1
    57    25    26    1
    58    25    22    1
    59    32    33    1
    60    33    36    1
    61    26    27   ar
    62    26    28   ar
    63    22    21    1
    64    54    55    2
    65    54    59   am
    66    27    29   ar
    67    28    30   ar
    68    29    31   ar
    69    59    60    1
    70    30    31   ar
    71    77    75    1
    72    60    63    1
    73    60    61    1
    74    63    64    1
    75   103   104   ar
    76   103   101   ar
    77   104   102   ar
    78    76    75    1
    79    75    72    1
    80    61    62    2
    81    93    91    1
    82    64    66   ar
    83    64    65   ar
    84   101    99   ar
    85   102   100   ar
    86    66    68   ar
    87    74    73    2
    88    72    71    1
    89    72    73    1
    90    65    67   ar
    91    99   100   ar
    92    99    98    1
    93    90    89    2
    94    91    92    1
    95    91    88    1
    96    68    69   ar
    97    67    69   ar
    98    86    85    1
    99    98    95    1
   100    89    88    1
   101   122   121    1
   102    69    70    1
   103    88    87    1
   104    85    84    1
   105   121   120    1
   106    94    95    1
   107    95    96    1
   108    84    83    1
   109   120   119    1
   110    83    82    1
   111    97    96    2
   112   119   118    1
   113   112   113    1
   114   112   111    1
   115    78    79    1
   116    82    79    1
   117    79    80    1
   118   118   115    1
   119   111   110    1
   120   110   109    1
   121   114   115    1
   122   115   116    1
   123    80    81    2
   124   105   106    1
   125   109   106    1
   126   116   117    2
   127   106   107    1
   128   107   108    2
