@<TRIPOS>MOLECULE
tmp/5zslA02.pdb
 114 111 0 0 0
SMALL
GASTEIGER

@<TRIPOS>ATOM
      1  N        -33.1700   -5.4120  -43.3210 N.3   238  TYR238     -0.1227
      2  CA       -34.4700   -6.0480  -43.1880 C.3   238  TYR238      0.1736
      3  C        -34.9980   -5.8480  -41.7430 C.2   238  TYR238      0.2595
      4  O        -34.3360   -6.1870  -40.7630 O.2   238  TYR238     -0.2718
      5  CB       -34.3750   -7.5160  -43.6000 C.3   238  TYR238      0.0548
      6  CG       -35.7090   -8.2180  -43.6290 C.ar  238  TYR238     -0.0200
      7  CD1      -36.7080   -7.8210  -44.5040 C.ar  238  TYR238     -0.0009
      8  CD2      -35.9880   -9.2600  -42.7580 C.ar  238  TYR238     -0.0009
      9  CE1      -37.9430   -8.4550  -44.5260 C.ar  238  TYR238      0.0417
     10  CE2      -37.2160   -9.9060  -42.7730 C.ar  238  TYR238      0.0417
     11  CZ       -38.1990   -9.4970  -43.6530 C.ar  238  TYR238      0.1957
     12  OH       -39.4100  -10.1280  -43.6480 O.3   238  TYR238     -0.2866
     13  N        -36.2100   -5.2940  -41.6350 N.am  239  ASN239     -0.1974
     14  CA       -36.9490   -5.0710  -40.3780 C.3   239  ASN239      0.1688
     15  C        -36.1700   -4.1110  -39.4700 C.2   239  ASN239      0.2292
     16  O        -36.3560   -4.1200  -38.2850 O.2   239  ASN239     -0.2864
     17  CB       -37.2660   -6.3960  -39.6680 C.3   239  ASN239      0.1181
     18  CG       -38.5460   -7.0370  -40.1520 C.2   239  ASN239      0.2629
     19  OD1      -39.4930   -6.3330  -40.5190 O.2   239  ASN239     -0.2716
     20  ND2      -38.6070   -8.3560  -40.1000 N.am  239  ASN239     -0.0877
     21  N        -29.0760  -13.7660  -36.6530 N.3   323  PHE323     -0.1241
     22  CA       -29.7980  -13.0140  -37.6650 C.3   323  PHE323      0.1605
     23  C        -28.9760  -13.0120  -38.9630 C.2   323  PHE323      0.2264
     24  O        -28.5950  -11.9600  -39.5050 O.2   323  PHE323     -0.2867
     25  CB       -30.2260  -11.6420  -37.1200 C.3   323  PHE323      0.0534
     26  CG       -31.3370  -11.7540  -36.1020 C.ar  323  PHE323     -0.0203
     27  CD1      -32.6280  -12.0450  -36.4890 C.ar  323  PHE323     -0.0042
     28  CD2      -31.0770  -11.6380  -34.7510 C.ar  323  PHE323     -0.0042
     29  CE1      -33.6390  -12.1900  -35.5530 C.ar  323  PHE323     -0.0003
     30  CE2      -32.0820  -11.8010  -33.8180 C.ar  323  PHE323     -0.0003
     31  CZ       -33.3610  -12.0750  -34.2190 C.ar  323  PHE323     -0.0000
     32  N        -30.2550  -15.3390  -41.3880 N.3   325  PHE325     -0.1241
     33  CA       -31.1730  -16.1090  -42.2220 C.3   325  PHE325      0.1605
     34  C        -31.3740  -15.4420  -43.5850 C.2   325  PHE325      0.2264
     35  O        -31.2780  -14.2290  -43.7100 O.2   325  PHE325     -0.2867
     36  CB       -32.5120  -16.3260  -41.5050 C.3   325  PHE325      0.0534
     37  CG       -33.4350  -15.1380  -41.3900 C.ar  325  PHE325     -0.0203
     38  CD1      -33.3570  -14.2810  -40.3080 C.ar  325  PHE325     -0.0042
     39  CD2      -34.4460  -14.9300  -42.3160 C.ar  325  PHE325     -0.0042
     40  CE1      -34.2300  -13.2160  -40.1740 C.ar  325  PHE325     -0.0003
     41  CE2      -35.2980  -13.8490  -42.2000 C.ar  325  PHE325     -0.0003
     42  CZ       -35.2020  -13.0070  -41.1230 C.ar  325  PHE325     -0.0000
     43  N        -33.7980  -14.2910  -46.5310 N.3   327  LEU327     -0.1231
     44  CA       -35.1430  -13.7750  -46.5020 C.3   327  LEU327      0.1693
     45  C        -36.0480  -14.7630  -47.2510 C.2   327  LEU327      0.2592
     46  O        -35.6790  -15.2890  -48.2760 O.2   327  LEU327     -0.2718
     47  CB       -35.1900  -12.3730  -47.1200 C.3   327  LEU327      0.0284
     48  CG       -34.1570  -11.3530  -46.6360 C.3   327  LEU327      0.0019
     49  CD1      -34.4850   -9.9620  -47.1750 C.3   327  LEU327      0.0001
     50  CD2      -34.0380  -11.3270  -45.1230 C.3   327  LEU327      0.0001
     51  N        -37.2000  -15.0590  -46.6550 N.am  328  GLN328     -0.1966
     52  CA       -38.2730  -15.9020  -47.2130 C.3   328  GLN328      0.1733
     53  C        -37.8040  -17.3540  -47.3730 C.2   328  GLN328      0.2616
     54  O        -38.3940  -18.0790  -48.1370 O.2   328  GLN328     -0.2715
     55  CB       -38.8020  -15.3400  -48.5400 C.3   328  GLN328      0.0408
     56  CG       -39.6970  -14.1120  -48.3690 C.3   328  GLN328      0.0908
     57  CD       -38.9130  -12.8240  -48.2520 C.2   328  GLN328      0.2608
     58  OE1      -38.0390  -12.5230  -49.0640 O.2   328  GLN328     -0.2717
     59  NE2      -39.2230  -12.0360  -47.2340 N.am  328  GLN328     -0.0878
     60  N        -36.7900  -17.7710  -46.6040 N.am  329  VAL329     -0.1963
     61  CA       -36.3730  -19.1610  -46.5100 C.3   329  VAL329      0.1727
     62  C        -36.5500  -19.6350  -45.0630 C.2   329  VAL329      0.2616
     63  O        -35.9830  -19.0620  -44.1250 O.2   329  VAL329     -0.2715
     64  CB       -34.8990  -19.3220  -46.9410 C.3   329  VAL329      0.0290
     65  CG1      -34.3400  -20.6940  -46.5830 C.3   329  VAL329      0.0023
     66  CG2      -34.6960  -19.0270  -48.4160 C.3   329  VAL329      0.0023
     67  N        -37.2360  -20.7610  -44.9100 N.am  330  TYR330     -0.1974
     68  CA       -37.4560  -21.4360  -43.6410 C.3   330  TYR330      0.1639
     69  C        -36.7980  -22.8270  -43.6920 C.2   330  TYR330      0.2290
     70  O        -37.4300  -23.7900  -44.0810 O.2   330  TYR330     -0.2864
     71  CB       -38.9680  -21.4820  -43.4020 C.3   330  TYR330      0.0560
     72  CG       -39.4520  -21.7650  -41.9990 C.ar  330  TYR330     -0.0198
     73  CD1      -38.5920  -21.9170  -40.9160 C.ar  330  TYR330     -0.0009
     74  CD2      -40.8150  -21.8350  -41.7530 C.ar  330  TYR330     -0.0009
     75  CE1      -39.0770  -22.1730  -39.6420 C.ar  330  TYR330      0.0417
     76  CE2      -41.3130  -22.0570  -40.4780 C.ar  330  TYR330      0.0417
     77  CZ       -40.4370  -22.2310  -39.4190 C.ar  330  TYR330      0.1957
     78  OH       -40.9230  -22.4780  -38.1760 O.3   330  TYR330     -0.2866
     79  N        -33.5700  -19.3380  -38.1690 N.3   355  VAL355     -0.1245
     80  CA       -34.9260  -19.5700  -38.6410 C.3   355  VAL355      0.1561
     81  C        -35.0120  -20.9610  -39.2810 C.2   355  VAL355      0.2260
     82  O        -34.7040  -21.1240  -40.4750 O.2   355  VAL355     -0.2867
     83  CB       -35.3890  -18.4810  -39.6280 C.3   355  VAL355      0.0252
     84  CG1      -36.8530  -18.6610  -40.0270 C.3   355  VAL355      0.0019
     85  CG2      -35.1420  -17.0840  -39.0920 C.3   355  VAL355      0.0019
     86  N        -37.9900  -19.6000  -34.5880 N.3   382  PHE382     -0.1241
     87  CA       -39.2420  -20.2200  -34.9980 C.3   382  PHE382      0.1605
     88  C        -39.1280  -21.7460  -35.0610 C.2   382  PHE382      0.2264
     89  O        -39.7850  -22.3870  -35.8750 O.2   382  PHE382     -0.2867
     90  CB       -39.7140  -19.6470  -36.3310 C.3   382  PHE382      0.0534
     91  CG       -39.8970  -18.1600  -36.2760 C.ar  382  PHE382     -0.0203
     92  CD1      -41.0970  -17.6220  -35.8420 C.ar  382  PHE382     -0.0042
     93  CD2      -38.8550  -17.3100  -36.6120 C.ar  382  PHE382     -0.0042
     94  CE1      -41.2560  -16.2480  -35.7580 C.ar  382  PHE382     -0.0003
     95  CE2      -39.0210  -15.9370  -36.5400 C.ar  382  PHE382     -0.0003
     96  CZ       -40.2170  -15.4140  -36.1130 C.ar  382  PHE382     -0.0000
     97  N        -40.1880  -25.2520  -34.3950 N.3   384  LYS384     -0.1245
     98  CA       -41.4960  -25.9120  -34.1450 C.3   384  LYS384      0.1561
     99  C        -41.3130  -27.1910  -33.3200 C.2   384  LYS384      0.2260
    100  O        -42.2050  -27.5550  -32.5970 O.2   384  LYS384     -0.2867
    101  CB       -42.2280  -26.2830  -35.4410 C.3   384  LYS384      0.0271
    102  CG       -42.4990  -25.1330  -36.4040 C.3   384  LYS384      0.0035
    103  CD       -43.7880  -25.2370  -37.2410 C.3   384  LYS384      0.0206
    104  CE       -44.8160  -24.1390  -36.9590 C.3   384  LYS384      0.1093
    105  NZ       -44.2810  -22.7560  -37.1220 N.3   384  LYS384     -0.1314
    106  N        -41.3400  -21.5760  -31.5500 N.3   406  LYS406     -0.1245
    107  CA       -42.6610  -22.0770  -31.8690 C.3   406  LYS406      0.1561
    108  C        -42.7860  -23.5210  -31.3620 C.2   406  LYS406      0.2260
    109  O        -43.5970  -24.2660  -31.8220 O.2   406  LYS406     -0.2867
    110  CB       -42.8520  -21.8800  -33.3760 C.3   406  LYS406      0.0271
    111  CG       -44.1590  -21.2010  -33.7640 C.3   406  LYS406      0.0035
    112  CD       -44.1500  -19.6900  -33.8680 C.3   406  LYS406      0.0206
    113  CE       -45.5600  -19.2290  -34.1730 C.3   406  LYS406      0.1093
    114  NZ       -45.6860  -17.7800  -34.4190 N.3   406  LYS406     -0.1314
@<TRIPOS>BOND
     1    58    57    2
     2    55    56    1
     3    55    52    1
     4    66    64    1
     5    56    57    1
     6    46    45    2
     7    57    59   am
     8    54    53    2
     9    53    52    1
    10    53    60   am
    11    45    51   am
    12    45    44    1
    13    52    51    1
    14    49    48    1
    15    47    48    1
    16    47    44    1
    17    64    65    1
    18    64    61    1
    19    48    50    1
    20    60    61    1
    21    43    44    1
    22    61    62    1
    23    62    67   am
    24    62    63    2
    25    67    68    1
    26     9     7   ar
    27     9    11   ar
    28     7     6   ar
    29    70    69    2
    30    35    34    2
    31    69    68    1
    32    11    12    1
    33    11    10   ar
    34    68    71    1
    35     6     5    1
    36     6     8   ar
    37     5     2    1
    38    34    33    1
    39    71    72    1
    40     1     2    1
    41     2     3    1
    42    10     8   ar
    43    39    41   ar
    44    39    37   ar
    45    33    36    1
    46    33    32    1
    47    41    42   ar
    48    72    74   ar
    49    72    73   ar
    50    74    76   ar
    51     3    13   am
    52     3     4    2
    53    13    14    1
    54    36    37    1
    55    37    38   ar
    56    42    40   ar
    57    73    75   ar
    58    19    18    2
    59    76    77   ar
    60    82    81    2
    61    14    17    1
    62    14    15    1
    63    38    40   ar
    64    18    20   am
    65    18    17    1
    66    84    83    1
    67    75    77   ar
    68    83    85    1
    69    83    80    1
    70    24    23    2
    71    15    16    2
    72    77    78    1
    73    81    80    1
    74    23    22    1
    75    80    79    1
    76    22    25    1
    77    22    21    1
    78   103   104    1
    79   103   102    1
    80   105   104    1
    81    25    26    1
    82    93    95   ar
    83    93    91   ar
    84    95    96   ar
    85    27    26   ar
    86    27    29   ar
    87   102   101    1
    88    90    91    1
    89    90    87    1
    90    91    92   ar
    91    96    94   ar
    92    26    28   ar
    93    89    88    2
    94    92    94   ar
    95    29    31   ar
    96   101    98    1
    97    88    87    1
    98    87    86    1
    99    28    30   ar
   100   114   113    1
   101    97    98    1
   102    31    30   ar
   103   113   112    1
   104    98    99    1
   105   112   111    1
   106   111   110    1
   107   110   107    1
   108    99   100    2
   109   107   106    1
   110   107   108    1
   111   109   108    2
