@<TRIPOS>MOLECULE
tmp/5zslA06.pdb
 91 91 0 0 0
SMALL
GASTEIGER

@<TRIPOS>ATOM
      1  N        -23.1750   13.2180  -37.1550 N.3   157  CYS157     -0.1221
      2  CA       -23.8550   13.2460  -38.4860 C.3   157  CYS157      0.1808
      3  C        -24.5150   11.8880  -38.7620 C.2   157  CYS157      0.2601
      4  O        -23.9210   10.9960  -39.3290 O.2   157  CYS157     -0.2717
      5  CB       -22.9110   13.6380  -39.6220 C.3   157  CYS157      0.0970
      6  SG       -23.7410   13.8950  -41.2260 S.3   157  CYS157     -0.0800
      7  N        -25.7590   11.7470  -38.3090 N.am  158  TYR158     -0.1962
      8  CA       -26.5760   10.5530  -38.5510 C.3   158  TYR158      0.1771
      9  C        -28.0330   11.0050  -38.5740 C.2   158  TYR158      0.2619
     10  O        -28.3190   12.1790  -38.3670 O.2   158  TYR158     -0.2715
     11  CB       -26.2640    9.4610  -37.5190 C.3   158  TYR158      0.0574
     12  CG       -26.7170    9.6910  -36.0930 C.ar  158  TYR158     -0.0198
     13  CD1      -26.2470   10.7450  -35.3310 C.ar  158  TYR158     -0.0009
     14  CD2      -27.6150    8.8230  -35.4880 C.ar  158  TYR158     -0.0009
     15  CE1      -26.6660   10.9410  -34.0170 C.ar  158  TYR158      0.0417
     16  CE2      -28.0660    9.0160  -34.1900 C.ar  158  TYR158      0.0417
     17  CZ       -27.5770   10.0710  -33.4470 C.ar  158  TYR158      0.1957
     18  OH       -27.9900   10.2530  -32.1730 O.3   158  TYR158     -0.2866
     19  N        -28.9380   10.0610  -38.7890 N.am  159  TYR159     -0.1974
     20  CA       -30.3400   10.3550  -39.0900 C.3   159  TYR159      0.1639
     21  C        -31.0220   11.1530  -37.9650 C.2   159  TYR159      0.2290
     22  O        -31.9150   11.9270  -38.2240 O.2   159  TYR159     -0.2864
     23  CB       -31.0870    9.0550  -39.4080 C.3   159  TYR159      0.0560
     24  CG       -31.4440    8.1930  -38.2240 C.ar  159  TYR159     -0.0198
     25  CD1      -32.6920    8.2860  -37.6260 C.ar  159  TYR159     -0.0009
     26  CD2      -30.5590    7.2610  -37.7230 C.ar  159  TYR159     -0.0009
     27  CE1      -33.0540    7.4650  -36.5770 C.ar  159  TYR159      0.0417
     28  CE2      -30.8880    6.4720  -36.6340 C.ar  159  TYR159      0.0417
     29  CZ       -32.1410    6.5680  -36.0600 C.ar  159  TYR159      0.1957
     30  OH       -32.4670    5.7690  -35.0010 O.3   159  TYR159     -0.2866
     31  N        -28.6650   15.1220  -38.3010 N.2   162  PRO162     -0.2571
     32  CA       -28.0890   15.1360  -39.6430 C.3   162  PRO162      0.2026
     33  C        -27.1390   16.3120  -39.8830 C.2   162  PRO162      0.2684
     34  O        -27.3420   17.3500  -39.3300 O.2   162  PRO162     -0.2709
     35  CB       -29.2800   15.2740  -40.6000 C.2   162  PRO162      0.0085
     36  CG       -30.5230   15.5320  -39.7180 C.2   162  PRO162      0.0180
     37  CD       -30.0820   15.5020  -38.2710 C.2   162  PRO162      0.0938
     38  N        -26.1120   16.0990  -40.7070 N.am  163  CYS163     -0.1949
     39  CA       -25.2630   17.1770  -41.1980 C.3   163  CYS163      0.1843
     40  C        -25.3880   17.3630  -42.7210 C.2   163  CYS163      0.2625
     41  O        -24.8800   18.3160  -43.2280 O.2   163  CYS163     -0.2714
     42  CB       -23.8090   16.9300  -40.8340 C.3   163  CYS163      0.0997
     43  SG       -22.9730   15.7110  -41.8810 S.3   163  CYS163     -0.0797
     44  N        -26.0620   16.4490  -43.4290 N.am  164  TYR164     -0.1960
     45  CA       -26.4430   16.6090  -44.8430 C.3   164  TYR164      0.1771
     46  C        -25.2350   16.5940  -45.8000 C.2   164  TYR164      0.2619
     47  O        -25.3830   16.9220  -46.9650 O.2   164  TYR164     -0.2715
     48  CB       -27.2650   17.8920  -45.0170 C.3   164  TYR164      0.0574
     49  CG       -28.4910   17.9920  -44.1390 C.ar  164  TYR164     -0.0198
     50  CD1      -29.5830   17.1590  -44.3540 C.ar  164  TYR164     -0.0009
     51  CD2      -28.5730   18.9150  -43.0960 C.ar  164  TYR164     -0.0009
     52  CE1      -30.7250   17.2350  -43.5660 C.ar  164  TYR164      0.0417
     53  CE2      -29.7050   19.0020  -42.3010 C.ar  164  TYR164      0.0417
     54  CZ       -30.7880   18.1640  -42.5380 C.ar  164  TYR164      0.1957
     55  OH       -31.9110   18.2240  -41.7560 O.3   164  TYR164     -0.2866
     56  N        -24.0540   16.1830  -45.3210 N.am  165  VAL165     -0.1963
     57  CA       -22.8720   15.9320  -46.1520 C.3   165  VAL165      0.1727
     58  C        -22.1470   14.6950  -45.6020 C.2   165  VAL165      0.2616
     59  O        -22.4150   14.2360  -44.5100 O.2   165  VAL165     -0.2715
     60  CB       -21.9120   17.1450  -46.1940 C.3   165  VAL165      0.0290
     61  CG1      -22.5060   18.3230  -46.9580 C.3   165  VAL165      0.0023
     62  CG2      -21.4680   17.5970  -44.8150 C.3   165  VAL165      0.0023
     63  N        -21.2110   14.1740  -46.3900 N.am  166  SER166     -0.1950
     64  CA       -20.2240   13.2300  -45.9310 C.3   166  SER166      0.1924
     65  C        -19.3340   13.9010  -44.8670 C.2   166  SER166      0.2314
     66  O        -19.0300   15.0820  -44.9440 O.2   166  SER166     -0.2863
     67  CB       -19.3950   12.7060  -47.0840 C.3   166  SER166      0.2116
     68  OG       -20.2090   12.0150  -48.0330 O.3   166  SER166     -0.2180
     69  N        -21.5060    9.2250  -40.6850 N.3   189  ASN189     -0.1240
     70  CA       -21.5450    9.4060  -42.1390 C.3   189  ASN189      0.1653
     71  C        -20.1190    9.4760  -42.7360 C.2   189  ASN189      0.2266
     72  O        -19.8840   10.1980  -43.6850 O.2   189  ASN189     -0.2867
     73  CB       -22.3260   10.6780  -42.4830 C.3   189  ASN189      0.1155
     74  CG       -23.2440   10.5110  -43.6730 C.2   189  ASN189      0.2627
     75  OD1      -23.5960    9.3800  -44.0260 O.2   189  ASN189     -0.2716
     76  ND2      -23.6480   11.6250  -44.2740 N.am  189  ASN189     -0.0877
     77  N        -16.9820    8.0910  -44.9140 N.3   191  THR191     -0.1218
     78  CA       -16.9530    7.3550  -46.1830 C.3   191  THR191      0.1862
     79  C        -15.6840    6.4920  -46.2910 C.2   191  THR191      0.2287
     80  O        -15.7260    5.4470  -46.9340 O.2   191  THR191     -0.2866
     81  CB       -17.1950    8.2630  -47.3970 C.3   191  THR191      0.1770
     82  OG1      -16.2040    9.2810  -47.4160 O.3   191  THR191     -0.2211
     83  CG2      -18.5520    8.9320  -47.3840 C.3   191  THR191      0.0375
     84  N        -20.7410    5.1870  -43.6420 N.3   210  MET210     -0.1245
     85  CA       -20.9120    4.9100  -45.0620 C.3   210  MET210      0.1570
     86  C        -19.5760    4.4240  -45.6560 C.2   210  MET210      0.2261
     87  O        -19.1880    4.8170  -46.7340 O.2   210  MET210     -0.2867
     88  CB       -21.3780    6.1780  -45.7930 C.3   210  MET210      0.0387
     89  CG       -22.8770    6.4230  -45.7340 C.3   210  MET210      0.0595
     90  SD       -23.3020    7.7280  -46.9270 S.3   210  MET210     -0.1393
     91  CE       -23.8990    6.7330  -48.2950 C.3   210  MET210      0.0692
@<TRIPOS>BOND
     1    91    90    1
     2    68    67    1
     3    82    81    1
     4    81    83    1
     5    81    78    1
     6    67    64    1
     7    47    46    2
     8    61    60    1
     9    80    79    2
    10    90    89    1
    11    87    86    2
    12    63    64    1
    13    63    58   am
    14    79    78    1
    15    60    57    1
    16    60    62    1
    17    78    77    1
    18    57    58    1
    19    57    56    1
    20    64    65    1
    21    46    56   am
    22    46    45    1
    23    88    89    1
    24    88    85    1
    25    86    85    1
    26    58    59    2
    27    85    84    1
    28    48    45    1
    29    48    49    1
    30    66    65    2
    31    45    44    1
    32    50    49   ar
    33    50    52   ar
    34    76    74   am
    35    49    51   ar
    36    75    74    2
    37    72    71    2
    38    74    73    1
    39    52    54   ar
    40    44    40   am
    41    41    40    2
    42    51    53   ar
    43    71    70    1
    44    40    39    1
    45    54    53   ar
    46    54    55    1
    47    73    70    1
    48    70    69    1
    49    43     6    1
    50    43    42    1
    51     6     5    1
    52    39    42    1
    53    39    38    1
    54    38    33   am
    55    35    36    2
    56    35    32    1
    57    33    32    1
    58    33    34    2
    59    36    37    1
    60    32    31    1
    61     5     2    1
    62    23    20    1
    63    23    24    1
    64     4     3    2
    65    20    19    1
    66    20    21    1
    67    19     9   am
    68     3     2    1
    69     3     7   am
    70     9     8    1
    71     9    10    2
    72     8     7    1
    73     8    11    1
    74     2     1    1
    75    31    37    2
    76    22    21    2
    77    24    26   ar
    78    24    25   ar
    79    26    28   ar
    80    25    27   ar
    81    11    12    1
    82    28    29   ar
    83    27    29   ar
    84    12    14   ar
    85    12    13   ar
    86    29    30    1
    87    14    16   ar
    88    13    15   ar
    89    16    17   ar
    90    15    17   ar
    91    17    18    1
