@<TRIPOS>MOLECULE
tmp/5zslA04.pdb
 87 81 0 0 0
SMALL
GASTEIGER

@<TRIPOS>ATOM
      1  N        -35.7580  -19.2110  -26.0080 N.3   403  SER403     -0.1217
      2  CA       -36.7560  -18.1440  -25.9100 C.3   403  SER403      0.1889
      3  C        -37.2290  -17.6880  -27.2960 C.2   403  SER403      0.2288
      4  O        -36.4170  -17.4630  -28.1630 O.2   403  SER403     -0.2866
      5  CB       -36.1930  -16.9630  -25.1620 C.3   403  SER403      0.2089
      6  OG       -37.2460  -16.2510  -24.5510 O.3   403  SER403     -0.2183
      7  N        -34.2240  -12.5900  -12.7870 N.3   432  SER432     -0.1202
      8  CA       -33.3700  -13.5300  -13.5100 C.3   432  SER432      0.2020
      9  C        -32.9930  -14.7080  -12.5950 C.2   432  SER432      0.2619
     10  O        -32.7090  -14.5160  -11.4200 O.2   432  SER432     -0.2717
     11  CB       -32.1590  -12.8240  -14.0390 C.3   432  SER432      0.2103
     12  OG       -31.4490  -13.6540  -14.9450 O.3   432  SER432     -0.2182
     13  N        -32.9740  -15.9250  -13.1410 N.am  433  CYS433     -0.1955
     14  CA       -32.7550  -17.1470  -12.3440 C.3   433  CYS433      0.1843
     15  C        -31.4230  -17.8600  -12.6520 C.2   433  CYS433      0.2625
     16  O        -31.1380  -18.9400  -12.0890 O.2   433  CYS433     -0.2714
     17  CB       -33.8960  -18.1290  -12.5810 C.3   433  CYS433      0.0997
     18  SG       -33.8750  -18.8360  -14.2490 S.3   433  CYS433     -0.0797
     19  N        -30.5970  -17.2860  -13.5290 N.am  434  TYR434     -0.1974
     20  CA       -29.3090  -17.8930  -13.8940 C.3   434  TYR434      0.1639
     21  C        -28.4870  -18.2420  -12.6340 C.2   434  TYR434      0.2290
     22  O        -27.8060  -19.2850  -12.5990 O.2   434  TYR434     -0.2864
     23  CB       -28.5410  -16.9770  -14.8530 C.3   434  TYR434      0.0560
     24  CG       -29.3010  -16.5990  -16.1040 C.ar  434  TYR434     -0.0198
     25  CD1      -30.2080  -17.4740  -16.6960 C.ar  434  TYR434     -0.0009
     26  CD2      -29.0980  -15.3760  -16.7240 C.ar  434  TYR434     -0.0009
     27  CE1      -30.9010  -17.1410  -17.8520 C.ar  434  TYR434      0.0417
     28  CE2      -29.7750  -15.0240  -17.8860 C.ar  434  TYR434      0.0417
     29  CZ       -30.6840  -15.9090  -18.4510 C.ar  434  TYR434      0.1957
     30  OH       -31.3650  -15.5710  -19.5800 O.3   434  TYR434     -0.2866
     31  N        -34.3810  -22.1250  -20.6950 N.3   441  ASP441     -0.1239
     32  CA       -35.3360  -21.0390  -20.9240 C.3   441  ASP441      0.1674
     33  C        -36.2120  -21.4090  -22.1240 C.2   441  ASP441      0.2266
     34  O        -35.7430  -21.3850  -23.2510 O.2   441  ASP441     -0.2867
     35  CB       -34.5960  -19.7160  -21.1660 C.3   441  ASP441      0.1410
     36  CG       -35.4980  -18.5030  -21.3540 C.2   441  ASP441      0.3668
     37  OD1      -36.6990  -18.6820  -21.5130 O.co2 441  ASP441     -0.2456
     38  OD2      -34.9870  -17.3800  -21.3160 O.co2 441  ASP441     -0.2456
     39  N        -39.1910  -19.8540  -22.5870 N.3   443  SER443     -0.1202
     40  CA       -40.1540  -18.7780  -22.5550 C.3   443  SER443      0.2020
     41  C        -40.5600  -18.3860  -23.9780 C.2   443  SER443      0.2618
     42  O        -39.7610  -18.4620  -24.8990 O.2   443  SER443     -0.2717
     43  CB       -39.6420  -17.6000  -21.7560 C.3   443  SER443      0.2103
     44  OG       -38.4860  -17.0030  -22.3220 O.3   443  SER443     -0.2182
     45  N        -41.8170  -17.9620  -24.1260 N.am  444  LYS444     -0.1979
     46  CA       -42.3830  -17.4770  -25.3690 C.3   444  LYS444      0.1596
     47  C        -42.2390  -18.5680  -26.4320 C.2   444  LYS444      0.2287
     48  O        -41.6210  -18.3910  -27.4840 O.2   444  LYS444     -0.2864
     49  CB       -41.7360  -16.1590  -25.7930 C.3   444  LYS444      0.0298
     50  CG       -42.0100  -14.9730  -24.8790 C.3   444  LYS444      0.0038
     51  CD       -41.0700  -13.8110  -25.1410 C.3   444  LYS444      0.0206
     52  CE       -41.1340  -12.7160  -24.1050 C.3   444  LYS444      0.1093
     53  NZ       -42.2140  -11.7620  -24.4170 N.3   444  LYS444     -0.1314
     54  N        -37.5940  -21.9030  -17.2910 N.3   465  ASN465     -0.1240
     55  CA       -38.4390  -20.7720  -17.6190 C.3   465  ASN465      0.1653
     56  C        -39.5020  -21.1970  -18.6420 C.2   465  ASN465      0.2266
     57  O        -39.1770  -21.4590  -19.8040 O.2   465  ASN465     -0.2867
     58  CB       -37.6110  -19.5960  -18.1390 C.3   465  ASN465      0.1155
     59  CG       -38.3740  -18.2900  -18.1440 C.2   465  ASN465      0.2627
     60  OD1      -39.6090  -18.2890  -18.1760 O.2   465  ASN465     -0.2716
     61  ND2      -37.6440  -17.1900  -18.0990 N.am  465  ASN465     -0.0877
     62  N        -42.1960  -19.1490  -18.9740 N.3   467  SER467     -0.1217
     63  CA       -42.9690  -17.9100  -19.0610 C.3   467  SER467      0.1889
     64  C        -43.5210  -17.7350  -20.4740 C.2   467  SER467      0.2288
     65  O        -42.8310  -17.9760  -21.4610 O.2   467  SER467     -0.2866
     66  CB       -42.1460  -16.7250  -18.6840 C.3   467  SER467      0.2089
     67  OG       -42.9840  -15.5950  -18.5430 O.3   467  SER467     -0.2183
     68  N        -36.0240  -23.2740   -9.2550 N.3   488  TYR488     -0.1241
     69  CA       -36.7830  -22.0970   -9.7060 C.3   488  TYR488      0.1605
     70  C        -37.6460  -22.4950  -10.8960 C.2   488  TYR488      0.2264
     71  O        -37.1280  -23.0260  -11.8590 O.2   488  TYR488     -0.2867
     72  CB       -35.8150  -20.9620  -10.0580 C.3   488  TYR488      0.0534
     73  CG       -36.4030  -19.5720  -10.1270 C.ar  488  TYR488     -0.0201
     74  CD1      -37.4690  -19.2830  -10.9650 C.ar  488  TYR488     -0.0009
     75  CD2      -35.8700  -18.5240   -9.3850 C.ar  488  TYR488     -0.0009
     76  CE1      -38.0090  -18.0080  -11.0460 C.ar  488  TYR488      0.0417
     77  CE2      -36.3850  -17.2360   -9.4720 C.ar  488  TYR488      0.0417
     78  CZ       -37.4550  -16.9770  -10.3160 C.ar  488  TYR488      0.1957
     79  OH       -38.0150  -15.7380  -10.4200 O.3   488  TYR488     -0.2866
     80  N        -40.3760  -20.4970  -13.3810 N.3   490  ASP490     -0.1239
     81  CA       -41.0800  -19.3110  -13.8290 C.3   490  ASP490      0.1674
     82  C        -42.2070  -19.8050  -14.7330 C.2   490  ASP490      0.2266
     83  O        -41.9600  -20.2510  -15.8500 O.2   490  ASP490     -0.2867
     84  CB       -40.1660  -18.3190  -14.5660 C.3   490  ASP490      0.1410
     85  CG       -40.8250  -16.9800  -14.8710 C.2   490  ASP490      0.3668
     86  OD1      -42.0670  -16.9070  -14.8650 O.co2 490  ASP490     -0.2456
     87  OD2      -40.0920  -16.0150  -15.0570 O.co2 490  ASP490     -0.2456
@<TRIPOS>BOND
     1     4     3    2
     2    48    47    2
     3     3     2    1
     4    47    46    1
     5     1     2    1
     6     2     5    1
     7    49    46    1
     8    49    50    1
     9    46    45    1
    10     5     6    1
    11    51    50    1
    12    51    52    1
    13    42    41    2
    14    53    52    1
    15    45    41   am
    16    41    40    1
    17    34    33    2
    18    39    40    1
    19    40    43    1
    20    44    43    1
    21    33    32    1
    22    37    36   ar
    23    65    64    2
    24    36    38   ar
    25    36    35    1
    26    35    32    1
    27    32    31    1
    28    64    63    1
    29    57    56    2
    30    30    29    1
    31    63    62    1
    32    63    66    1
    33    66    67    1
    34    56    55    1
    35    29    28   ar
    36    29    27   ar
    37    60    59    2
    38    59    58    1
    39    59    61   am
    40    58    55    1
    41    28    26   ar
    42    27    25   ar
    43    55    54    1
    44    26    24   ar
    45    25    24   ar
    46    24    23    1
    47    83    82    2
    48    87    85   ar
    49    12    11    1
    50    85    86   ar
    51    85    84    1
    52    23    20    1
    53    82    81    1
    54    84    81    1
    55    18    17    1
    56    11     8    1
    57    20    19    1
    58    20    21    1
    59    81    80    1
    60    19    15   am
    61     8     7    1
    62     8     9    1
    63    13     9   am
    64    13    14    1
    65    15    14    1
    66    15    16    2
    67    21    22    2
    68     9    10    2
    69    17    14    1
    70    71    70    2
    71    76    74   ar
    72    76    78   ar
    73    74    73   ar
    74    70    69    1
    75    79    78    1
    76    78    77   ar
    77    73    72    1
    78    73    75   ar
    79    72    69    1
    80    69    68    1
    81    77    75   ar
