@<TRIPOS>MOLECULE
tmp/5zsnB07.pdb
 114 111 0 0 0
SMALL
GASTEIGER

@<TRIPOS>ATOM
      1  N        -21.8880  -24.7610   -2.6880 N.3   238  TYR238     -0.1227
      2  CA       -20.5550  -24.9940   -3.2340 C.3   238  TYR238      0.1736
      3  C        -20.0600  -23.7310   -3.9750 C.2   238  TYR238      0.2595
      4  O        -20.7520  -23.1730   -4.8340 O.2   238  TYR238     -0.2718
      5  CB       -20.5240  -26.2380   -4.1290 C.3   238  TYR238      0.0548
      6  CG       -19.1260  -26.6710   -4.5000 C.ar  238  TYR238     -0.0200
      7  CD1      -18.2240  -27.1040   -3.5310 C.ar  238  TYR238     -0.0009
      8  CD2      -18.6830  -26.6350   -5.8170 C.ar  238  TYR238     -0.0009
      9  CE1      -16.9320  -27.5020   -3.8560 C.ar  238  TYR238      0.0417
     10  CE2      -17.3930  -27.0290   -6.1580 C.ar  238  TYR238      0.0417
     11  CZ       -16.5110  -27.4550   -5.1760 C.ar  238  TYR238      0.1957
     12  OH       -15.2540  -27.8580   -5.5340 O.3   238  TYR238     -0.2866
     13  N        -18.8430  -23.2850   -3.6150 N.am  239  ASN239     -0.1974
     14  CA       -18.1550  -22.1280   -4.2140 C.3   239  ASN239      0.1688
     15  C        -19.0040  -20.8500   -4.1350 C.2   239  ASN239      0.2292
     16  O        -18.8850  -19.9780   -4.9780 O.2   239  ASN239     -0.2864
     17  CB       -17.7580  -22.4010   -5.6700 C.3   239  ASN239      0.1181
     18  CG       -16.4960  -23.2270   -5.7730 C.2   239  ASN239      0.2629
     19  OD1      -15.6980  -23.2840   -4.8310 O.2   239  ASN239     -0.2716
     20  ND2      -16.3390  -23.9210   -6.8860 N.am  239  ASN239     -0.0877
     21  N        -25.9430  -25.1270  -13.3920 N.3   323  PHE323     -0.1241
     22  CA       -25.2620  -25.4490  -12.1480 C.3   323  PHE323      0.1605
     23  C        -26.1000  -26.4490  -11.3430 C.2   323  PHE323      0.2264
     24  O        -26.5490  -26.1700  -10.2290 O.2   323  PHE323     -0.2867
     25  CB       -24.8970  -24.1470  -11.4330 C.3   323  PHE323      0.0534
     26  CG       -23.8170  -23.3940  -12.1650 C.ar  323  PHE323     -0.0203
     27  CD1      -22.5230  -23.8850  -12.1920 C.ar  323  PHE323     -0.0042
     28  CD2      -24.1090  -22.2500  -12.8910 C.ar  323  PHE323     -0.0042
     29  CE1      -21.5380  -23.2450  -12.9340 C.ar  323  PHE323     -0.0003
     30  CE2      -23.1210  -21.5930  -13.6070 C.ar  323  PHE323     -0.0003
     31  CZ       -21.8360  -22.0970  -13.6400 C.ar  323  PHE323     -0.0000
     32  N        -24.7830  -29.8630  -11.4700 N.3   325  PHE325     -0.1241
     33  CA       -23.8640  -31.0030  -11.5040 C.3   325  PHE325      0.1605
     34  C        -23.7130  -31.5960  -10.1020 C.2   325  PHE325      0.2264
     35  O        -23.7540  -30.8790   -9.0920 O.2   325  PHE325     -0.2867
     36  CB       -22.5020  -30.5840  -12.0690 C.3   325  PHE325      0.0534
     37  CG       -21.6760  -29.6710  -11.1910 C.ar  325  PHE325     -0.0203
     38  CD1      -21.8220  -28.2900  -11.2370 C.ar  325  PHE325     -0.0042
     39  CD2      -20.7010  -30.1900  -10.3580 C.ar  325  PHE325     -0.0042
     40  CE1      -21.0500  -27.4600  -10.4400 C.ar  325  PHE325     -0.0003
     41  CE2      -19.9330  -29.3610   -9.5520 C.ar  325  PHE325     -0.0003
     42  CZ       -20.1140  -27.9960   -9.5920 C.ar  325  PHE325     -0.0000
     43  N        -21.3780  -32.8010   -7.2740 N.3   327  LEU327     -0.1231
     44  CA       -20.0250  -32.5310   -6.8450 C.3   327  LEU327      0.1693
     45  C        -19.2010  -33.8160   -7.0530 C.2   327  LEU327      0.2592
     46  O        -19.6760  -34.9090   -6.7590 O.2   327  LEU327     -0.2718
     47  CB       -20.0480  -32.0570   -5.3850 C.3   327  LEU327      0.0284
     48  CG       -21.0600  -30.9460   -5.0700 C.3   327  LEU327      0.0019
     49  CD1      -21.0900  -30.5820   -3.5910 C.3   327  LEU327      0.0001
     50  CD2      -20.7780  -29.7140   -5.9130 C.3   327  LEU327      0.0001
     51  N        -18.0010  -33.6610   -7.6240 N.am  328  GLN328     -0.1966
     52  CA       -16.9640  -34.7090   -7.7630 C.3   328  GLN328      0.1733
     53  C        -17.2890  -35.6600   -8.9270 C.2   328  GLN328      0.2616
     54  O        -16.7530  -36.7640   -8.9950 O.2   328  GLN328     -0.2715
     55  CB       -16.7820  -35.5160   -6.4690 C.3   328  GLN328      0.0408
     56  CG       -16.5370  -34.6800   -5.2220 C.3   328  GLN328      0.0908
     57  CD       -15.3100  -33.8060   -5.3330 C.2   328  GLN328      0.2608
     58  OE1      -14.1870  -34.2890   -5.4820 O.2   328  GLN328     -0.2717
     59  NE2      -15.5130  -32.5000   -5.2430 N.am  328  GLN328     -0.0878
     60  N        -18.1400  -35.2300   -9.8630 N.am  329  VAL329     -0.1963
     61  CA       -18.4950  -36.0590  -10.9980 C.3   329  VAL329      0.1727
     62  C        -18.2850  -35.2630  -12.2910 C.2   329  VAL329      0.2616
     63  O        -18.7280  -34.1120  -12.4230 O.2   329  VAL329     -0.2715
     64  CB       -19.9420  -36.5830  -10.8940 C.3   329  VAL329      0.0290
     65  CG1      -20.3220  -37.4400  -12.0980 C.3   329  VAL329      0.0023
     66  CG2      -20.1680  -37.3400   -9.5930 C.3   329  VAL329      0.0023
     67  N        -17.6490  -35.9350  -13.2540 N.am  330  TYR330     -0.1974
     68  CA       -17.3430  -35.3970  -14.5520 C.3   330  TYR330      0.1639
     69  C        -17.9230  -36.3460  -15.6040 C.2   330  TYR330      0.2290
     70  O        -17.2330  -37.2340  -16.0840 O.2   330  TYR330     -0.2864
     71  CB       -15.8260  -35.2050  -14.6850 C.3   330  TYR330      0.0560
     72  CG       -15.3480  -34.3130  -15.8080 C.ar  330  TYR330     -0.0198
     73  CD1      -16.2220  -33.5920  -16.6170 C.ar  330  TYR330     -0.0009
     74  CD2      -13.9830  -34.1530  -16.0330 C.ar  330  TYR330     -0.0009
     75  CE1      -15.7560  -32.7610  -17.6220 C.ar  330  TYR330      0.0417
     76  CE2      -13.5010  -33.3240  -17.0340 C.ar  330  TYR330      0.0417
     77  CZ       -14.3930  -32.6260  -17.8300 C.ar  330  TYR330      0.1957
     78  OH       -13.9240  -31.8280  -18.8300 O.3   330  TYR330     -0.2866
     79  N        -21.4820  -30.0050  -16.5840 N.3   355  VAL355     -0.1245
     80  CA       -20.1040  -30.5000  -16.4040 C.3   355  VAL355      0.1561
     81  C        -19.9550  -31.8840  -17.0540 C.2   355  VAL355      0.2260
     82  O        -20.2020  -32.9230  -16.4220 O.2   355  VAL355     -0.2867
     83  CB       -19.6680  -30.5030  -14.9280 C.3   355  VAL355      0.0252
     84  CG1      -18.2310  -30.9600  -14.7870 C.3   355  VAL355      0.0019
     85  CG2      -19.8490  -29.1460  -14.2830 C.3   355  VAL355      0.0019
     86  N        -16.9480  -27.3240  -19.0700 N.3   382  PHE382     -0.1241
     87  CA       -15.6650  -28.0440  -19.1340 C.3   382  PHE382      0.1605
     88  C        -15.7170  -29.0990  -20.2430 C.2   382  PHE382      0.2264
     89  O        -15.1340  -30.1730  -20.1230 O.2   382  PHE382     -0.2867
     90  CB       -15.3090  -28.6110  -17.7560 C.3   382  PHE382      0.0534
     91  CG       -15.3290  -27.5410  -16.6880 C.ar  382  PHE382     -0.0203
     92  CD1      -14.2300  -26.7120  -16.4820 C.ar  382  PHE382     -0.0042
     93  CD2      -16.4790  -27.2990  -15.9540 C.ar  382  PHE382     -0.0042
     94  CE1      -14.2830  -25.6820  -15.5540 C.ar  382  PHE382     -0.0003
     95  CE2      -16.5220  -26.2770  -15.0160 C.ar  382  PHE382     -0.0003
     96  CZ       -15.4270  -25.4670  -14.8210 C.ar  382  PHE382     -0.0000
     97  N        -14.5790  -30.8030  -23.4860 N.3   384  LYS384     -0.1245
     98  CA       -13.2800  -30.9700  -24.1420 C.3   384  LYS384      0.1561
     99  C        -13.4410  -31.1710  -25.6510 C.2   384  LYS384      0.2260
    100  O        -12.5390  -30.8350  -26.3920 O.2   384  LYS384     -0.2867
    101  CB       -12.4960  -32.1510  -23.5590 C.3   384  LYS384      0.0271
    102  CG       -12.3440  -32.1240  -22.0460 C.3   384  LYS384      0.0035
    103  CD       -11.1230  -32.8490  -21.5210 C.3   384  LYS384      0.0206
    104  CE       -10.6350  -32.2710  -20.2070 C.3   384  LYS384      0.1093
    105  NZ        -9.3290  -32.8400  -19.8030 N.3   384  LYS384     -0.1314
    106  N        -13.5210  -26.1940  -22.3820 N.3   406  LYS406     -0.1245
    107  CA       -12.1980  -26.7210  -22.5150 C.3   406  LYS406      0.1561
    108  C        -11.9920  -27.2750  -23.9400 C.2   406  LYS406      0.2260
    109  O        -11.1660  -28.1800  -24.1530 O.2   406  LYS406     -0.2867
    110  CB       -12.0350  -27.7810  -21.4280 C.3   406  LYS406      0.0271
    111  CG       -10.7340  -27.7250  -20.6490 C.3   406  LYS406      0.0035
    112  CD       -10.6730  -26.6680  -19.5740 C.3   406  LYS406      0.0206
    113  CE        -9.2650  -26.5490  -19.0310 C.3   406  LYS406      0.1093
    114  NZ        -9.2100  -25.7720  -17.7780 N.3   406  LYS406     -0.1314
@<TRIPOS>BOND
     1   100    99    2
     2    99    98    1
     3   109   108    2
     4    98   101    1
     5    98    97    1
     6   108   107    1
     7   101   102    1
     8   107   106    1
     9   107   110    1
    10   102   103    1
    11   103   104    1
    12   110   111    1
    13   111   112    1
    14    88    89    2
    15    88    87    1
    16   104   105    1
    17   112   113    1
    18    87    86    1
    19    87    90    1
    20   113   114    1
    21    78    77    1
    22    77    75   ar
    23    77    76   ar
    24    90    91    1
    25    75    73   ar
    26    81    82    2
    27    81    80    1
    28    76    74   ar
    29    91    92   ar
    30    91    93   ar
    31    73    72   ar
    32    79    80    1
    33    92    94   ar
    34    80    83    1
    35    70    69    2
    36    74    72   ar
    37    93    95   ar
    38    72    71    1
    39    69    68    1
    40    94    96   ar
    41    95    96   ar
    42    83    84    1
    43    83    85    1
    44    71    68    1
    45    68    67    1
    46    31    30   ar
    47    31    29   ar
    48    30    28   ar
    49    21    22    1
    50    67    62   am
    51    29    27   ar
    52    28    26   ar
    53    63    62    2
    54    62    61    1
    55    27    26   ar
    56    26    25    1
    57    22    25    1
    58    22    23    1
    59    65    64    1
    60    36    33    1
    61    36    37    1
    62    33    32    1
    63    33    34    1
    64    23    24    2
    65    38    37   ar
    66    38    40   ar
    67    37    39   ar
    68    61    64    1
    69    61    60    1
    70    64    66    1
    71    40    42   ar
    72    39    41   ar
    73    34    35    2
    74    60    53   am
    75    42    41   ar
    76    54    53    2
    77    53    52    1
    78    52    51    1
    79    52    55    1
    80    51    45   am
    81    43    44    1
    82    45    44    1
    83    45    46    2
    84    20    18   am
    85    44    47    1
    86    55    56    1
    87    10     8   ar
    88    10    11   ar
    89    50    48    1
    90     8     6   ar
    91    18    17    1
    92    18    19    2
    93    17    14    1
    94    12    11    1
    95    58    57    2
    96    47    48    1
    97    57    59   am
    98    57    56    1
    99    11     9   ar
   100    48    49    1
   101    16    15    2
   102     4     3    2
   103     6     5    1
   104     6     7   ar
   105    14    15    1
   106    14    13    1
   107     5     2    1
   108     3    13   am
   109     3     2    1
   110     9     7   ar
   111     2     1    1
