@<TRIPOS>MOLECULE
tmp/5zt1B00.pdb
 152 148 0 0 0
SMALL
GASTEIGER

@<TRIPOS>ATOM
      1  N         62.2910   37.9380  185.5010 N.3    79  ALA79      -0.1231
      2  CA        61.6070   36.6630  185.6830 C.3    79  ALA79       0.1694
      3  C         60.2960   36.8130  186.4410 C.2    79  ALA79       0.2593
      4  O         60.1930   37.5640  187.4070 O.2    79  ALA79      -0.2718
      5  CB        62.4870   35.6710  186.4190 C.3    79  ALA79       0.0304
      6  N         59.2900   36.0640  185.9980 N.am   80  GLY80      -0.1942
      7  CA        58.0010   36.0180  186.6560 C.3    80  GLY80       0.2014
      8  C         57.3780   37.3590  186.9790 C.2    80  GLY80       0.2639
      9  O         56.7600   37.5040  188.0320 O.2    80  GLY80      -0.2714
     10  N         57.4800   38.3410  186.0950 N.am   81  CYS81      -0.1953
     11  CA        56.8700   39.6370  186.3560 C.3    81  CYS81       0.1843
     12  C         55.6110   39.8890  185.5450 C.2    81  CYS81       0.2626
     13  O         55.0660   40.9910  185.6130 O.2    81  CYS81      -0.2714
     14  CB        57.8870   40.7400  186.1160 C.3    81  CYS81       0.0997
     15  SG        58.9210   40.9700  187.5640 S.3    81  CYS81      -0.0797
     16  N         55.1170   38.8990  184.8160 N.am   82  GLY82      -0.1940
     17  CA        53.8700   39.0020  184.0830 C.3    82  GLY82       0.2014
     18  C         54.0100   38.8520  182.6240 C.2    82  GLY82       0.2639
     19  O         53.0530   39.1710  181.9000 O.2    82  GLY82      -0.2714
     20  N         55.1560   38.3250  182.1670 N.am   83  LYS83      -0.1963
     21  CA        55.4800   38.1340  180.7530 C.3    83  LYS83       0.1728
     22  C         54.4380   37.2490  180.0660 C.2    83  LYS83       0.2617
     23  O         53.7710   37.6680  179.1100 O.2    83  LYS83      -0.2715
     24  CB        56.8960   37.5270  180.6840 C.3    83  LYS83       0.0311
     25  CG        57.7970   37.8550  179.4760 C.3    83  LYS83       0.0038
     26  CD        59.3120   37.8770  179.8680 C.3    83  LYS83       0.0206
     27  CE        59.7610   36.6910  180.7360 C.3    83  LYS83       0.1093
     28  NZ        59.9580   35.4490  179.9480 N.3    83  LYS83      -0.1314
     29  N         54.2540   36.0270  180.5780 N.am   84  THR84      -0.1937
     30  CA        53.3960   35.0430  179.9220 C.3    84  THR84       0.2028
     31  C         51.9310   35.4350  180.0230 C.2    84  THR84       0.2642
     32  O         51.1640   35.2450  179.0700 O.2    84  THR84      -0.2714
     33  CB        53.6110   33.6570  180.5510 C.3    84  THR84       0.1808
     34  OG1       54.9160   33.1150  180.2110 O.3    84  THR84      -0.2208
     35  CG2       52.4440   32.7100  180.1280 C.3    84  THR84       0.0379
     36  N         51.5230   35.9500  181.1890 N.am   85  PHE85      -0.1959
     37  CA        50.1330   36.3350  181.4120 C.3    85  PHE85       0.1771
     38  C         49.6980   37.4220  180.4580 C.2    85  PHE85       0.2619
     39  O         48.5590   37.4130  179.9740 O.2    85  PHE85      -0.2715
     40  CB        49.9640   36.8550  182.8200 C.3    85  PHE85       0.0574
     41  CG        49.5620   35.8220  183.7920 C.ar   85  PHE85      -0.0200
     42  CD1       50.3940   34.7550  184.0520 C.ar   85  PHE85      -0.0042
     43  CD2       48.3640   35.9150  184.4710 C.ar   85  PHE85      -0.0042
     44  CE1       50.0330   33.7890  184.9640 C.ar   85  PHE85      -0.0003
     45  CE2       48.0050   34.9570  185.3660 C.ar   85  PHE85      -0.0003
     46  CZ        48.8430   33.8890  185.6200 C.ar   85  PHE85      -0.0000
     47  N         50.5700   38.4110  180.2590 N.am   86  LEU86      -0.1977
     48  CA        50.3730   39.4110  179.2290 C.3    86  LEU86       0.1596
     49  C         50.0780   38.7770  177.8750 C.2    86  LEU86       0.2287
     50  O         49.0540   39.0780  177.2440 O.2    86  LEU86      -0.2864
     51  CB        51.6120   40.2930  179.1510 C.3    86  LEU86       0.0297
     52  CG        51.4290   41.5860  178.3550 C.3    86  LEU86       0.0022
     53  CD1       50.0590   42.3130  178.5560 C.3    86  LEU86       0.0001
     54  CD2       52.5650   42.4930  178.7380 C.3    86  LEU86       0.0001
     55  N         60.9970   26.4900  176.1760 N.3   104  GLU104     -0.1245
     56  CA        60.3590   26.4380  177.4850 C.3   104  GLU104      0.1567
     57  C         60.2870   25.0060  178.0330 C.2   104  GLU104      0.2260
     58  O         60.2730   24.0220  177.2780 O.2   104  GLU104     -0.2867
     59  CB        58.9590   27.0690  177.4180 C.3   104  GLU104      0.0388
     60  CG        59.0020   28.4780  176.9470 C.3   104  GLU104      0.1160
     61  CD        57.9980   29.3560  177.6300 C.2   104  GLU104      0.3649
     62  OE1       56.8350   28.9030  177.7530 O.co2 104  GLU104     -0.2457
     63  OE2       58.3840   30.4930  178.0200 O.co2 104  GLU104     -0.2457
     64  N         55.5740   24.7580  181.1270 N.3   108  GLU108     -0.1245
     65  CA        55.2120   26.0060  180.4800 C.3   108  GLU108      0.1567
     66  C         54.4180   25.7480  179.1980 C.2   108  GLU108      0.2260
     67  O         53.4160   26.4310  178.9300 O.2   108  GLU108     -0.2867
     68  CB        56.4750   26.8260  180.2290 C.3   108  GLU108      0.0388
     69  CG        57.3030   27.0100  181.5090 C.3   108  GLU108      0.1160
     70  CD        58.5680   27.9390  181.3810 C.2   108  GLU108      0.3649
     71  OE1       59.6020   27.5330  180.8050 O.co2 108  GLU108     -0.2457
     72  OE2       58.5510   29.0870  181.8820 O.co2 108  GLU108     -0.2457
     73  N         50.9150   24.5380  180.2900 N.3   111  GLU111     -0.1245
     74  CA        50.1670   25.7130  180.7010 C.3   111  GLU111      0.1567
     75  C         49.4680   26.3360  179.5010 C.2   111  GLU111      0.2260
     76  O         48.2420   26.4350  179.4470 O.2   111  GLU111     -0.2867
     77  CB        51.1290   26.6850  181.3770 C.3   111  GLU111      0.0388
     78  CG        51.4410   26.3240  182.8930 C.3   111  GLU111      0.1160
     79  CD        52.6610   27.0320  183.5230 C.2   111  GLU111      0.3649
     80  OE1       53.0250   28.1690  183.1240 O.co2 111  GLU111     -0.2457
     81  OE2       53.2680   26.4230  184.4330 O.co2 111  GLU111     -0.2457
     82  N         65.7210   33.3760  174.1810 N.3   169  ARG169     -0.1245
     83  CA        66.0420   31.9750  174.0070 C.3   169  ARG169      0.1563
     84  C         66.3910   31.6920  172.5730 C.2   169  ARG169      0.2260
     85  O         67.1910   30.7970  172.2950 O.2   169  ARG169     -0.2867
     86  CB        64.8620   31.1030  174.4250 C.3   169  ARG169      0.0307
     87  CG        64.5740   31.0910  175.9060 C.3   169  ARG169      0.0489
     88  CD        65.1830   29.8980  176.5830 C.3   169  ARG169      0.2205
     89  NE        65.3930   30.1180  178.0060 N.pl3 169  ARG169     -0.0865
     90  CZ        64.4140   30.3080  178.8790 C.cat 169  ARG169      0.5346
     91  NH1       63.1290   30.3240  178.4650 N.pl3 169  ARG169      0.1354
     92  NH2       64.7310   30.4890  180.1570 N.pl3 169  ARG169      0.1354
     93  N         63.7710   38.6550  178.0940 N.3   221  LEU221     -0.1245
     94  CA        64.0610   38.5630  179.5170 C.3   221  LEU221      0.1561
     95  C         65.1440   39.5450  179.9180 C.2   221  LEU221      0.2260
     96  O         66.0690   39.8180  179.1510 O.2   221  LEU221     -0.2867
     97  CB        64.5220   37.1550  179.8720 C.3   221  LEU221      0.0270
     98  CG        64.6520   36.7360  181.3520 C.3   221  LEU221      0.0019
     99  CD1       63.2850   36.8500  182.0850 C.3   221  LEU221      0.0001
    100  CD2       65.2290   35.2910  181.4610 C.3   221  LEU221      0.0001
    101  N         48.4390   44.7940  188.5750 N.3   251  PHE251     -0.1228
    102  CA        48.4710   43.9870  187.3570 C.3   251  PHE251      0.1721
    103  C         47.5080   44.5010  186.3100 C.2   251  PHE251      0.2437
    104  O         46.3470   44.7670  186.6320 O.2   251  PHE251     -0.2733
    105  CB        48.1000   42.5540  187.6330 C.3   251  PHE251      0.0547
    106  CG        49.0700   41.8190  188.4770 C.ar  251  PHE251     -0.0202
    107  CD1       50.4170   41.9120  188.2450 C.ar  251  PHE251     -0.0042
    108  CD2       48.6360   41.0070  189.4990 C.ar  251  PHE251     -0.0042
    109  CE1       51.3250   41.2210  189.0170 C.ar  251  PHE251     -0.0003
    110  CE2       49.5350   40.3180  190.2680 C.ar  251  PHE251     -0.0003
    111  CZ        50.8830   40.4250  190.0190 C.ar  251  PHE251     -0.0000
    112  N         47.9520   44.5540  185.0390 N.am  252  PRO252     -0.2718
    113  CA        49.2520   44.1080  184.5270 C.3   252  PRO252      0.1535
    114  C         50.3540   45.0900  184.8500 C.2   252  PRO252      0.2598
    115  O         50.0900   46.2920  184.7940 O.2   252  PRO252     -0.2715
    116  CB        49.0150   44.0220  183.0330 C.3   252  PRO252      0.0310
    117  CG        47.9530   44.9040  182.7560 C.3   252  PRO252      0.0237
    118  CD        47.0920   45.0090  183.9390 C.3   252  PRO252      0.0939
    119  N         51.5530   44.5860  185.1620 N.am  253  ALA253     -0.1978
    120  CA        52.6350   45.3640  185.7770 C.3   253  ALA253      0.1597
    121  C         53.4160   46.2630  184.8060 C.2   253  ALA253      0.2287
    122  O         54.6560   46.2670  184.8160 O.2   253  ALA253     -0.2864
    123  CB        53.6310   44.4210  186.4540 C.3   253  ALA253      0.0319
    124  N         44.0060   45.9170  185.9530 N.3   306  GLN306     -0.1231
    125  CA        43.1110   45.1540  185.0870 C.3   306  GLN306      0.1698
    126  C         43.3240   43.6640  185.3540 C.2   306  GLN306      0.2592
    127  O         44.4630   43.2020  185.4930 O.2   306  GLN306     -0.2718
    128  CB        43.3370   45.5080  183.6140 C.3   306  GLN306      0.0381
    129  CG        42.4090   44.8650  182.6440 C.3   306  GLN306      0.0905
    130  CD        42.5400   45.5000  181.2810 C.2   306  GLN306      0.2608
    131  OE1       43.3120   46.4710  181.1070 O.2   306  GLN306     -0.2717
    132  NE2       41.8000   44.9670  180.3080 N.am  306  GLN306     -0.0878
    133  N         42.2200   42.9350  185.5210 N.am  307  ASP307     -0.1960
    134  CA        42.3020   41.5090  185.7970 C.3   307  ASP307      0.1840
    135  C         42.6270   40.7680  184.5050 C.2   307  ASP307      0.2622
    136  O         42.0920   41.0680  183.4380 O.2   307  ASP307     -0.2715
    137  CB        40.9840   41.0060  186.4110 C.3   307  ASP307      0.1450
    138  CG        41.0540   39.5390  186.9300 C.2   307  ASP307      0.3671
    139  OD1       41.6460   39.2400  188.0030 O.co2 307  ASP307     -0.2456
    140  OD2       40.4570   38.6770  186.2600 O.co2 307  ASP307     -0.2456
    141  N         43.5120   39.7900  184.6120 N.am  308  TYR308     -0.1974
    142  CA        44.0240   39.1390  183.4290 C.3   308  TYR308      0.1639
    143  C         42.9450   38.4960  182.5660 C.2   308  TYR308      0.2290
    144  O         43.2450   38.1010  181.4310 O.2   308  TYR308     -0.2864
    145  CB        45.0850   38.1140  183.8520 C.3   308  TYR308      0.0560
    146  CG        44.5560   36.8450  184.4750 C.ar  308  TYR308     -0.0198
    147  CD1       44.0830   35.8060  183.6790 C.ar  308  TYR308     -0.0009
    148  CD2       44.5580   36.6710  185.8390 C.ar  308  TYR308     -0.0009
    149  CE1       43.5990   34.6250  184.2250 C.ar  308  TYR308      0.0417
    150  CE2       44.0750   35.4860  186.4150 C.ar  308  TYR308      0.0417
    151  CZ        43.5960   34.4700  185.5900 C.ar  308  TYR308      0.1957
    152  OH        43.1130   33.2830  186.0920 O.3   308  TYR308     -0.2866
@<TRIPOS>BOND
     1    85    84    2
     2    84    83    1
     3    83    82    1
     4    83    86    1
     5    86    87    1
     6    87    88    1
     7    55    56    1
     8    88    89    1
     9    60    59    1
    10    60    61    1
    11    50    49    2
    12    58    57    2
    13    59    56    1
    14    56    57    1
    15    61    62   ar
    16    61    63   ar
    17    49    48    1
    18    89    90    2
    19    93    94    1
    20    52    53    1
    21    52    54    1
    22    52    51    1
    23    91    90    1
    24    90    92    1
    25    67    66    2
    26    32    31    2
    27    23    22    2
    28    51    48    1
    29    96    95    2
    30    66    65    1
    31    48    47    1
    32    76    75    2
    33    25    26    1
    34    25    24    1
    35    75    74    1
    36    94    97    1
    37    94    95    1
    38    26    27    1
    39    97    98    1
    40    30    31    1
    41    30    33    1
    42    30    29    1
    43    28    27    1
    44    39    38    2
    45    31    36   am
    46    22    29   am
    47    22    21    1
    48    35    33    1
    49    34    33    1
    50    68    65    1
    51    68    69    1
    52    47    38   am
    53    73    74    1
    54   132   130   am
    55    38    37    1
    56    65    64    1
    57    24    21    1
    58    74    77    1
    59    21    20    1
    60    71    70   ar
    61   131   130    2
    62    36    37    1
    63   130   129    1
    64    98   100    1
    65    98    99    1
    66    77    78    1
    67    70    69    1
    68    70    72   ar
    69    37    40    1
    70   144   143    2
    71    19    18    2
    72    20    18   am
    73   143   142    1
    74    18    17    1
    75   129   128    1
    76   117   116    1
    77   117   118    1
    78    40    41    1
    79    78    79    1
    80   116   113    1
    81    80    79   ar
    82   142   145    1
    83   142   141    1
    84   136   135    2
    85    79    81   ar
    86   128   125    1
    87   147   149   ar
    88   147   146   ar
    89    41    42   ar
    90    41    43   ar
    91   145   146    1
    92   118   112    1
    93    42    44   ar
    94    17    16    1
    95   149   151   ar
    96    43    45   ar
    97   146   148   ar
    98   135   141   am
    99   135   134    1
   100   113   114    1
   101   113   112    1
   102   115   114    2
   103   121   122    2
   104   121   120    1
   105    16    12   am
   106   114   119   am
   107    44    46   ar
   108   112   103   am
   109   125   126    1
   110   125   124    1
   111   119   120    1
   112   126   127    2
   113   126   133   am
   114    45    46   ar
   115     1     2    1
   116   133   134    1
   117    12    13    2
   118    12    11    1
   119   151   152    1
   120   151   150   ar
   121     2     5    1
   122     2     3    1
   123   120   123    1
   124   134   137    1
   125   148   150   ar
   126     6     3   am
   127     6     7    1
   128    10    11    1
   129    10     8   am
   130    14    11    1
   131    14    15    1
   132   140   138   ar
   133   103   104    2
   134   103   102    1
   135   137   138    1
   136     3     4    2
   137     7     8    1
   138   138   139   ar
   139     8     9    2
   140   102   105    1
   141   102   101    1
   142   105   106    1
   143   107   106   ar
   144   107   109   ar
   145   106   108   ar
   146   109   111   ar
   147   108   110   ar
   148   111   110   ar
