@<TRIPOS>MOLECULE
tmp/5ztyA00.pdb
 237 234 0 0 0
SMALL
GASTEIGER

@<TRIPOS>ATOM
      1  N         11.8060    7.0810  -51.5290 N.3    69  PHE69      -0.1241
      2  CA        10.5390    6.6930  -52.1640 C.3    69  PHE69       0.1605
      3  C          9.6660    7.8810  -52.5950 C.2    69  PHE69       0.2264
      4  O          9.1840    7.8610  -53.7190 O.2    69  PHE69      -0.2867
      5  CB         9.7360    5.7080  -51.2780 C.3    69  PHE69       0.0534
      6  CG         8.4560    5.1660  -51.8820 C.ar   69  PHE69      -0.0203
      7  CD1        8.4930    4.2100  -52.8940 C.ar   69  PHE69      -0.0042
      8  CD2        7.2150    5.5950  -51.4230 C.ar   69  PHE69      -0.0042
      9  CE1        7.3100    3.7100  -53.4520 C.ar   69  PHE69      -0.0003
     10  CE2        6.0340    5.0920  -51.9810 C.ar   69  PHE69      -0.0003
     11  CZ         6.0900    4.1560  -52.9940 C.ar   69  PHE69      -0.0000
     12  N         11.5340   10.0660  -55.4040 N.3    72  SER72      -0.1202
     13  CA        11.6710    9.2880  -56.6360 C.3    72  SER72       0.2020
     14  C         10.3070    8.9960  -57.2780 C.2    72  SER72       0.2618
     15  O         10.2450    8.7420  -58.4810 O.2    72  SER72      -0.2717
     16  CB        12.4220    7.9880  -56.3700 C.3    72  SER72       0.2103
     17  OG        11.7410    7.1940  -55.4120 O.3    72  SER72      -0.2182
     18  N          9.2200    9.0380  -56.4810 N.am   73  PHE73      -0.1975
     19  CA         7.8570    8.7990  -56.9540 C.3    73  PHE73       0.1639
     20  C          7.3260   10.0530  -57.6280 C.2    73  PHE73       0.2290
     21  O          6.9610    9.9900  -58.8040 O.2    73  PHE73      -0.2864
     22  CB         6.9420    8.3710  -55.8000 C.3    73  PHE73       0.0560
     23  CG         5.6330    7.7570  -56.2240 C.ar   73  PHE73      -0.0200
     24  CD1        4.5190    8.5520  -56.4620 C.ar   73  PHE73      -0.0042
     25  CD2        5.5020    6.3790  -56.3490 C.ar   73  PHE73      -0.0042
     26  CE1        3.3080    7.9820  -56.8380 C.ar   73  PHE73      -0.0003
     27  CE2        4.2850    5.8090  -56.7190 C.ar   73  PHE73      -0.0003
     28  CZ         3.1950    6.6150  -56.9540 C.ar   73  PHE73      -0.0000
     29  N          9.2650   10.7090  -60.8330 N.3    76  PHE76      -0.1227
     30  CA         8.9610    9.7560  -61.9050 C.3    76  PHE76       0.1736
     31  C          7.5410    9.9350  -62.4480 C.2    76  PHE76       0.2595
     32  O          7.3810   10.2060  -63.6440 O.2    76  PHE76      -0.2718
     33  CB         9.1990    8.2990  -61.4470 C.3    76  PHE76       0.0547
     34  CG         9.1260    7.2470  -62.5340 C.ar   76  PHE76      -0.0202
     35  CD1       10.2310    6.9690  -63.3310 C.ar   76  PHE76      -0.0042
     36  CD2        7.9650    6.5080  -62.7340 C.ar   76  PHE76      -0.0042
     37  CE1       10.1660    5.9930  -64.3340 C.ar   76  PHE76      -0.0003
     38  CE2        7.9020    5.5300  -63.7350 C.ar   76  PHE76      -0.0003
     39  CZ         9.0040    5.2780  -64.5270 C.ar   76  PHE76      -0.0000
     40  N          6.5200    9.7850  -61.5730 N.am   77  HIS77      -0.1975
     41  CA         5.1130    9.8610  -61.9570 C.3    77  HIS77       0.1656
     42  C          4.5890   11.2840  -62.2030 C.2    77  HIS77       0.2291
     43  O          3.8640   11.4830  -63.1850 O.2    77  HIS77      -0.2864
     44  CB         4.2100    9.1160  -60.9540 C.3    77  HIS77       0.0771
     45  CG         4.2550    7.6180  -61.0770 C.ar   77  HIS77       0.0820
     46  ND1        3.8140    6.9670  -62.2200 N.ar   77  HIS77      -0.2267
     47  CD2        4.6530    6.6890  -60.1780 C.ar   77  HIS77       0.1154
     48  CE1        3.9830    5.6760  -61.9880 C.ar   77  HIS77       0.1986
     49  NE2        4.4830    5.4590  -60.7730 N.ar   77  HIS77      -0.2212
     50  N         18.9860    5.5520  -62.7680 N.3    88  PHE88      -0.1241
     51  CA        17.7420    4.8580  -62.4290 C.3    88  PHE88       0.1605
     52  C         17.9730    3.5790  -61.6160 C.2    88  PHE88       0.2264
     53  O         17.2090    3.3260  -60.6800 O.2    88  PHE88      -0.2867
     54  CB        16.9250    4.5540  -63.6930 C.3    88  PHE88       0.0534
     55  CG        15.5470    3.9960  -63.4260 C.ar   88  PHE88      -0.0203
     56  CD1       14.4750    4.8410  -63.1670 C.ar   88  PHE88      -0.0042
     57  CD2       15.3170    2.6260  -63.4540 C.ar   88  PHE88      -0.0042
     58  CE1       13.2010    4.3250  -62.9270 C.ar   88  PHE88      -0.0003
     59  CE2       14.0420    2.1100  -63.2050 C.ar   88  PHE88      -0.0003
     60  CZ        12.9940    2.9630  -62.9470 C.ar   88  PHE88      -0.0000
     61  N         18.6990    4.2940  -58.0090 N.3    91  LYS91      -0.1231
     62  CA        17.4790    4.8340  -57.3930 C.3    91  LYS91       0.1693
     63  C         16.5560    3.6940  -56.9800 C.2    91  LYS91       0.2591
     64  O         16.1110    3.6580  -55.8270 O.2    91  LYS91      -0.2718
     65  CB        16.7360    5.7810  -58.3490 C.3    91  LYS91       0.0285
     66  CG        17.2700    7.2010  -58.3560 C.3    91  LYS91       0.0035
     67  CD        16.4800    8.0930  -59.3090 C.3    91  LYS91       0.0206
     68  CE        17.1380    9.4350  -59.5130 C.3    91  LYS91       0.1093
     69  NZ        16.1990   10.4170  -60.1070 N.3    91  LYS91      -0.1314
     70  N         16.2770    2.7530  -57.9180 N.am   92  ILE92      -0.1980
     71  CA        15.4420    1.5730  -57.6570 C.3    92  ILE92       0.1595
     72  C         16.1510    0.6440  -56.6310 C.2    92  ILE92       0.2287
     73  O         15.4750    0.0230  -55.8060 O.2    92  ILE92      -0.2864
     74  CB        14.9580    0.8570  -58.9620 C.3    92  ILE92       0.0276
     75  CG1       13.7610   -0.0700  -58.6900 C.3    92  ILE92       0.0022
     76  CG2       16.0830    0.1310  -59.7130 C.3    92  ILE92       0.0022
     77  CD1       12.6710    0.0340  -59.6740 C.3    92  ILE92       0.0001
     78  N         15.7100    2.2210  -53.0990 N.3    95  VAL95      -0.1231
     79  CA        14.3310    1.9720  -52.6490 C.3    95  VAL95       0.1692
     80  C         14.2270    0.5550  -52.0660 C.2    95  VAL95       0.2592
     81  O         13.7530    0.3980  -50.9390 O.2    95  VAL95      -0.2718
     82  CB        13.2890    2.2330  -53.7810 C.3    95  VAL95       0.0266
     83  CG1       11.9310    1.6020  -53.4750 C.3    95  VAL95       0.0020
     84  CG2       13.1330    3.7240  -54.0520 C.3    95  VAL95       0.0020
     85  N         14.7090   -0.4600  -52.8240 N.am   96  THR96      -0.1953
     86  CA        14.7030   -1.8770  -52.4390 C.3    96  THR96       0.1897
     87  C         15.5070   -2.1290  -51.1440 C.2    96  THR96       0.2313
     88  O         14.9910   -2.7940  -50.2420 O.2    96  THR96      -0.2863
     89  CB        15.1590   -2.7620  -53.6180 C.3    96  THR96       0.1794
     90  OG1       14.5110   -2.3390  -54.8210 O.3    96  THR96      -0.2208
     91  CG2       14.8820   -4.2410  -53.3880 C.3    96  THR96       0.0378
     92  N         14.0140   -0.7890  -47.8270 N.3    99  PHE99      -0.1241
     93  CA        12.8230   -1.5840  -47.5260 C.3    99  PHE99       0.1605
     94  C         13.2020   -2.9820  -47.0140 C.2    99  PHE99       0.2264
     95  O         12.5460   -3.4780  -46.0990 O.2    99  PHE99      -0.2867
     96  CB        11.8990   -1.6950  -48.7530 C.3    99  PHE99       0.0534
     97  CG        10.8680   -0.6010  -48.9190 C.ar   99  PHE99      -0.0203
     98  CD1       10.0290   -0.2470  -47.8680 C.ar   99  PHE99      -0.0042
     99  CD2       10.6720    0.0080  -50.1540 C.ar   99  PHE99      -0.0042
    100  CE1        9.0620    0.7480  -48.0280 C.ar   99  PHE99      -0.0003
    101  CE2        9.6880    0.9910  -50.3220 C.ar   99  PHE99      -0.0003
    102  CZ         8.8870    1.3520  -49.2570 C.ar   99  PHE99      -0.0000
    103  N         20.6240   -5.8330  -59.8620 N.3   150  PRO150     -0.2116
    104  CA        20.4230   -5.3940  -61.2560 C.3   150  PRO150      0.1372
    105  C         21.4810   -4.3830  -61.7140 C.2   150  PRO150      0.2244
    106  O         21.8220   -4.3650  -62.8980 O.2   150  PRO150     -0.2868
    107  CB        19.0270   -4.7660  -61.2360 C.3   150  PRO150      0.0268
    108  CG        18.3810   -5.2890  -60.0200 C.3   150  PRO150      0.0207
    109  CD        19.4860   -5.3980  -59.0250 C.3   150  PRO150      0.0892
    110  N          5.5570   -3.7580  -64.0290 N.3   164  LEU164     -0.1231
    111  CA         5.5570   -2.6090  -63.1200 C.3   164  LEU164      0.1693
    112  C          6.8880   -1.8530  -62.9740 C.2   164  LEU164      0.2592
    113  O          6.8580   -0.6400  -62.7430 O.2   164  LEU164     -0.2718
    114  CB         5.0660   -3.0370  -61.7140 C.3   164  LEU164      0.0284
    115  CG         3.6990   -3.7320  -61.5980 C.3   164  LEU164      0.0019
    116  CD1        3.6520   -4.6280  -60.3720 C.3   164  LEU164      0.0001
    117  CD2        2.5610   -2.7230  -61.5530 C.3   164  LEU164      0.0001
    118  N          8.0370   -2.5530  -63.0390 N.am  165  PHE165     -0.1963
    119  CA         9.3330   -1.9120  -62.8110 C.3   165  PHE165      0.1756
    120  C         10.2510   -1.8830  -64.0350 C.2   165  PHE165      0.2461
    121  O         10.6380   -2.9450  -64.5300 O.2   165  PHE165     -0.2730
    122  CB        10.0510   -2.5450  -61.6070 C.3   165  PHE165      0.0574
    123  CG         9.2620   -2.5270  -60.3180 C.ar  165  PHE165     -0.0200
    124  CD1        9.2930   -1.4170  -59.4790 C.ar  165  PHE165     -0.0042
    125  CD2        8.5070   -3.6250  -59.9320 C.ar  165  PHE165     -0.0042
    126  CE1        8.5650   -1.3980  -58.2900 C.ar  165  PHE165     -0.0003
    127  CE2        7.7670   -3.6000  -58.7480 C.ar  165  PHE165     -0.0003
    128  CZ         7.8080   -2.4900  -57.9290 C.ar  165  PHE165     -0.0000
    129  N         10.6450   -0.6720  -64.5090 N.am  166  PRO166     -0.2727
    130  CA        11.5380   -0.5860  -65.6840 C.3   166  PRO166      0.1402
    131  C         12.9480   -1.1410  -65.4610 C.2   166  PRO166      0.2269
    132  O         13.5470   -0.8980  -64.4150 O.2   166  PRO166     -0.2865
    133  CB        11.5800    0.9170  -66.0010 C.3   166  PRO166      0.0296
    134  CG        10.4670    1.5330  -65.2140 C.3   166  PRO166      0.0237
    135  CD        10.2670    0.6700  -64.0220 C.3   166  PRO166      0.0939
    136  N         14.0700   -4.1510  -64.8200 N.3   168  ILE168     -0.1245
    137  CA        14.1490   -5.3480  -63.9730 C.3   168  ILE168      0.1561
    138  C         13.4220   -6.5640  -64.6240 C.2   168  ILE168      0.2260
    139  O         12.2850   -6.4230  -65.0810 O.2   168  ILE168     -0.2867
    140  CB        13.6800   -5.0160  -62.5160 C.3   168  ILE168      0.0252
    141  CG1       14.8250   -4.3070  -61.7460 C.3   168  ILE168      0.0019
    142  CG2       13.2010   -6.2540  -61.7320 C.3   168  ILE168      0.0019
    143  CD1       14.4080   -3.2070  -60.8170 C.3   168  ILE168      0.0001
    144  N         14.2930  -12.0310  -61.6840 N.3   172  TYR172     -0.1227
    145  CA        14.8090  -11.3130  -60.5130 C.3   172  TYR172      0.1736
    146  C         13.6710  -11.0330  -59.5320 C.2   172  TYR172      0.2595
    147  O         13.8640  -11.1960  -58.3270 O.2   172  TYR172     -0.2718
    148  CB        15.4950   -9.9830  -60.9000 C.3   172  TYR172      0.0548
    149  CG        15.9910   -9.1920  -59.7000 C.ar  172  TYR172     -0.0200
    150  CD1       17.2580   -9.4140  -59.1670 C.ar  172  TYR172     -0.0009
    151  CD2       15.1800   -8.2410  -59.0790 C.ar  172  TYR172     -0.0009
    152  CE1       17.7110   -8.7070  -58.0530 C.ar  172  TYR172      0.0417
    153  CE2       15.6230   -7.5290  -57.9640 C.ar  172  TYR172      0.0417
    154  CZ        16.8930   -7.7590  -57.4620 C.ar  172  TYR172      0.1957
    155  OH        17.3440   -7.0580  -56.3720 O.3   172  TYR172     -0.2866
    156  N         12.5230  -10.5310  -60.0530 N.am  173  LEU173     -0.1980
    157  CA        11.3170  -10.1670  -59.3110 C.3   173  LEU173      0.1596
    158  C         10.8130  -11.3520  -58.4960 C.2   173  LEU173      0.2287
    159  O         10.5530  -11.1930  -57.2970 O.2   173  LEU173     -0.2864
    160  CB        10.2260   -9.6480  -60.2720 C.3   173  LEU173      0.0297
    161  CG         9.0230   -8.9250  -59.6350 C.3   173  LEU173      0.0022
    162  CD1        9.3290   -7.4570  -59.3800 C.3   173  LEU173      0.0001
    163  CD2        7.8030   -9.0130  -60.5280 C.3   173  LEU173      0.0001
    164  N         13.3450  -12.1110  -55.6320 N.3   176  TRP176     -0.1241
    165  CA        13.2600  -11.1530  -54.5250 C.3   176  TRP176      0.1605
    166  C         12.0130  -11.4130  -53.6600 C.2   176  TRP176      0.2264
    167  O         12.0880  -11.2980  -52.4370 O.2   176  TRP176     -0.2867
    168  CB        13.3110   -9.6940  -55.0320 C.3   176  TRP176      0.0550
    169  CG        13.3230   -8.6680  -53.9280 C.ar  176  TRP176      0.0003
    170  CD1       14.4020   -8.2600  -53.1980 C.ar  176  TRP176      0.0946
    171  CD2       12.1920   -7.9510  -53.4090 C.ar  176  TRP176      0.0152
    172  NE1       14.0140   -7.3390  -52.2520 N.ar  176  TRP176     -0.2442
    173  CE2       12.6650   -7.1160  -52.3710 C.ar  176  TRP176      0.0810
    174  CE3       10.8220   -7.9240  -53.7270 C.ar  176  TRP176      0.0012
    175  CZ2       11.8170   -6.2670  -51.6490 C.ar  176  TRP176      0.0191
    176  CZ3        9.9850   -7.0800  -53.0150 C.ar  176  TRP176      0.0001
    177  CH2       10.4820   -6.2670  -51.9860 C.ar  176  TRP176      0.0015
    178  N          1.5670   -4.4490  -46.4540 N.3   388  TRP388     -0.1241
    179  CA         2.3680   -4.9510  -47.5730 C.3   388  TRP388      0.1605
    180  C          1.6570   -6.0290  -48.4120 C.2   388  TRP388      0.2264
    181  O          1.9990   -6.1840  -49.5860 O.2   388  TRP388     -0.2867
    182  CB         3.7520   -5.4350  -47.0940 C.3   388  TRP388      0.0550
    183  CG         4.7560   -4.3480  -46.7950 C.ar  388  TRP388      0.0003
    184  CD1        4.4970   -3.0630  -46.4110 C.ar  388  TRP388      0.0946
    185  CD2        6.1810   -4.4930  -46.7680 C.ar  388  TRP388      0.0152
    186  NE1        5.6740   -2.3860  -46.1910 N.ar  388  TRP388     -0.2442
    187  CE2        6.7240   -3.2420  -46.3930 C.ar  388  TRP388      0.0810
    188  CE3        7.0570   -5.5610  -47.0270 C.ar  388  TRP388      0.0012
    189  CZ2        8.1030   -3.0260  -46.2840 C.ar  388  TRP388      0.0191
    190  CZ3        8.4230   -5.3400  -46.9350 C.ar  388  TRP388      0.0001
    191  CH2        8.9340   -4.0890  -46.5620 C.ar  388  TRP388      0.0015
    192  N          0.0110   -4.8770  -51.8960 N.3   391  VAL391     -0.1231
    193  CA         1.1640   -4.4810  -52.7270 C.3   391  VAL391      0.1692
    194  C          1.9220   -5.7320  -53.2360 C.2   391  VAL391      0.2591
    195  O          2.1490   -5.8450  -54.4400 O.2   391  VAL391     -0.2718
    196  CB         2.0960   -3.4490  -52.0280 C.3   391  VAL391      0.0266
    197  CG1        3.1290   -2.8920  -53.0010 C.3   391  VAL391      0.0020
    198  CG2        1.2920   -2.3060  -51.4080 C.3   391  VAL391      0.0020
    199  N          2.2400   -6.6910  -52.3390 N.am  392  LEU392     -0.1980
    200  CA         2.9190   -7.9460  -52.6930 C.3   392  LEU392      0.1596
    201  C          2.0610   -8.8860  -53.5670 C.2   392  LEU392      0.2287
    202  O          2.5860   -9.5110  -54.4920 O.2   392  LEU392     -0.2864
    203  CB         3.4130   -8.6800  -51.4360 C.3   392  LEU392      0.0297
    204  CG         4.4960   -7.9720  -50.5880 C.3   392  LEU392      0.0022
    205  CD1        4.5690   -8.5550  -49.1830 C.3   392  LEU392      0.0001
    206  CD2        5.8700   -8.0000  -51.2630 C.3   392  LEU392      0.0001
    207  N          2.1410   -7.8180  -57.2260 N.3   395  MET395     -0.1245
    208  CA         3.4540   -8.1310  -57.8020 C.3   395  MET395      0.1570
    209  C          3.5430   -9.6100  -58.1920 C.2   395  MET395      0.2261
    210  O          4.1640   -9.9360  -59.2010 O.2   395  MET395     -0.2867
    211  CB         4.5680   -7.8010  -56.8080 C.3   395  MET395      0.0387
    212  CG         4.7920   -6.3180  -56.6010 C.3   395  MET395      0.0595
    213  SD         6.0170   -6.0110  -55.2940 S.3   395  MET395     -0.1393
    214  CE         7.5340   -6.2950  -56.1800 C.3   395  MET395      0.0692
    215  N         -1.9630    0.0960  -58.7020 N.3   411  PHE411     -0.1241
    216  CA        -0.6900   -0.1790  -58.0140 C.3   411  PHE411      0.1605
    217  C          0.0290    1.0960  -57.5500 C.2   411  PHE411      0.2264
    218  O          0.6290    1.0820  -56.4750 O.2   411  PHE411     -0.2867
    219  CB         0.2490   -1.0750  -58.8480 C.3   411  PHE411      0.0534
    220  CG         1.5160   -1.5190  -58.1350 C.ar  411  PHE411     -0.0203
    221  CD1        1.5150   -2.6380  -57.3070 C.ar  411  PHE411     -0.0042
    222  CD2        2.7150   -0.8270  -58.3080 C.ar  411  PHE411     -0.0042
    223  CE1        2.6900   -3.0530  -56.6610 C.ar  411  PHE411     -0.0003
    224  CE2        3.8820   -1.2290  -57.6450 C.ar  411  PHE411     -0.0003
    225  CZ         3.8650   -2.3440  -56.8330 C.ar  411  PHE411     -0.0000
    226  N          0.6570    1.4400  -53.5910 N.3   415  SER415     -0.1217
    227  CA         1.9780    1.5660  -52.9930 C.3   415  SER415      0.1889
    228  C          2.0320    2.6120  -51.8830 C.2   415  SER415      0.2288
    229  O          2.9710    2.5930  -51.0830 O.2   415  SER415     -0.2866
    230  CB         3.0350    1.8290  -54.0610 C.3   415  SER415      0.2089
    231  OG         2.6900    2.8890  -54.9360 O.3   415  SER415     -0.2183
    232  N          2.6930    1.5160  -48.1690 N.3   418  CYS418     -0.1235
    233  CA         4.0680    1.3610  -47.6730 C.3   418  CYS418      0.1677
    234  C          4.4610    2.6110  -46.8920 C.2   418  CYS418      0.2270
    235  O          5.3170    2.5370  -46.0070 O.2   418  CYS418     -0.2867
    236  CB         5.0430    1.1030  -48.8190 C.3   418  CYS418      0.0956
    237  SG         4.7170   -0.4110  -49.7580 S.3   418  CYS418     -0.0801
@<TRIPOS>BOND
     1   133   130    1
     2   133   134    1
     3   130   131    1
     4   130   129    1
     5   131   132    2
     6   134   135    1
     7   139   138    2
     8   136   137    1
     9   138   137    1
    10   121   120    2
    11    39    37   ar
    12    39    38   ar
    13   129   120   am
    14   129   135    1
    15    37    35   ar
    16   120   119    1
    17   110   111    1
    18   137   140    1
    19    38    36   ar
    20    54    55    1
    21    54    51    1
    22    32    31    2
    23    57    55   ar
    24    57    59   ar
    25    55    56   ar
    26    35    34   ar
    27    59    60   ar
    28    43    42    2
    29    56    58   ar
    30   111   112    1
    31   111   114    1
    32   118   112   am
    33   118   119    1
    34   112   113    2
    35    60    58   ar
    36   106   105    2
    37   119   122    1
    38    50    51    1
    39    36    34   ar
    40    34    33    1
    41   140   141    1
    42   140   142    1
    43    31    30    1
    44    31    40   am
    45    51    52    1
    46    46    48   ar
    47    46    45   ar
    48    42    41    1
    49    48    49   ar
    50    41    40    1
    51    41    44    1
    52    30    33    1
    53    30    29    1
    54   141   143    1
    55   114   115    1
    56   105   104    1
    57   144   145    1
    58    52    53    2
    59   122   123    1
    60   115   117    1
    61   115   116    1
    62   104   107    1
    63   104   103    1
    64   107   108    1
    65    45    44    1
    66    45    47   ar
    67   148   145    1
    68   148   149    1
    69    49    47   ar
    70   163   161    1
    71   145   146    1
    72   123   125   ar
    73   123   124   ar
    74   160   161    1
    75   160   157    1
    76    69    68    1
    77   156   146   am
    78   156   157    1
    79   108   109    1
    80   125   127   ar
    81   103   109    1
    82    76    74    1
    83   149   150   ar
    84   149   151   ar
    85    77    75    1
    86   161   162    1
    87   146   147    2
    88    68    67    1
    89   124   126   ar
    90   157   158    1
    91    67    66    1
    92   210   209    2
    93   150   152   ar
    94   151   153   ar
    95    74    75    1
    96    74    71    1
    97   219   220    1
    98   219   216    1
    99    21    20    2
   100   127   128   ar
   101   215   216    1
   102   158   159    2
   103    15    14    2
   104    66    65    1
   105    65    62    1
   106   222   220   ar
   107   222   224   ar
   108   126   128   ar
   109   209   208    1
   110   220   221   ar
   111   152   154   ar
   112   216   217    1
   113    61    62    1
   114   153   154   ar
   115    70    71    1
   116    70    63   am
   117   208   207    1
   118   208   211    1
   119    71    72    1
   120   224   225   ar
   121    20    19    1
   122   217   218    2
   123   154   155    1
   124    62    63    1
   125   221   223   ar
   126    14    13    1
   127    14    18   am
   128    63    64    2
   129    28    26   ar
   130    28    27   ar
   131    19    18    1
   132    19    22    1
   133    26    24   ar
   134   225   223   ar
   135   211   212    1
   136    27    25   ar
   137    13    16    1
   138    13    12    1
   139    72    73    2
   140   212   213    1
   141    24    23   ar
   142    16    17    1
   143    25    23   ar
   144    23    22    1
   145   214   213    1
   146   164   165    1
   147   168   165    1
   148   168   169    1
   149   231   230    1
   150    90    89    1
   151   165   166    1
   152   202   201    2
   153   195   194    2
   154   230   227    1
   155    84    82    1
   156   169   171   ar
   157   169   170   ar
   158    82    83    1
   159    82    79    1
   160   174   171   ar
   161   174   176   ar
   162     4     3    2
   163   166   167    2
   164    89    91    1
   165    89    86    1
   166   226   227    1
   167   201   200    1
   168     9    11   ar
   169     9     7   ar
   170   171   173   ar
   171   194   193    1
   172   194   199   am
   173   170   172   ar
   174    78    79    1
   175   176   177   ar
   176   197   196    1
   177    11    10   ar
   178   227   228    1
   179     7     6   ar
   180    85    86    1
   181    85    80   am
   182   193   196    1
   183   193   192    1
   184   200   199    1
   185   200   203    1
   186    79    80    1
   187     3     2    1
   188    86    87    1
   189   173   172   ar
   190   173   175   ar
   191     2     1    1
   192     2     5    1
   193    80    81    2
   194   196   198    1
   195   177   175   ar
   196    10     8   ar
   197   228   229    2
   198     6     8   ar
   199     6     5    1
   200   203   204    1
   201   206   204    1
   202    87    88    2
   203   204   205    1
   204   101    99   ar
   205   101   102   ar
   206    99    97   ar
   207   237   236    1
   208   181   180    2
   209   102   100   ar
   210    97    96    1
   211    97    98   ar
   212   236   233    1
   213    96    93    1
   214   180   179    1
   215   232   233    1
   216   100    98   ar
   217    92    93    1
   218   233   234    1
   219   179   182    1
   220   179   178    1
   221    93    94    1
   222   182   183    1
   223   188   190   ar
   224   188   185   ar
   225    94    95    2
   226   190   191   ar
   227   234   235    2
   228   183   185   ar
   229   183   184   ar
   230   185   187   ar
   231   191   189   ar
   232   184   186   ar
   233   187   189   ar
   234   187   186   ar
