@<TRIPOS>MOLECULE
tmp/5zueA00.pdb
 165 152 0 0 0
SMALL
GASTEIGER

@<TRIPOS>ATOM
      1  N        -11.7220   48.3760   11.9030 N.3    14  GLY14      -0.1210
      2  CA       -10.2940   48.2810   12.1060 C.3    14  GLY14       0.1956
      3  C         -9.5330   48.4530   10.8040 C.2    14  GLY14       0.2612
      4  O        -10.0960   48.4960    9.7090 O.2    14  GLY14      -0.2717
      5  N         -8.2100   48.5550   10.9340 N.am   15  GLY15      -0.1942
      6  CA        -7.3780   48.7280    9.7540 C.3    15  GLY15       0.2014
      7  C         -7.5400   47.5930    8.7610 C.2    15  GLY15       0.2639
      8  O         -7.7280   47.8200    7.5630 O.2    15  GLY15      -0.2714
      9  N         -7.4690   46.3520    9.2480 N.am   16  GLY16      -0.1954
     10  CA        -7.6230   45.2100    8.3620 C.3    16  GLY16       0.1869
     11  C         -8.9690   45.1950    7.6650 C.2    16  GLY16       0.2309
     12  O         -9.0550   44.9400    6.4610 O.2    16  GLY16      -0.2863
     13  N         -9.0300   48.1380    4.9840 N.3    19  ASN19      -0.1225
     14  CA        -8.1850   47.8350    3.8320 C.3    19  ASN19       0.1785
     15  C         -8.8740   46.8570    2.8900 C.2    19  ASN19       0.2597
     16  O         -8.7460   46.9670    1.6650 O.2    19  ASN19      -0.2718
     17  CB        -6.8430   47.2710    4.2970 C.3    19  ASN19       0.1169
     18  CG        -5.8900   48.3500    4.7690 C.2    19  ASN19       0.2627
     19  OD1       -5.7100   49.3680    4.1010 O.2    19  ASN19      -0.2716
     20  ND2       -5.2770   48.1340    5.9270 N.am   19  ASN19      -0.0877
     21  N         -9.6110   45.8910    3.4430 N.am   20  ALA20      -0.1979
     22  CA       -10.2940   44.9100    2.6070 C.3    20  ALA20       0.1597
     23  C        -11.4940   45.5280    1.9000 C.2    20  ALA20       0.2287
     24  O        -11.7100   45.2860    0.7070 O.2    20  ALA20      -0.2864
     25  CB       -10.7180   43.7110    3.4520 C.3    20  ALA20       0.0319
     26  N        -13.1370   52.9050   12.0250 N.3    38  ASN38      -0.1240
     27  CA       -11.8550   52.7610   12.6960 C.3    38  ASN38       0.1653
     28  C        -11.7610   53.7820   13.8180 C.2    38  ASN38       0.2266
     29  O        -12.5490   54.7270   13.9020 O.2    38  ASN38      -0.2867
     30  CB       -10.6800   52.9300   11.7220 C.3    38  ASN38       0.1155
     31  CG        -9.4340   52.1910   12.1800 C.2    38  ASN38       0.2627
     32  OD1       -9.2810   51.8830   13.3620 O.2    38  ASN38      -0.2716
     33  ND2       -8.5360   51.9030   11.2440 N.am   38  ASN38      -0.0877
     34  N         -8.3060   54.8450   14.4380 N.3    40  ASP40      -0.1239
     35  CA        -7.3140   55.6020   13.6900 C.3    40  ASP40       0.1674
     36  C         -8.0310   56.5660   12.7520 C.2    40  ASP40       0.2266
     37  O         -8.6760   56.1340   11.7910 O.2    40  ASP40      -0.2867
     38  CB        -6.3950   54.6500   12.9090 C.3    40  ASP40       0.1410
     39  CG        -4.9260   55.0630   12.9520 C.2    40  ASP40       0.3668
     40  OD1       -4.6210   56.1980   13.3860 O.co2  40  ASP40      -0.2456
     41  OD2       -4.0730   54.2420   12.5470 O.co2  40  ASP40      -0.2456
     42  N         -6.1720   55.0670   17.5220 N.3    64  GLY64      -0.1210
     43  CA        -6.2810   53.6290   17.4620 C.3    64  GLY64       0.1956
     44  C         -6.7500   53.1010   18.7980 C.2    64  GLY64       0.2612
     45  O         -7.3340   53.8320   19.6060 O.2    64  GLY64      -0.2717
     46  N         -6.4900   51.8150   19.0400 N.am   65  ALA65      -0.1965
     47  CA        -6.8050   51.1950   20.3200 C.3    65  ALA65       0.1728
     48  C         -5.5940   50.5680   20.9950 C.2    65  ALA65       0.2617
     49  O         -5.7380   50.0020   22.0860 O.2    65  ALA65      -0.2715
     50  CB        -7.8980   50.1320   20.1450 C.3    65  ALA65       0.0334
     51  N         -4.4120   50.6530   20.3910 N.am   66  GLY66      -0.1940
     52  CA        -3.2070   50.1360   21.0200 C.3    66  GLY66       0.2014
     53  C         -3.2350   48.6500   21.2850 C.2    66  GLY66       0.2638
     54  O         -2.6830   48.1960   22.2930 O.2    66  GLY66      -0.2714
     55  N         -3.8720   47.8760   20.4080 N.am   67  ALA67      -0.1977
     56  CA        -3.9250   46.4220   20.5370 C.3    67  ALA67       0.1597
     57  C         -4.6770   45.9970   21.7930 C.2    67  ALA67       0.2287
     58  O         -4.4450   44.9100   22.3250 O.2    67  ALA67      -0.2864
     59  CB        -2.5200   45.8100   20.5290 C.3    67  ALA67       0.0319
     60  N         -9.8050   42.1570   10.3000 N.3    98  GLY98      -0.1210
     61  CA        -8.7010   41.3150   10.7160 C.3    98  GLY98       0.1956
     62  C         -8.7350   41.2160   12.2310 C.2    98  GLY98       0.2611
     63  O         -8.8220   42.2320   12.9310 O.2    98  GLY98      -0.2717
     64  N         -8.7060   39.9910   12.7440 N.am   99  GLU99      -0.1979
     65  CA        -8.8290   39.7660   14.1770 C.3    99  GLU99       0.1602
     66  C         -7.4450   39.6840   14.8120 C.2    99  GLU99       0.2287
     67  O         -6.5030   39.1560   14.2130 O.2    99  GLU99      -0.2864
     68  CB        -9.6200   38.4890   14.4750 C.3    99  GLU99       0.0415
     69  CG       -10.5120   38.5760   15.7190 C.3    99  GLU99       0.1163
     70  CD       -11.8590   39.2110   15.4290 C.2    99  GLU99       0.3649
     71  OE1      -12.0780   39.6020   14.2660 O.co2  99  GLU99      -0.2457
     72  OE2      -12.6950   39.3130   16.3540 O.co2  99  GLU99      -0.2457
     73  N         -6.2020   42.7420   16.4290 N.3   101  GLY101     -0.1210
     74  CA        -5.9700   44.1260   16.7820 C.3   101  GLY101      0.1956
     75  C         -6.8120   44.5530   17.9670 C.2   101  GLY101      0.2612
     76  O         -7.2630   43.7380   18.7760 O.2   101  GLY101     -0.2717
     77  N         -7.0310   45.8610   18.0590 N.am  102  GLY102     -0.1942
     78  CA        -7.7620   46.4230   19.1770 C.3   102  GLY102      0.2014
     79  C         -9.1880   46.8090   18.8450 C.2   102  GLY102      0.2640
     80  O        -10.1170   46.4500   19.5740 O.2   102  GLY102     -0.2714
     81  N         -9.3790   47.5400   17.7500 N.am  103  THR103     -0.1936
     82  CA       -10.7080   48.0460   17.4210 C.3   103  THR103      0.2028
     83  C        -11.5460   47.0110   16.6730 C.2   103  THR103      0.2642
     84  O        -12.7280   46.8280   16.9830 O.2   103  THR103     -0.2714
     85  CB       -10.6000   49.3440   16.6070 C.3   103  THR103      0.1808
     86  OG1      -11.8810   49.6780   16.0580 O.3   103  THR103     -0.2208
     87  CG2       -9.5820   49.2200   15.4830 C.3   103  THR103      0.0379
     88  N        -10.9570   46.3240   15.6990 N.am  104  GLY104     -0.1954
     89  CA       -11.6670   45.2740   14.9970 C.3   104  GLY104      0.1869
     90  C        -12.0960   44.1640   15.9340 C.2   104  GLY104      0.2309
     91  O        -13.2780   43.8150   16.0010 O.2   104  GLY104     -0.2863
     92  N        -10.3700   37.2150    9.5610 N.3   127  THR127     -0.1218
     93  CA        -9.1520   36.4340    9.4070 C.3   127  THR127      0.1862
     94  C         -8.5760   36.0850   10.7720 C.2   127  THR127      0.2287
     95  O         -8.7310   36.8330   11.7420 O.2   127  THR127     -0.2866
     96  CB        -8.0840   37.1890    8.5990 C.3   127  THR127      0.1770
     97  OG1       -8.0170   38.5570    9.0230 O.3   127  THR127     -0.2211
     98  CG2       -8.3680   37.1240    7.1020 C.3   127  THR127      0.0375
     99  N         -4.9310   35.8980   12.4830 N.3   129  PRO129     -0.2116
    100  CA        -3.6350   36.4960   12.1470 C.3   129  PRO129      0.1372
    101  C         -2.6150   35.4380   11.7570 C.2   129  PRO129      0.2244
    102  O         -2.7320   34.2600   12.1020 O.2   129  PRO129     -0.2868
    103  CB        -3.2300   37.2100   13.4420 C.3   129  PRO129      0.0268
    104  CG        -3.9450   36.4690   14.5090 C.3   129  PRO129      0.0207
    105  CD        -5.2580   36.0730   13.9070 C.3   129  PRO129      0.0892
    106  N          2.9630   36.9930   13.4910 N.3   133  GLU133     -0.1245
    107  CA         2.6160   38.2250   14.1850 C.3   133  GLU133      0.1567
    108  C          2.6430   38.0690   15.7000 C.2   133  GLU133      0.2260
    109  O          2.2580   39.0000   16.4130 O.2   133  GLU133     -0.2867
    110  CB         1.2330   38.7170   13.7510 C.3   133  GLU133      0.0388
    111  CG         1.0110   38.7350   12.2500 C.3   133  GLU133      0.1160
    112  CD        -0.3830   39.2040   11.8780 C.2   133  GLU133      0.3649
    113  OE1       -1.1170   38.4280   11.2300 O.co2 133  GLU133     -0.2457
    114  OE2       -0.7480   40.3420   12.2420 O.co2 133  GLU133     -0.2457
    115  N         -1.1070   38.3650   19.5250 N.3   137  ARG137     -0.1245
    116  CA        -2.0650   38.6350   18.4610 C.3   137  ARG137      0.1563
    117  C         -2.9710   37.4330   18.2330 C.2   137  ARG137      0.2260
    118  O         -4.1730   37.5880   17.9890 O.2   137  ARG137     -0.2867
    119  CB        -1.3200   38.9980   17.1780 C.3   137  ARG137      0.0307
    120  CG        -2.0520   39.9840   16.2900 C.3   137  ARG137      0.0489
    121  CD        -2.0220   41.3890   16.8750 C.3   137  ARG137      0.2205
    122  NE        -2.3910   42.4000   15.8870 N.pl3 137  ARG137     -0.0865
    123  CZ        -2.5110   43.6960   16.1550 C.cat 137  ARG137      0.5346
    124  NH1       -2.8480   44.5470   15.1920 N.pl3 137  ARG137      0.1354
    125  NH2       -2.3020   44.1450   17.3870 N.pl3 137  ARG137      0.1354
    126  N         -5.1420   32.9210    8.0090 N.3   160  ASN160     -0.1240
    127  CA        -4.1010   33.5400    7.1930 C.3   160  ASN160      0.1653
    128  C         -2.8910   32.6310    7.0290 C.2   160  ASN160      0.2266
    129  O         -2.1600   32.7480    6.0400 O.2   160  ASN160     -0.2867
    130  CB        -3.6700   34.8740    7.7990 C.3   160  ASN160      0.1155
    131  CG        -4.6020   36.0050    7.4260 C.2   160  ASN160      0.2627
    132  OD1       -5.3040   35.9290    6.4170 O.2   160  ASN160     -0.2716
    133  ND2       -4.6110   37.0640    8.2310 N.am  160  ASN160     -0.0877
    134  N         -0.3810   40.6060    3.2500 N.3   177  PHE177     -0.1241
    135  CA        -1.5940   41.2810    3.6910 C.3   177  PHE177      0.1605
    136  C         -2.4670   41.7130    2.5190 C.2   177  PHE177      0.2264
    137  O         -3.6630   41.9590    2.7120 O.2   177  PHE177     -0.2867
    138  CB        -1.2380   42.4840    4.5640 C.3   177  PHE177      0.0534
    139  CG        -0.5480   42.1140    5.8470 C.ar  177  PHE177     -0.0203
    140  CD1       -1.2430   41.4730    6.8620 C.ar  177  PHE177     -0.0042
    141  CD2        0.7920   42.4100    6.0430 C.ar  177  PHE177     -0.0042
    142  CE1       -0.6130   41.1310    8.0460 C.ar  177  PHE177     -0.0003
    143  CE2        1.4260   42.0710    7.2250 C.ar  177  PHE177     -0.0003
    144  CZ         0.7220   41.4310    8.2270 C.ar  177  PHE177     -0.0000
    145  N         -4.5410   38.5340    1.9390 N.3   180  ALA180     -0.1231
    146  CA        -5.6150   38.5070    2.9230 C.3   180  ALA180      0.1694
    147  C         -6.7200   39.4990    2.5940 C.2   180  ALA180      0.2592
    148  O         -7.8570   39.3120    3.0380 O.2   180  ALA180     -0.2718
    149  CB        -5.0560   38.8000    4.3150 C.3   180  ALA180      0.0304
    150  N         -6.4130   40.5540    1.8370 N.am  181  ASP181     -0.1974
    151  CA        -7.4520   41.4920    1.4240 C.3   181  ASP181      0.1709
    152  C         -8.3760   40.8650    0.3890 C.2   181  ASP181      0.2293
    153  O         -9.5900   41.1030    0.4050 O.2   181  ASP181     -0.2864
    154  CB        -6.8180   42.7700    0.8710 C.3   181  ASP181      0.1436
    155  CG        -6.5830   43.8160    1.9410 C.2   181  ASP181      0.3671
    156  OD1       -6.1280   43.4510    3.0450 O.co2 181  ASP181     -0.2456
    157  OD2       -6.8420   45.0090    1.6730 O.co2 181  ASP181     -0.2456
    158  N        -10.7950   37.9570    2.0840 N.3   184  LEU184     -0.1245
    159  CA       -11.9750   38.5830    2.6690 C.3   184  LEU184      0.1561
    160  C        -12.9490   39.0170    1.5850 C.2   184  LEU184      0.2260
    161  O        -14.1660   38.8430    1.7250 O.2   184  LEU184     -0.2867
    162  CB       -11.5590   39.7750    3.5300 C.3   184  LEU184      0.0270
    163  CG       -10.9630   39.4410    4.9000 C.3   184  LEU184      0.0019
    164  CD1      -10.3440   40.6770    5.5330 C.3   184  LEU184      0.0001
    165  CD2      -12.0230   38.8420    5.8130 C.3   184  LEU184      0.0001
@<TRIPOS>BOND
     1   152   153    2
     2   152   151    1
     3    24    23    2
     4   154   151    1
     5   154   155    1
     6   151   150    1
     7   160   161    2
     8   160   159    1
     9    16    15    2
    10   157   155   ar
    11   150   147   am
    12    23    22    1
    13   145   146    1
    14   155   156   ar
    15   158   159    1
    16   136   137    2
    17   136   135    1
    18   147   146    1
    19   147   148    2
    20    22    21    1
    21    22    25    1
    22   159   162    1
    23    15    21   am
    24    15    14    1
    25   146   149    1
    26   134   135    1
    27   162   163    1
    28   135   138    1
    29    14    17    1
    30    14    13    1
    31    19    18    2
    32    17    18    1
    33   138   139    1
    34    18    20   am
    35   163   164    1
    36   163   165    1
    37   139   141   ar
    38   139   140   ar
    39   129   128    2
    40   141   143   ar
    41   132   131    2
    42    12    11    2
    43   140   142   ar
    44   128   127    1
    45    98    96    1
    46   127   130    1
    47   127   126    1
    48   143   144   ar
    49   131   130    1
    50   131   133   am
    51     8     7    2
    52    11    10    1
    53   142   144   ar
    54    10     9    1
    55    96    97    1
    56    96    93    1
    57     7     9   am
    58     7     6    1
    59    93    92    1
    60    93    94    1
    61     4     3    2
    62     6     5    1
    63    60    61    1
    64    61    62    1
    65    94    95    2
    66     3     5   am
    67     3     2    1
    68   113   112   ar
    69    33    31   am
    70    30    31    1
    71    30    27    1
    72   101   102    2
    73   101   100    1
    74    37    36    2
    75   112   114   ar
    76   112   111    1
    77     1     2    1
    78    26    27    1
    79   100    99    1
    80   100   103    1
    81    31    32    2
    82    62    64   am
    83    62    63    2
    84   111   110    1
    85    99   105    1
    86    41    39   ar
    87    27    28    1
    88    64    65    1
    89    36    35    1
    90    38    39    1
    91    38    35    1
    92    39    40   ar
    93   103   104    1
    94   106   107    1
    95    35    34    1
    96   110   107    1
    97    28    29    2
    98   105   104    1
    99    65    68    1
   100    65    66    1
   101   107   108    1
   102    67    66    2
   103    71    70   ar
   104    68    69    1
   105    89    88    1
   106    89    90    1
   107   124   123    1
   108    70    69    1
   109    70    72   ar
   110    87    85    1
   111    88    83   am
   112   108   109    2
   113   122   123    2
   114   122   121    1
   115    90    91    2
   116    86    85    1
   117   123   125    1
   118   120   121    1
   119   120   119    1
   120    73    74    1
   121    85    82    1
   122    83    84    2
   123    83    82    1
   124    74    75    1
   125   119   116    1
   126    82    81    1
   127    43    42    1
   128    43    44    1
   129    81    79   am
   130    75    77   am
   131    75    76    2
   132   118   117    2
   133    77    78    1
   134   117   116    1
   135   116   115    1
   136    44    46   am
   137    44    45    2
   138    79    78    1
   139    79    80    2
   140    46    47    1
   141    50    47    1
   142    47    48    1
   143    51    48   am
   144    51    52    1
   145    55    56    1
   146    55    53   am
   147    59    56    1
   148    56    57    1
   149    48    49    2
   150    52    53    1
   151    53    54    2
   152    57    58    2
