@<TRIPOS>MOLECULE
tmp/5zugC00.pdb
 164 153 0 0 0
SMALL
GASTEIGER

@<TRIPOS>ATOM
      1  N          4.3060   30.7410  -31.7100 N.3     4  ASN4       -0.1240
      2  CA         4.7650   29.4960  -31.1000 C.3     4  ASN4        0.1653
      3  C          4.4590   29.4970  -29.6040 C.2     4  ASN4        0.2266
      4  O          5.0570   30.2900  -28.8560 O.2     4  ASN4       -0.2867
      5  CB         6.2650   29.3280  -31.3510 C.3     4  ASN4        0.1155
      6  CG         6.8090   27.9690  -30.9080 C.2     4  ASN4        0.2627
      7  OD1        6.0580   27.0210  -30.6400 O.2     4  ASN4       -0.2716
      8  ND2        8.1360   27.8770  -30.8160 N.am    4  ASN4       -0.0877
      9  N          5.2480   27.0930  -27.4420 N.3     6  ALA6       -0.1245
     10  CA         6.1720   26.2750  -26.6520 C.3     6  ALA6        0.1562
     11  C          7.0180   27.0800  -25.6760 C.2     6  ALA6        0.2260
     12  O          7.0990   26.6890  -24.4970 O.2     6  ALA6       -0.2867
     13  CB         7.0640   25.4360  -27.5780 C.3     6  ALA6        0.0290
     14  N          7.1180   26.0550  -21.8720 N.3    10  LEU10      -0.1245
     15  CA         8.4270   25.6690  -21.3620 C.3    10  LEU10       0.1561
     16  C          8.8630   26.5830  -20.2240 C.2    10  LEU10       0.2260
     17  O          9.3430   26.1080  -19.1890 O.2    10  LEU10      -0.2867
     18  CB         9.4480   25.7020  -22.4950 C.3    10  LEU10       0.0270
     19  CG         9.4590   24.5220  -23.4580 C.3    10  LEU10       0.0019
     20  CD1       10.1390   24.9080  -24.7700 C.3    10  LEU10       0.0001
     21  CD2       10.2210   23.4000  -22.7890 C.3    10  LEU10       0.0001
     22  N          6.5870   25.8310  -16.9400 N.3    13  PHE13      -0.1241
     23  CA         7.0840   24.6120  -16.3120 C.3    13  PHE13       0.1605
     24  C          8.4990   24.7900  -15.7520 C.2    13  PHE13       0.2264
     25  O          8.7570   24.4960  -14.5820 O.2    13  PHE13      -0.2867
     26  CB         7.0260   23.4760  -17.3260 C.3    13  PHE13       0.0534
     27  CG         7.7930   22.2720  -16.9170 C.ar   13  PHE13      -0.0203
     28  CD1        7.1900   21.2780  -16.1570 C.ar   13  PHE13      -0.0042
     29  CD2        9.1380   22.1380  -17.2810 C.ar   13  PHE13      -0.0042
     30  CE1        7.9100   20.1570  -15.7760 C.ar   13  PHE13      -0.0003
     31  CE2        9.8710   21.0340  -16.8990 C.ar   13  PHE13      -0.0003
     32  CZ         9.2570   20.0320  -16.1470 C.ar   13  PHE13      -0.0000
     33  N          0.8320   27.4540  -18.6190 N.3    46  GLN46      -0.1245
     34  CA         1.1750   26.2890  -19.4320 C.3    46  GLN46       0.1566
     35  C         -0.0600   25.6630  -20.0470 C.2    46  GLN46       0.2260
     36  O         -0.0090   25.1580  -21.1760 O.2    46  GLN46      -0.2867
     37  CB         1.9210   25.2410  -18.6030 C.3    46  GLN46       0.0367
     38  CG         2.5430   24.0750  -19.3980 C.3    46  GLN46       0.0905
     39  CD         3.3460   23.1300  -18.5220 C.2    46  GLN46       0.2608
     40  OE1        4.1720   22.3530  -19.0120 O.2    46  GLN46      -0.2717
     41  NE2        3.1120   23.1950  -17.2200 N.am   46  GLN46      -0.0878
     42  N         -1.3960   24.8390  -28.6780 N.3    53  GLU53      -0.1245
     43  CA        -0.8520   23.8660  -29.6290 C.3    53  GLU53       0.1567
     44  C         -1.9150   23.2360  -30.5390 C.2    53  GLU53       0.2260
     45  O         -1.5580   22.5890  -31.5390 O.2    53  GLU53      -0.2867
     46  CB        -0.0910   22.7720  -28.8830 C.3    53  GLU53       0.0388
     47  CG         1.1870   23.2540  -28.2180 C.3    53  GLU53       0.1160
     48  CD         2.2470   23.7260  -29.2000 C.2    53  GLU53       0.3649
     49  OE1        1.9660   23.7910  -30.4120 O.co2  53  GLU53      -0.2457
     50  OE2        3.3820   24.0230  -28.7660 O.co2  53  GLU53      -0.2457
     51  N          0.0510   20.6490  -33.2860 N.3    58  ASN58      -0.1240
     52  CA         0.9470   19.9360  -32.3660 C.3    58  ASN58       0.1653
     53  C          0.2240   19.1230  -31.2900 C.2    58  ASN58       0.2266
     54  O          0.0250   19.5920  -30.1700 O.2    58  ASN58      -0.2867
     55  CB         1.8950   20.9690  -31.7680 C.3    58  ASN58       0.1155
     56  CG         3.1080   20.3590  -31.0910 C.2    58  ASN58       0.2627
     57  OD1        3.1050   19.1920  -30.6760 O.2    58  ASN58      -0.2716
     58  ND2        4.1860   21.1450  -31.0280 N.am   58  ASN58      -0.0877
     59  N          1.4940   16.4870  -29.7200 N.3    60  PHE60      -0.1227
     60  CA         2.4320   16.2480  -28.6310 C.3    60  PHE60       0.1736
     61  C          2.4190   17.4140  -27.6450 C.2    60  PHE60       0.2596
     62  O          2.2530   17.2170  -26.4340 O.2    60  PHE60      -0.2718
     63  CB         3.8400   16.0160  -29.1850 C.3    60  PHE60       0.0547
     64  CG         4.8700   15.8040  -28.1200 C.ar   60  PHE60      -0.0202
     65  CD1        5.1320   14.5280  -27.6330 C.ar   60  PHE60      -0.0042
     66  CD2        5.5570   16.8880  -27.5740 C.ar   60  PHE60      -0.0042
     67  CE1        6.0690   14.3300  -26.6310 C.ar   60  PHE60      -0.0003
     68  CE2        6.4930   16.7000  -26.5720 C.ar   60  PHE60      -0.0003
     69  CZ         6.7470   15.4170  -26.1000 C.ar   60  PHE60      -0.0000
     70  N          2.6130   18.6380  -28.1530 N.am   61  GLY61      -0.1957
     71  CA         2.5720   19.8150  -27.2940 C.3    61  GLY61       0.1869
     72  C          1.2190   20.0390  -26.6340 C.2    61  GLY61       0.2309
     73  O          1.1500   20.4070  -25.4570 O.2    61  GLY61      -0.2863
     74  N          1.1440   17.2860  -23.8860 N.3    64  ALA64      -0.1231
     75  CA         2.1240   17.4830  -22.8230 C.3    64  ALA64       0.1694
     76  C          1.8390   18.7570  -22.0230 C.2    64  ALA64       0.2592
     77  O          1.4720   18.6610  -20.8500 O.2    64  ALA64      -0.2718
     78  CB         3.5420   17.4720  -23.3960 C.3    64  ALA64       0.0304
     79  N          1.9540   19.9390  -22.6500 N.am   65  PHE65      -0.1976
     80  CA         1.7610   21.2180  -21.9480 C.3    65  PHE65       0.1639
     81  C          0.4490   21.2680  -21.1600 C.2    65  PHE65       0.2290
     82  O          0.3990   21.8060  -20.0470 O.2    65  PHE65      -0.2864
     83  CB         1.7450   22.3770  -22.9430 C.3    65  PHE65       0.0560
     84  CG         3.0790   22.7990  -23.4280 C.ar   65  PHE65      -0.0200
     85  CD1        4.1090   23.0270  -22.5400 C.ar   65  PHE65      -0.0042
     86  CD2        3.2710   23.0820  -24.7560 C.ar   65  PHE65      -0.0042
     87  CE1        5.3400   23.4520  -22.9830 C.ar   65  PHE65      -0.0003
     88  CE2        4.4970   23.5220  -25.2040 C.ar   65  PHE65      -0.0003
     89  CZ         5.5320   23.7050  -24.3130 C.ar   65  PHE65      -0.0000
     90  N          0.7340   18.8490  -17.9950 N.3    68  TYR68      -0.1241
     91  CA         1.6100   19.2730  -16.9010 C.3    68  TYR68       0.1605
     92  C          1.0810   20.5230  -16.1950 C.2    68  TYR68       0.2264
     93  O          1.1970   20.6370  -14.9700 O.2    68  TYR68      -0.2867
     94  CB         3.0230   19.5150  -17.4300 C.3    68  TYR68       0.0534
     95  CG         3.6780   18.2370  -17.8800 C.ar   68  TYR68      -0.0201
     96  CD1        3.7780   17.1490  -17.0270 C.ar   68  TYR68      -0.0009
     97  CD2        4.1150   18.0840  -19.1960 C.ar   68  TYR68      -0.0009
     98  CE1        4.3570   15.9620  -17.4510 C.ar   68  TYR68       0.0417
     99  CE2        4.6850   16.9020  -19.6360 C.ar   68  TYR68       0.0417
    100  CZ         4.8020   15.8380  -18.7590 C.ar   68  TYR68       0.1957
    101  OH         5.3650   14.6540  -19.1930 O.3    68  TYR68      -0.2866
    102  N          8.1760    9.9640  -27.7200 N.3   112  GLY112     -0.1210
    103  CA         7.6150   10.8330  -28.7510 C.3   112  GLY112      0.1956
    104  C          8.5370   11.9510  -29.2090 C.2   112  GLY112      0.2612
    105  O          8.2850   12.5660  -30.2460 O.2   112  GLY112     -0.2717
    106  N          9.5880   12.2390  -28.4580 N.am  113  THR113     -0.1952
    107  CA        10.5060   13.3250  -28.7750 C.3   113  THR113      0.1897
    108  C         11.6780   12.8870  -29.6570 C.2   113  THR113      0.2313
    109  O         12.6010   13.6800  -29.8660 O.2   113  THR113     -0.2863
    110  CB        11.0550   13.9600  -27.4740 C.3   113  THR113      0.1794
    111  OG1       11.8330   13.0010  -26.7410 O.3   113  THR113     -0.2208
    112  CG2        9.9360   14.4600  -26.5630 C.3   113  THR113      0.0378
    113  N         12.3580   14.9490  -32.7570 N.3   116  GLY116     -0.1210
    114  CA        12.4450   16.3590  -32.4400 C.3   116  GLY116      0.1956
    115  C         13.8230   16.7790  -31.9680 C.2   116  GLY116      0.2611
    116  O         14.7820   16.0080  -31.9710 O.2   116  GLY116     -0.2717
    117  N         13.9080   18.0460  -31.5570 N.am  117  ALA117     -0.1979
    118  CA        15.1650   18.6580  -31.1440 C.3   117  ALA117      0.1597
    119  C         15.7890   17.9260  -29.9530 C.2   117  ALA117      0.2287
    120  O         15.1390   17.1490  -29.2520 O.2   117  ALA117     -0.2864
    121  CB        14.9410   20.1300  -30.8040 C.3   117  ALA117      0.0319
    122  N         14.8740   19.1570  -26.1310 N.3   120  LEU120     -0.1245
    123  CA        13.5450   18.6560  -25.7830 C.3   120  LEU120      0.1561
    124  C         13.6130   17.2270  -25.2560 C.2   120  LEU120      0.2260
    125  O         12.8900   16.8660  -24.3160 O.2   120  LEU120     -0.2867
    126  CB        12.6130   18.7300  -26.9990 C.3   120  LEU120      0.0270
    127  CG        11.1330   18.3980  -26.7510 C.3   120  LEU120      0.0019
    128  CD1       10.4540   19.5020  -25.9480 C.3   120  LEU120      0.0001
    129  CD2       10.3630   18.1020  -28.0380 C.3   120  LEU120      0.0001
    130  N         14.8970   17.3470  -21.5010 N.3   123  VAL123     -0.1231
    131  CA        13.9640   17.7680  -20.4590 C.3   123  VAL123      0.1692
    132  C         12.9950   16.6400  -20.1160 C.2   123  VAL123      0.2592
    133  O         12.6300   16.4550  -18.9510 O.2   123  VAL123     -0.2718
    134  CB        13.2450   19.0830  -20.8430 C.3   123  VAL123      0.0266
    135  CG1       14.2550   20.1270  -21.3480 C.3   123  VAL123      0.0020
    136  CG2       12.1400   18.8540  -21.8580 C.3   123  VAL123      0.0020
    137  N         12.5840   15.8460  -21.1070 N.am  124  PHE124     -0.1976
    138  CA        11.6980   14.7200  -20.8060 C.3   124  PHE124      0.1639
    139  C         12.4470   13.5760  -20.1290 C.2   124  PHE124      0.2290
    140  O         11.8520   12.8210  -19.3520 O.2   124  PHE124     -0.2864
    141  CB        10.9910   14.2230  -22.0700 C.3   124  PHE124      0.0560
    142  CG         9.6850   14.9140  -22.3400 C.ar  124  PHE124     -0.0200
    143  CD1        9.6690   16.1560  -22.9690 C.ar  124  PHE124     -0.0042
    144  CD2        8.4860   14.3490  -21.9550 C.ar  124  PHE124     -0.0042
    145  CE1        8.4850   16.8100  -23.2270 C.ar  124  PHE124     -0.0003
    146  CE2        7.2950   15.0070  -22.2050 C.ar  124  PHE124     -0.0003
    147  CZ         7.2950   16.2370  -22.8470 C.ar  124  PHE124     -0.0000
    148  N         12.9150   14.8670  -16.4930 N.3   127  LEU127     -0.1245
    149  CA        11.6200   14.8610  -15.8190 C.3   127  LEU127      0.1561
    150  C         11.2020   13.4350  -15.4640 C.2   127  LEU127      0.2260
    151  O         10.6090   13.2000  -14.4000 O.2   127  LEU127     -0.2867
    152  CB        10.5590   15.5400  -16.6950 C.3   127  LEU127      0.0270
    153  CG         9.1760   15.8480  -16.1010 C.3   127  LEU127      0.0019
    154  CD1        9.3350   16.7730  -14.9220 C.3   127  LEU127      0.0001
    155  CD2        8.2410   16.4510  -17.1300 C.3   127  LEU127      0.0001
    156  N         14.1080   28.5510  -28.6340 N.3   167  GLU167     -0.1245
    157  CA        12.9950   28.6620  -29.5830 C.3   167  GLU167      0.1567
    158  C         12.6470   30.1180  -29.8850 C.2   167  GLU167      0.2260
    159  O         12.3900   30.4720  -31.0390 O.2   167  GLU167     -0.2867
    160  CB        11.7580   27.9200  -29.0700 C.3   167  GLU167      0.0388
    161  CG        11.9070   26.3980  -28.9020 C.3   167  GLU167      0.1160
    162  CD        11.1130   25.5710  -29.9370 C.2   167  GLU167      0.3649
    163  OE1       10.0130   25.0470  -29.6010 O.co2 167  GLU167     -0.2457
    164  OE2       11.5630   25.4780  -31.1070 O.co2 167  GLU167     -0.2457
@<TRIPOS>BOND
     1    51    52    1
     2   113   114    1
     3   114   115    1
     4    52    55    1
     5    52    53    1
     6   116   115    2
     7   115   117   am
     8    55    56    1
     9     1     2    1
    10   117   118    1
    11    45    44    2
    12     5     2    1
    13     5     6    1
    14    53    54    2
    15   118   121    1
    16   118   119    1
    17   164   162   ar
    18     2     3    1
    19    56    58   am
    20    56    57    2
    21   159   158    2
    22     6     8   am
    23     6     7    2
    24    44    43    1
    25    49    48   ar
    26   105   104    2
    27   119   120    2
    28   162   163   ar
    29   162   161    1
    30   158   157    1
    31   109   108    2
    32    59    60    1
    33   108   107    1
    34    43    46    1
    35    43    42    1
    36     3     4    2
    37   157   160    1
    38   157   156    1
    39   104   103    1
    40   104   106   am
    41    48    50   ar
    42    48    47    1
    43    63    60    1
    44    63    64    1
    45   160   161    1
    46    46    47    1
    47   107   106    1
    48   107   110    1
    49   103   102    1
    50    60    61    1
    51    70    61   am
    52    70    71    1
    53    64    65   ar
    54    64    66   ar
    55   129   127    1
    56    61    62    2
    57    65    67   ar
    58    13    10    1
    59    66    68   ar
    60   110   111    1
    61   110   112    1
    62     9    10    1
    63    71    72    1
    64   126   127    1
    65   126   123    1
    66   127   128    1
    67    10    11    1
    68    72    73    2
    69    67    69   ar
    70    68    69   ar
    71   122   123    1
    72   123   124    1
    73    11    12    2
    74   124   125    2
    75    88    86   ar
    76    88    89   ar
    77    20    19    1
    78    86    84   ar
    79    89    87   ar
    80    74    75    1
    81    19    21    1
    82    19    18    1
    83    84    83    1
    84    84    85   ar
    85    78    75    1
    86   145   143   ar
    87   145   147   ar
    88    87    85   ar
    89   143   142   ar
    90    83    80    1
    91   147   146   ar
    92    75    76    1
    93    79    76   am
    94    79    80    1
    95    18    15    1
    96   142   141    1
    97   142   144   ar
    98   146   144   ar
    99   141   138    1
   100    76    77    2
   101    80    81    1
   102    14    15    1
   103   136   134    1
   104   130   131    1
   105    15    16    1
   106   135   134    1
   107    36    35    2
   108    81    82    2
   109   137   138    1
   110   137   132   am
   111   134   131    1
   112   138   139    1
   113   131   132    1
   114    16    17    2
   115   139   140    2
   116   132   133    2
   117    35    34    1
   118    99    97   ar
   119    99   100   ar
   120    34    33    1
   121    34    37    1
   122    38    37    1
   123    38    39    1
   124    97    95   ar
   125   101   100    1
   126    40    39    2
   127   100    98   ar
   128    39    41   am
   129    90    91    1
   130    95    94    1
   131    95    96   ar
   132    98    96   ar
   133    94    91    1
   134    26    27    1
   135    26    23    1
   136    29    27   ar
   137    29    31   ar
   138   155   153    1
   139    22    23    1
   140    27    28   ar
   141    91    92    1
   142    31    32   ar
   143   152   153    1
   144   152   149    1
   145   148   149    1
   146    23    24    1
   147    92    93    2
   148    28    30   ar
   149    32    30   ar
   150   153   154    1
   151   149   150    1
   152    24    25    2
   153   150   151    2
