@<TRIPOS>MOLECULE
tmp/5zunA00.pdb
 231 221 0 0 0
SMALL
GASTEIGER

@<TRIPOS>ATOM
      1  N        -17.6670   22.2460   -4.0020 N.3    44  GLY44      -0.1210
      2  CA       -16.2010   22.2230   -4.0160 C.3    44  GLY44       0.1956
      3  C        -15.5410   23.4720   -4.6050 C.2    44  GLY44       0.2611
      4  O        -16.1670   24.4800   -4.9360 O.2    44  GLY44      -0.2717
      5  N        -14.2280   23.4100   -4.7060 N.am   45  ALA45      -0.1979
      6  CA       -13.4100   24.4950   -5.2140 C.3    45  ALA45       0.1597
      7  C        -13.8260   24.8280   -6.6370 C.2    45  ALA45       0.2287
      8  O        -14.0180   23.9380   -7.4690 O.2    45  ALA45      -0.2864
      9  CB       -11.9550   24.1160   -5.1890 C.3    45  ALA45       0.0319
     10  N        -16.5020   25.9880   -7.8750 N.3    47  GLU47      -0.1245
     11  CA       -17.9040   25.8920   -8.2810 C.3    47  GLU47       0.1567
     12  C        -18.7730   26.6280   -7.2410 C.2    47  GLU47       0.2260
     13  O        -18.3290   27.6330   -6.6780 O.2    47  GLU47      -0.2867
     14  CB       -18.3110   24.4410   -8.5780 C.3    47  GLU47       0.0388
     15  CG       -18.1780   23.4900   -7.3880 C.3    47  GLU47       0.1160
     16  CD       -19.0500   22.2520   -7.3850 C.2    47  GLU47       0.3649
     17  OE1      -19.8390   22.0710   -8.3390 O.co2  47  GLU47      -0.2457
     18  OE2      -18.8710   21.4240   -6.4160 O.co2  47  GLU47      -0.2457
     19  N        -24.8880   24.2710   -8.7310 N.3    51  ARG51      -0.1231
     20  CA       -24.5670   23.0320   -9.4670 C.3    51  ARG51       0.1694
     21  C        -25.3610   21.8500   -8.9250 C.2    51  ARG51       0.2592
     22  O        -25.4460   20.8040   -9.5840 O.2    51  ARG51      -0.2718
     23  CB       -23.0690   22.7410   -9.3940 C.3    51  ARG51       0.0321
     24  CG       -22.1570   23.8380   -9.9340 C.3    51  ARG51       0.0489
     25  CD       -21.3270   23.4470  -11.1420 C.3    51  ARG51       0.2205
     26  NE       -22.2190   23.4060  -12.2750 N.pl3  51  ARG51      -0.0865
     27  CZ       -22.3250   22.4610  -13.2280 C.cat  51  ARG51       0.5346
     28  NH1      -21.6010   21.3610  -13.2810 N.pl3  51  ARG51       0.1354
     29  NH2      -23.1470   22.7120  -14.2390 N.pl3  51  ARG51       0.1354
     30  N        -25.9230   21.9810   -7.7270 N.am   52  TYR52      -0.1976
     31  CA       -26.5330   20.8570   -7.0040 C.3    52  TYR52       0.1639
     32  C        -28.0590   20.9040   -7.0970 C.2    52  TYR52       0.2290
     33  O        -28.7270   20.1810   -6.3560 O.2    52  TYR52      -0.2864
     34  CB       -26.0350   20.8470   -5.5490 C.3    52  TYR52       0.0560
     35  CG       -24.5780   20.5210   -5.5120 C.ar   52  TYR52      -0.0198
     36  CD1      -23.6270   21.4900   -5.7470 C.ar   52  TYR52      -0.0009
     37  CD2      -24.1410   19.2170   -5.4670 C.ar   52  TYR52      -0.0009
     38  CE1      -22.2790   21.2100   -5.8590 C.ar   52  TYR52       0.0417
     39  CE2      -22.8020   18.9120   -5.5610 C.ar   52  TYR52       0.0417
     40  CZ       -21.8700   19.8960   -5.8100 C.ar   52  TYR52       0.1957
     41  OH       -20.5670   19.5040   -5.9720 O.3    52  TYR52      -0.2866
     42  N        -11.5380   32.2840   -5.0670 N.3    82  MET82      -0.1245
     43  CA       -10.8200   31.0420   -4.8670 C.3    82  MET82       0.1570
     44  C         -9.5300   31.3180   -4.0850 C.2    82  MET82       0.2261
     45  O         -8.4390   30.8060   -4.3870 O.2    82  MET82      -0.2867
     46  CB       -10.5770   30.3620   -6.2240 C.3    82  MET82       0.0387
     47  CG       -10.5670   28.8470   -6.1790 C.3    82  MET82       0.0595
     48  SD       -10.9080   28.2640   -7.8860 S.3    82  MET82      -0.1393
     49  CE        -9.2250   28.0450   -8.4680 C.3    82  MET82       0.0692
     50  N        -19.0200   17.2590   -2.0600 N.3   115  HIS115     -0.1226
     51  CA       -18.2590   16.7290   -3.1740 C.3   115  HIS115      0.1752
     52  C        -16.8710   17.3420   -3.1690 C.2   115  HIS115      0.2597
     53  O        -16.7290   18.5700   -3.0340 O.2   115  HIS115     -0.2718
     54  CB       -18.9560   17.0670   -4.5050 C.3   115  HIS115      0.0759
     55  CG       -18.1280   16.8890   -5.7330 C.ar  115  HIS115      0.0818
     56  ND1      -17.5050   15.6790   -6.0810 N.ar  115  HIS115     -0.2268
     57  CD2      -17.8300   17.7600   -6.7280 C.ar  115  HIS115      0.1154
     58  CE1      -16.8730   15.8740   -7.2510 C.ar  115  HIS115      0.1986
     59  NE2      -17.0520   17.1430   -7.6630 N.ar  115  HIS115     -0.2212
     60  N        -15.8470   16.5270   -3.3560 N.am  116  SER116     -0.1938
     61  CA       -14.4970   17.0110   -3.6680 C.3   116  SER116      0.2055
     62  C        -13.9770   17.8640   -2.4990 C.2   116  SER116      0.2642
     63  O        -14.0420   17.4140   -1.3270 O.2   116  SER116     -0.2714
     64  CB       -14.4920   17.6780   -5.0150 C.3   116  SER116      0.2130
     65  OG       -13.1800   17.9090   -5.5100 O.3   116  SER116     -0.2179
     66  N        -13.5280   19.1170   -2.7150 N.am  117  MET117     -0.1976
     67  CA       -13.1620   19.9590   -1.5690 C.3   117  MET117      0.1605
     68  C        -14.3260   20.0880   -0.5760 C.2   117  MET117      0.2287
     69  O        -14.0710   20.1820    0.6340 O.2   117  MET117     -0.2864
     70  CB       -12.7800   21.3510   -2.0400 C.3   117  MET117      0.0413
     71  CG       -12.2760   22.2620   -0.9200 C.3   117  MET117      0.0598
     72  SD       -12.0060   23.9760   -1.4200 S.3   117  MET117     -0.1393
     73  CE       -13.6650   24.6140   -1.3820 C.3   117  MET117      0.0692
     74  N        -12.2360   15.0590   -1.1690 N.3   142  LEU142     -0.1245
     75  CA       -10.7930   15.3040   -1.1930 C.3   142  LEU142      0.1561
     76  C        -10.1680   14.7420    0.0850 C.2   142  LEU142      0.2260
     77  O        -10.1720   15.3720    1.1460 O.2   142  LEU142     -0.2867
     78  CB       -10.5480   16.8170   -1.3060 C.3   142  LEU142      0.0270
     79  CG        -9.0910   17.2700   -1.2070 C.3   142  LEU142      0.0019
     80  CD1       -8.2460   16.6320   -2.3150 C.3   142  LEU142      0.0001
     81  CD2       -9.0420   18.7910   -1.2830 C.3   142  LEU142      0.0001
     82  N          0.0710   26.3970  -11.3740 N.3   170  SER170     -0.1202
     83  CA        -0.0280   25.0460  -11.8750 C.3   170  SER170      0.2020
     84  C         -1.2360   24.8880  -12.8260 C.2   170  SER170      0.2619
     85  O         -1.4530   23.7640  -13.3430 O.2   170  SER170     -0.2717
     86  CB        -0.1210   24.1090  -10.6980 C.3   170  SER170      0.2103
     87  OG        -1.0640   24.6100   -9.7660 O.3   170  SER170     -0.2182
     88  N         -2.0340   25.9550  -13.0200 N.am  171  GLY171     -0.1942
     89  CA        -3.0720   25.9930  -14.0780 C.3   171  GLY171      0.1998
     90  C         -4.4870   25.9750  -13.4870 C.2   171  GLY171      0.2481
     91  O         -4.6600   25.7640  -12.2940 O.2   171  GLY171     -0.2729
     92  N         -5.4930   26.2030  -14.3340 N.am  172  PRO172     -0.2715
     93  CA        -6.8900   26.1970  -13.9270 C.3   172  PRO172      0.1536
     94  C         -7.4330   24.7720  -13.8140 C.2   172  PRO172      0.2598
     95  O         -6.7860   23.8010  -14.1930 O.2   172  PRO172     -0.2715
     96  CB        -7.6100   26.9480  -15.0490 C.3   172  PRO172      0.0310
     97  CG        -6.8390   26.5350  -16.2550 C.3   172  PRO172      0.0237
     98  CD        -5.3920   26.4820  -15.7810 C.3   172  PRO172      0.0939
     99  N         -8.6570   24.6620  -13.3230 N.am  173  ILE173     -0.1978
    100  CA        -9.3860   23.3950  -13.3470 C.3   173  ILE173      0.1596
    101  C         -9.5900   22.9660  -14.7920 C.2   173  ILE173      0.2287
    102  O        -10.0040   23.7850  -15.6110 O.2   173  ILE173     -0.2864
    103  CB       -10.7390   23.5610  -12.6350 C.3   173  ILE173      0.0276
    104  CG1      -10.5250   23.7980  -11.1470 C.3   173  ILE173      0.0022
    105  CG2      -11.6520   22.3700  -12.8960 C.3   173  ILE173      0.0022
    106  CD1      -11.7480   24.2990  -10.4150 C.3   173  ILE173      0.0001
    107  N        -11.9380   20.6930  -16.6600 N.3   175  SER175     -0.1217
    108  CA       -13.1600   19.9380  -16.5060 C.3   175  SER175      0.1889
    109  C        -13.1940   18.7120  -17.4310 C.2   175  SER175      0.2288
    110  O        -13.9360   17.7640  -17.1540 O.2   175  SER175     -0.2866
    111  CB       -14.3720   20.8360  -16.7550 C.3   175  SER175      0.2089
    112  OG       -14.3100   21.3530  -18.0660 O.3   175  SER175     -0.2183
    113  N        -12.5860   15.4740  -15.7930 N.3   178  LEU178     -0.1231
    114  CA       -13.3210   15.2810  -14.5420 C.3   178  LEU178      0.1693
    115  C        -14.7180   14.7220  -14.7890 C.2   178  LEU178      0.2592
    116  O        -15.3850   14.3810  -13.8020 O.2   178  LEU178     -0.2718
    117  CB       -13.3660   16.6140  -13.7750 C.3   178  LEU178      0.0284
    118  CG       -12.0010   17.1870  -13.4280 C.3   178  LEU178      0.0019
    119  CD1      -12.1560   18.5030  -12.6780 C.3   178  LEU178      0.0001
    120  CD2      -11.1530   16.2370  -12.6210 C.3   178  LEU178      0.0001
    121  N        -15.1760   14.6080  -16.0410 N.am  179  SER179     -0.1952
    122  CA       -16.3860   13.8730  -16.3500 C.3   179  SER179      0.1924
    123  C        -16.2410   13.3170  -17.7560 C.2   179  SER179      0.2314
    124  O        -15.7650   14.0390  -18.6300 O.2   179  SER179     -0.2863
    125  CB       -17.6450   14.7130  -16.2830 C.3   179  SER179      0.2116
    126  OG       -18.7880   13.9390  -16.6660 O.3   179  SER179     -0.2180
    127  N        -22.1340   17.6590  -20.0110 N.3   184  GLU184     -0.1231
    128  CA       -21.9210   18.2340  -18.6560 C.3   184  GLU184      0.1699
    129  C        -20.6520   19.0840  -18.6110 C.2   184  GLU184      0.2592
    130  O        -20.6460   20.1190  -17.9510 O.2   184  GLU184     -0.2718
    131  CB       -21.8680   17.1500  -17.5700 C.3   184  GLU184      0.0402
    132  CG       -23.1820   16.4010  -17.4020 C.3   184  GLU184      0.1161
    133  CD       -24.1910   17.0720  -16.5070 C.2   184  GLU184      0.3649
    134  OE1      -24.1780   18.3100  -16.3680 O.co2 184  GLU184     -0.2457
    135  OE2      -25.0130   16.3020  -15.9350 O.co2 184  GLU184     -0.2457
    136  N        -19.5880   18.6850  -19.3050 N.am  185  VAL185     -0.1980
    137  CA       -18.3880   19.4860  -19.3570 C.3   185  VAL185      0.1595
    138  C        -18.7100   20.8750  -19.9620 C.2   185  VAL185      0.2287
    139  O        -18.2790   21.9060  -19.4410 O.2   185  VAL185     -0.2864
    140  CB       -17.2640   18.7570  -20.1210 C.3   185  VAL185      0.0276
    141  CG1      -16.0940   19.6820  -20.4200 C.3   185  VAL185      0.0022
    142  CG2      -16.7820   17.5210  -19.3780 C.3   185  VAL185      0.0022
    143  N        -20.7270   23.0400  -17.5410 N.3   188  TYR188     -0.1241
    144  CA       -19.8760   23.5630  -16.4910 C.3   188  TYR188      0.1605
    145  C        -19.0280   24.7370  -17.0000 C.2   188  TYR188      0.2264
    146  O        -18.9320   25.7800  -16.3540 O.2   188  TYR188     -0.2867
    147  CB       -19.0020   22.4280  -15.9490 C.3   188  TYR188      0.0534
    148  CG       -17.9440   22.9030  -14.9830 C.ar  188  TYR188     -0.0201
    149  CD1      -18.2440   23.1030  -13.6400 C.ar  188  TYR188     -0.0009
    150  CD2      -16.6620   23.2080  -15.4080 C.ar  188  TYR188     -0.0009
    151  CE1      -17.2930   23.5710  -12.7480 C.ar  188  TYR188      0.0417
    152  CE2      -15.6900   23.6460  -14.5330 C.ar  188  TYR188      0.0417
    153  CZ       -16.0060   23.8080  -13.1880 C.ar  188  TYR188      0.1957
    154  OH       -15.0310   24.2470  -12.3320 O.3   188  TYR188     -0.2866
    155  N         -4.9700   28.2370  -10.5610 N.3   199  LEU199     -0.1245
    156  CA        -4.8560   28.0390   -9.0910 C.3   199  LEU199      0.1561
    157  C         -3.8020   28.9820   -8.5080 C.2   199  LEU199      0.2260
    158  O         -2.6780   29.0200   -8.9880 O.2   199  LEU199     -0.2867
    159  CB        -4.4580   26.5920   -8.8220 C.3   199  LEU199      0.0270
    160  CG        -4.2750   26.2490   -7.3340 C.3   199  LEU199      0.0019
    161  CD1       -5.5320   26.4380   -6.5140 C.3   199  LEU199      0.0001
    162  CD2       -3.7320   24.8300   -7.1910 C.3   199  LEU199      0.0001
    163  N         -3.9240   29.4180   -2.2830 N.3   203  PHE203     -0.1241
    164  CA        -5.0770   28.5610   -2.1310 C.3   203  PHE203      0.1605
    165  C         -4.6570   27.0940   -2.2070 C.2   203  PHE203      0.2264
    166  O         -5.1880   26.2600   -1.4620 O.2   203  PHE203     -0.2867
    167  CB        -6.1310   28.8820   -3.1880 C.3   203  PHE203      0.0534
    168  CG        -7.4450   28.2070   -2.9180 C.ar  203  PHE203     -0.0203
    169  CD1       -8.1530   28.5560   -1.7890 C.ar  203  PHE203     -0.0042
    170  CD2       -7.9670   27.2320   -3.7500 C.ar  203  PHE203     -0.0042
    171  CE1       -9.3720   27.9590   -1.5160 C.ar  203  PHE203     -0.0003
    172  CE2       -9.1830   26.6330   -3.4730 C.ar  203  PHE203     -0.0003
    173  CZ        -9.9000   27.0240   -2.3810 C.ar  203  PHE203     -0.0000
    174  N         -5.4170   23.9350    0.3140 N.3   207  LEU207     -0.1245
    175  CA        -5.8850   22.5880   -0.0510 C.3   207  LEU207      0.1561
    176  C         -4.9600   21.5250    0.5390 C.2   207  LEU207      0.2260
    177  O         -5.4270   20.4700    0.9800 O.2   207  LEU207     -0.2867
    178  CB        -6.0000   22.4690   -1.5740 C.3   207  LEU207      0.0270
    179  CG        -7.0710   23.3570   -2.2120 C.3   207  LEU207      0.0019
    180  CD1       -6.9740   23.2440   -3.7200 C.3   207  LEU207      0.0001
    181  CD2       -8.4740   22.9890   -1.7360 C.3   207  LEU207      0.0001
    182  N         -8.3520   13.5640   -9.9290 N.3   235  LEU235     -0.1231
    183  CA        -8.1200   14.6440   -8.9640 C.3   235  LEU235      0.1693
    184  C         -8.0890   14.1410   -7.5210 C.2   235  LEU235      0.2592
    185  O         -7.1190   14.4250   -6.7870 O.2   235  LEU235     -0.2718
    186  CB        -9.2250   15.6750   -9.1750 C.3   235  LEU235      0.0284
    187  CG        -9.1390   16.9520   -8.3490 C.3   235  LEU235      0.0019
    188  CD1       -7.7500   17.6070   -8.4070 C.3   235  LEU235      0.0001
    189  CD2      -10.2010   17.9180   -8.8520 C.3   235  LEU235      0.0001
    190  N         -9.1800   13.5220   -7.0670 N.am  236  CYS236     -0.1970
    191  CA        -9.2470   12.8680   -5.7350 C.3   236  CYS236      0.1712
    192  C         -8.9570   11.3960   -5.9350 C.2   236  CYS236      0.2296
    193  O         -9.8370   10.6480   -6.4180 O.2   236  CYS236     -0.2864
    194  CB       -10.5840   13.1230   -5.0620 C.3   236  CYS236      0.0983
    195  SG       -10.8160   14.8550   -4.6820 S.3   236  CYS236     -0.0798
    196  N        -14.1770   12.0190  -11.8590 N.3   263  HIS263     -0.1226
    197  CA       -14.3600   12.6800  -10.5590 C.3   263  HIS263      0.1752
    198  C        -15.8010   13.0760  -10.2810 C.2   263  HIS263      0.2595
    199  O        -16.2770   12.8940   -9.1470 O.2   263  HIS263     -0.2718
    200  CB       -13.4370   13.9050  -10.5660 C.3   263  HIS263      0.0759
    201  CG       -13.4280   14.6980   -9.2970 C.ar  263  HIS263      0.0818
    202  ND1      -13.1690   14.1310   -8.0850 N.ar  263  HIS263     -0.2268
    203  CD2      -13.5960   16.0330   -9.0810 C.ar  263  HIS263      0.1154
    204  CE1      -13.2080   15.0870   -7.1540 C.ar  263  HIS263      0.1986
    205  NE2      -13.4510   16.2490   -7.7250 N.ar  263  HIS263     -0.2212
    206  N        -16.4800   13.7250  -11.2180 N.am  264  VAL264     -0.1980
    207  CA       -17.7360   14.4140  -10.8970 C.3   264  VAL264      0.1595
    208  C        -18.8990   13.4520  -11.1450 C.2   264  VAL264      0.2287
    209  O        -19.6000   13.4840  -12.1440 O.2   264  VAL264     -0.2864
    210  CB       -17.8920   15.7500  -11.6250 C.3   264  VAL264      0.0276
    211  CG1      -19.0930   16.5080  -11.0770 C.3   264  VAL264      0.0022
    212  CG2      -16.6220   16.5880  -11.4830 C.3   264  VAL264      0.0022
    213  N        -21.8650   12.9560   -9.9610 N.3   266  HIS266     -0.1226
    214  CA       -23.2230   13.4450  -10.1000 C.3   266  HIS266      0.1752
    215  C        -23.4110   14.2360  -11.3900 C.2   266  HIS266      0.2595
    216  O        -24.5210   14.7260  -11.6370 O.2   266  HIS266     -0.2718
    217  CB       -23.6240   14.2570   -8.8710 C.3   266  HIS266      0.0759
    218  CG       -22.7080   15.3890   -8.6020 C.ar  266  HIS266      0.0818
    219  ND1      -21.3920   15.1740   -8.2160 N.ar  266  HIS266     -0.2268
    220  CD2      -22.8750   16.7210   -8.7190 C.ar  266  HIS266      0.1154
    221  CE1      -20.8180   16.3560   -8.0690 C.ar  266  HIS266      0.1986
    222  NE2      -21.6870   17.3290   -8.3980 N.ar  266  HIS266     -0.2212
    223  N        -22.3670   14.3400  -12.2270 N.am  267  LYS267     -0.1980
    224  CA       -22.4510   15.0010  -13.5370 C.3   267  LYS267      0.1596
    225  C        -21.7400   14.1270  -14.5690 C.2   267  LYS267      0.2287
    226  O        -21.0450   14.6580  -15.4580 O.2   267  LYS267     -0.2864
    227  CB       -21.7630   16.3750  -13.5040 C.3   267  LYS267      0.0298
    228  CG       -22.2550   17.3360  -12.4420 C.3   267  LYS267      0.0038
    229  CD       -23.5070   17.9960  -12.7870 C.3   267  LYS267      0.0206
    230  CE       -23.9350   19.0480  -11.7700 C.3   267  LYS267      0.1093
    231  NZ       -25.3580   19.2910  -11.9730 N.3   267  LYS267     -0.1314
@<TRIPOS>BOND
     1   141   140    1
     2   140   142    1
     3   140   137    1
     4   127   128    1
     5   138   139    2
     6   138   137    1
     7   137   136    1
     8   136   129   am
     9   128   129    1
    10   128   131    1
    11   124   123    2
    12   129   130    2
    13   112   111    1
    14   123   122    1
    15   131   132    1
    16   143   144    1
    17   109   110    2
    18   109   108    1
    19   132   133    1
    20   145   144    1
    21   145   146    2
    22   111   108    1
    23   126   125    1
    24   107   108    1
    25   133   134   ar
    26   133   135   ar
    27   144   147    1
    28   122   125    1
    29   122   121    1
    30    97    98    1
    31    97    96    1
    32   121   115   am
    33   147   148    1
    34   113   114    1
    35    98    92    1
    36   102   101    2
    37   226   225    2
    38   150   148   ar
    39   150   152   ar
    40    96    93    1
    41   148   149   ar
    42   101   100    1
    43   115   114    1
    44   115   116    2
    45   225   224    1
    46   114   117    1
    47   152   153   ar
    48    92    93    1
    49    92    90   am
    50    29    27    1
    51    95    94    2
    52    89    90    1
    53    89    88    1
    54    93    94    1
    55    94    99   am
    56   117   118    1
    57   149   151   ar
    58   224   227    1
    59   224   223    1
    60   227   228    1
    61    90    91    2
    62   118   119    1
    63   118   120    1
    64   100    99    1
    65   100   103    1
    66    85    84    2
    67    28    27    1
    68    27    26    2
    69   153   151   ar
    70   153   154    1
    71    88    84   am
    72   105   103    1
    73    84    83    1
    74   229   228    1
    75   229   230    1
    76   103   104    1
    77    26    25    1
    78   223   215   am
    79   209   208    2
    80   231   230    1
    81    83    82    1
    82    83    86    1
    83   196   197    1
    84   216   215    2
    85   210   212    1
    86   210   211    1
    87   210   207    1
    88   215   214    1
    89   206   207    1
    90   206   198   am
    91   104   106    1
    92   208   207    1
    93    25    24    1
    94    86    87    1
    95   200   197    1
    96   200   201    1
    97   155   156    1
    98   197   198    1
    99   198   199    2
   100   214   213    1
   101   214   217    1
   102    24    23    1
   103   182   183    1
   104    22    21    2
   105    20    23    1
   106    20    21    1
   107    20    19    1
   108   201   203   ar
   109   201   202   ar
   110   186   183    1
   111   186   187    1
   112   156   159    1
   113   156   157    1
   114   203   205   ar
   115   158   157    2
   116   183   184    1
   117    21    30   am
   118   217   218    1
   119   189   187    1
   120   159   160    1
   121   220   218   ar
   122   220   222   ar
   123   218   219   ar
   124    14    11    1
   125    14    15    1
   126    49    48    1
   127   188   187    1
   128   222   221   ar
   129    17    16   ar
   130    11    10    1
   131    11    12    1
   132   219   221   ar
   133   202   204   ar
   134    48    47    1
   135    30    31    1
   136   205   204   ar
   137    59    58   ar
   138    59    57   ar
   139   184   190   am
   140   184   185    2
   141     8     7    2
   142    15    16    1
   143    16    18   ar
   144   160   162    1
   145   160   161    1
   146    58    56   ar
   147    12    13    2
   148    32    31    1
   149    32    33    2
   150   190   191    1
   151    31    34    1
   152    57    55   ar
   153     7     6    1
   154   193   192    2
   155    46    47    1
   156    46    43    1
   157    56    55   ar
   158    41    40    1
   159   192   191    1
   160    38    40   ar
   161    38    36   ar
   162    40    39   ar
   163    36    35   ar
   164   191   194    1
   165    55    54    1
   166    39    37   ar
   167    34    35    1
   168    35    37   ar
   169    65    64    1
   170     6     9    1
   171     6     5    1
   172    42    43    1
   173   194   195    1
   174    64    61    1
   175     4     3    2
   176    43    44    1
   177     5     3   am
   178     3     2    1
   179    54    51    1
   180    45    44    2
   181     2     1    1
   182   170   172   ar
   183   170   168   ar
   184   180   179    1
   185    61    60    1
   186    61    62    1
   187   172   173   ar
   188    60    52   am
   189   167   168    1
   190   167   164    1
   191    51    52    1
   192    51    50    1
   193    52    53    2
   194   168   169   ar
   195    66    62   am
   196    66    67    1
   197    62    63    2
   198   173   171   ar
   199    80    79    1
   200   163   164    1
   201   179   181    1
   202   179   178    1
   203   165   164    1
   204   165   166    2
   205    70    67    1
   206    70    71    1
   207   169   171   ar
   208   178   175    1
   209    67    68    1
   210    72    73    1
   211    72    71    1
   212    78    79    1
   213    78    75    1
   214    81    79    1
   215    75    74    1
   216    75    76    1
   217    68    69    2
   218   175   174    1
   219   175   176    1
   220    76    77    2
   221   176   177    2
