@<TRIPOS>MOLECULE
tmp/5zunA01.pdb
 129 120 0 0 0
SMALL
GASTEIGER

@<TRIPOS>ATOM
      1  N        -12.2360   15.0590   -1.1690 N.3   142  LEU142     -0.1245
      2  CA       -10.7930   15.3040   -1.1930 C.3   142  LEU142      0.1561
      3  C        -10.1680   14.7420    0.0850 C.2   142  LEU142      0.2260
      4  O        -10.1720   15.3720    1.1460 O.2   142  LEU142     -0.2867
      5  CB       -10.5480   16.8170   -1.3060 C.3   142  LEU142      0.0270
      6  CG        -9.0910   17.2700   -1.2070 C.3   142  LEU142      0.0019
      7  CD1       -8.2460   16.6320   -2.3150 C.3   142  LEU142      0.0001
      8  CD2       -9.0420   18.7910   -1.2830 C.3   142  LEU142      0.0001
      9  N         -5.0570   13.7000   -2.7500 N.3   145  ALA145     -0.1245
     10  CA        -4.9920   14.2330   -4.0910 C.3   145  ALA145      0.1562
     11  C         -4.1940   13.2860   -4.9890 C.2   145  ALA145      0.2260
     12  O         -3.3710   12.5260   -4.5130 O.2   145  ALA145     -0.2867
     13  CB        -4.3680   15.6000   -4.0680 C.3   145  ALA145      0.0290
     14  N         -0.0370   15.2730   -9.3070 N.3   149  SER149     -0.1202
     15  CA        -0.5130   16.6430   -9.2630 C.3   149  SER149      0.2020
     16  C         -0.0920   17.3260   -7.9630 C.2   149  SER149      0.2618
     17  O          0.3300   18.5070   -7.9900 O.2   149  SER149     -0.2717
     18  CB        -2.0290   16.7400   -9.4210 C.3   149  SER149      0.2103
     19  OG        -2.4280   16.1900  -10.6650 O.3   149  SER149     -0.2182
     20  N         -0.2110   16.6250   -6.8420 N.am  150  ALA150     -0.1979
     21  CA         0.1170   17.2090   -5.5450 C.3   150  ALA150      0.1597
     22  C          1.6110   17.5080   -5.4640 C.2   150  ALA150      0.2287
     23  O          2.0350   18.5570   -4.9710 O.2   150  ALA150     -0.2864
     24  CB        -0.3160   16.2940   -4.4140 C.3   150  ALA150      0.0319
     25  N          2.4700   20.4920   -7.5510 N.3   153  PHE153     -0.1241
     26  CA         2.0670   21.7240   -6.8790 C.3   153  PHE153      0.1605
     27  C          3.0560   22.0760   -5.7630 C.2   153  PHE153      0.2264
     28  O          3.4390   23.2220   -5.6070 O.2   153  PHE153     -0.2867
     29  CB         0.6450   21.6460   -6.3280 C.3   153  PHE153      0.0534
     30  CG         0.3290   22.9090   -5.5700 C.ar  153  PHE153     -0.0203
     31  CD1        0.1040   24.0910   -6.2460 C.ar  153  PHE153     -0.0042
     32  CD2        0.4020   22.9340   -4.1860 C.ar  153  PHE153     -0.0042
     33  CE1       -0.0760   25.2760   -5.5510 C.ar  153  PHE153     -0.0003
     34  CE2        0.2490   24.1260   -3.4930 C.ar  153  PHE153     -0.0003
     35  CZ        -0.0080   25.2870   -4.1760 C.ar  153  PHE153     -0.0000
     36  N          0.0710   26.3970  -11.3740 N.3   170  SER170     -0.1202
     37  CA        -0.0280   25.0460  -11.8750 C.3   170  SER170      0.2020
     38  C         -1.2360   24.8880  -12.8260 C.2   170  SER170      0.2619
     39  O         -1.4530   23.7640  -13.3430 O.2   170  SER170     -0.2717
     40  CB        -0.1210   24.1090  -10.6980 C.3   170  SER170      0.2103
     41  OG        -1.0640   24.6100   -9.7660 O.3   170  SER170     -0.2182
     42  N         -2.0340   25.9550  -13.0200 N.am  171  GLY171     -0.1942
     43  CA        -3.0720   25.9930  -14.0780 C.3   171  GLY171      0.1998
     44  C         -4.4870   25.9750  -13.4870 C.2   171  GLY171      0.2481
     45  O         -4.6600   25.7640  -12.2940 O.2   171  GLY171     -0.2729
     46  N         -5.4930   26.2030  -14.3340 N.am  172  PRO172     -0.2715
     47  CA        -6.8900   26.1970  -13.9270 C.3   172  PRO172      0.1536
     48  C         -7.4330   24.7720  -13.8140 C.2   172  PRO172      0.2598
     49  O         -6.7860   23.8010  -14.1930 O.2   172  PRO172     -0.2715
     50  CB        -7.6100   26.9480  -15.0490 C.3   172  PRO172      0.0310
     51  CG        -6.8390   26.5350  -16.2550 C.3   172  PRO172      0.0237
     52  CD        -5.3920   26.4820  -15.7810 C.3   172  PRO172      0.0939
     53  N         -8.6570   24.6620  -13.3230 N.am  173  ILE173     -0.1964
     54  CA        -9.3860   23.3950  -13.3470 C.3   173  ILE173      0.1727
     55  C         -9.5900   22.9660  -14.7920 C.2   173  ILE173      0.2616
     56  O        -10.0040   23.7850  -15.6110 O.2   173  ILE173     -0.2715
     57  CB       -10.7390   23.5610  -12.6350 C.3   173  ILE173      0.0290
     58  CG1      -10.5250   23.7980  -11.1470 C.3   173  ILE173      0.0022
     59  CG2      -11.6520   22.3700  -12.8960 C.3   173  ILE173      0.0023
     60  CD1      -11.7480   24.2990  -10.4150 C.3   173  ILE173      0.0001
     61  N         -9.3010   21.7030  -15.0820 N.am  174  ASP174     -0.1971
     62  CA        -9.5540   21.1460  -16.4150 C.3   174  ASP174      0.1709
     63  C        -10.7480   20.2000  -16.3180 C.2   174  ASP174      0.2293
     64  O        -10.6030   19.0370  -15.9500 O.2   174  ASP174     -0.2864
     65  CB        -8.3370   20.3920  -16.9390 C.3   174  ASP174      0.1436
     66  CG        -8.5540   19.7570  -18.2990 C.2   174  ASP174      0.3671
     67  OD1       -9.6810   19.8470  -18.8670 O.co2 174  ASP174     -0.2456
     68  OD2       -7.5670   19.1650  -18.8110 O.co2 174  ASP174     -0.2456
     69  N        -11.2420   16.3610  -17.9550 N.3   177  VAL177     -0.1245
     70  CA       -10.7340   15.1190  -17.3810 C.3   177  VAL177      0.1561
     71  C        -11.4790   14.7700  -16.0900 C.2   177  VAL177      0.2260
     72  O        -11.0670   13.8450  -15.3840 O.2   177  VAL177     -0.2867
     73  CB        -9.2200   15.1920  -17.1440 C.3   177  VAL177      0.0252
     74  CG1       -8.4870   15.4120  -18.4690 C.3   177  VAL177      0.0019
     75  CG2       -8.8090   16.2150  -16.0890 C.3   177  VAL177      0.0019
     76  N         -4.9700   28.2370  -10.5610 N.3   199  LEU199     -0.1245
     77  CA        -4.8560   28.0390   -9.0910 C.3   199  LEU199      0.1561
     78  C         -3.8020   28.9820   -8.5080 C.2   199  LEU199      0.2260
     79  O         -2.6780   29.0200   -8.9880 O.2   199  LEU199     -0.2867
     80  CB        -4.4580   26.5920   -8.8220 C.3   199  LEU199      0.0270
     81  CG        -4.2750   26.2490   -7.3340 C.3   199  LEU199      0.0019
     82  CD1       -5.5320   26.4380   -6.5140 C.3   199  LEU199      0.0001
     83  CD2       -3.7320   24.8300   -7.1910 C.3   199  LEU199      0.0001
     84  N         -3.7510   26.7660   -3.1210 N.3   204  GLY204     -0.1225
     85  CA        -3.2400   25.4000   -3.1510 C.3   204  GLY204      0.1811
     86  C         -2.6290   24.9790   -1.8220 C.2   204  GLY204      0.2280
     87  O         -2.8000   23.8140   -1.4010 O.2   204  GLY204     -0.2866
     88  N         -5.4170   23.9350    0.3140 N.3   207  LEU207     -0.1231
     89  CA        -5.8850   22.5880   -0.0510 C.3   207  LEU207      0.1693
     90  C         -4.9600   21.5250    0.5390 C.2   207  LEU207      0.2591
     91  O         -5.4270   20.4700    0.9800 O.2   207  LEU207     -0.2718
     92  CB        -6.0000   22.4690   -1.5740 C.3   207  LEU207      0.0284
     93  CG        -7.0710   23.3570   -2.2120 C.3   207  LEU207      0.0019
     94  CD1       -6.9740   23.2440   -3.7200 C.3   207  LEU207      0.0001
     95  CD2       -8.4740   22.9890   -1.7360 C.3   207  LEU207      0.0001
     96  N         -3.6690   21.7860    0.5440 N.am  208  LEU208     -0.1980
     97  CA        -2.7300   20.8630    1.1980 C.3   208  LEU208      0.1596
     98  C         -3.0290   20.8040    2.6980 C.2   208  LEU208      0.2287
     99  O         -2.9890   19.7270    3.2980 O.2   208  LEU208     -0.2864
    100  CB        -1.2880   21.3230    0.9690 C.3   208  LEU208      0.0297
    101  CG        -0.7290   21.2410   -0.4480 C.3   208  LEU208      0.0022
    102  CD1        0.6440   21.8770   -0.4640 C.3   208  LEU208      0.0001
    103  CD2       -0.6700   19.8120   -0.9380 C.3   208  LEU208      0.0001
    104  N         -6.0360   18.5010    3.2360 N.3   211  VAL211     -0.1245
    105  CA        -5.7250   17.0810    3.1630 C.3   211  VAL211      0.1561
    106  C         -5.0140   16.6410    4.4560 C.2   211  VAL211      0.2260
    107  O         -5.3180   15.5590    5.0040 O.2   211  VAL211     -0.2867
    108  CB        -4.8820   16.7870    1.9070 C.3   211  VAL211      0.0252
    109  CG1       -4.1660   15.4460    1.9530 C.3   211  VAL211      0.0019
    110  CG2       -5.7400   16.9270    0.6650 C.3   211  VAL211      0.0019
    111  N         -9.0940   11.5820  -11.6530 N.3   234  ARG234     -0.1231
    112  CA        -7.8070   12.2210  -11.9230 C.3   234  ARG234      0.1694
    113  C         -7.4560   13.2490  -10.8490 C.2   234  ARG234      0.2591
    114  O         -6.3350   13.7840  -10.8820 O.2   234  ARG234     -0.2718
    115  CB        -7.8940   12.8810  -13.3090 C.3   234  ARG234      0.0321
    116  CG        -6.7820   13.8400  -13.7060 C.3   234  ARG234      0.0489
    117  CD        -5.6780   13.2270  -14.5250 C.3   234  ARG234      0.2205
    118  NE        -6.1670   12.6160  -15.7530 N.pl3 234  ARG234     -0.0865
    119  CZ        -5.9790   13.0940  -16.9890 C.cat 234  ARG234      0.5346
    120  NH1       -5.3080   14.2280  -17.1780 N.pl3 234  ARG234      0.1354
    121  NH2       -6.4670   12.4230  -18.0250 N.pl3 234  ARG234      0.1354
    122  N         -8.3520   13.5640   -9.9290 N.am  235  LEU235     -0.1980
    123  CA        -8.1200   14.6440   -8.9640 C.3   235  LEU235      0.1596
    124  C         -8.0890   14.1410   -7.5210 C.2   235  LEU235      0.2287
    125  O         -7.1190   14.4250   -6.7870 O.2   235  LEU235     -0.2864
    126  CB        -9.2250   15.6750   -9.1750 C.3   235  LEU235      0.0297
    127  CG        -9.1390   16.9520   -8.3490 C.3   235  LEU235      0.0022
    128  CD1       -7.7500   17.6070   -8.4070 C.3   235  LEU235      0.0001
    129  CD2      -10.2010   17.9180   -8.8520 C.3   235  LEU235      0.0001
@<TRIPOS>BOND
     1    67    66   ar
     2    68    66   ar
     3    74    73    1
     4    66    65    1
     5   121   119    1
     6    69    70    1
     7    70    73    1
     8    70    71    1
     9   120   119    1
    10    73    75    1
    11   119   118    2
    12    65    62    1
    13    62    63    1
    14    62    61    1
    15    63    64    2
    16    51    52    1
    17    51    50    1
    18    71    72    2
    19    52    46    1
    20   118   117    1
    21    56    55    2
    22    61    55   am
    23    50    47    1
    24    55    54    1
    25   117   116    1
    26    46    47    1
    27    46    44   am
    28    49    48    2
    29    43    44    1
    30    43    42    1
    31    47    48    1
    32    48    53   am
    33   116   115    1
    34    44    45    2
    35    54    53    1
    36    54    57    1
    37    39    38    2
    38   115   112    1
    39    42    38   am
    40    59    57    1
    41    38    37    1
    42    57    58    1
    43   112   111    1
    44   112   113    1
    45    37    36    1
    46    37    40    1
    47    58    60    1
    48   114   113    2
    49   113   122   am
    50    40    41    1
    51    19    18    1
    52    76    77    1
    53   122   123    1
    54    18    15    1
    55    14    15    1
    56    15    16    1
    57   126   123    1
    58   126   127    1
    59    77    80    1
    60    77    78    1
    61    79    78    2
    62   123   124    1
    63   129   127    1
    64    80    81    1
    65   128   127    1
    66    17    16    2
    67    16    20   am
    68    25    26    1
    69   124   125    2
    70    81    83    1
    71    81    82    1
    72    26    29    1
    73    26    27    1
    74    20    21    1
    75    29    30    1
    76    31    30   ar
    77    31    33   ar
    78    27    28    2
    79    30    32   ar
    80    33    35   ar
    81    21    22    1
    82    21    24    1
    83    22    23    2
    84    11    12    2
    85    11    10    1
    86    32    34   ar
    87    35    34   ar
    88    10    13    1
    89    10     9    1
    90    94    93    1
    91    85    84    1
    92    85    86    1
    93     7     6    1
    94    93    95    1
    95    93    92    1
    96    86    87    2
    97    92    89    1
    98     5     6    1
    99     5     2    1
   100     8     6    1
   101     2     1    1
   102     2     3    1
   103   103   101    1
   104   102   101    1
   105   101   100    1
   106    89    88    1
   107    89    90    1
   108     3     4    2
   109    90    96   am
   110    90    91    2
   111    96    97    1
   112   110   108    1
   113   100    97    1
   114    97    98    1
   115   108   109    1
   116   108   105    1
   117    98    99    2
   118   105   104    1
   119   105   106    1
   120   106   107    2
