@<TRIPOS>MOLECULE
tmp/5zurB01.pdb
 112 104 0 0 0
SMALL
GASTEIGER

@<TRIPOS>ATOM
      1  N         44.9270   72.5170   36.9780 N.3    19  LEU19      -0.1245
      2  CA        44.6610   73.9690   36.9590 C.3    19  LEU19       0.1561
      3  C         45.2010   74.5520   38.2720 C.2    19  LEU19       0.2260
      4  O         45.7770   75.6590   38.2680 O.2    19  LEU19      -0.2867
      5  CB        43.1560   74.2570   36.8080 C.3    19  LEU19       0.0270
      6  CG        42.5740   73.8900   35.4320 C.3    19  LEU19       0.0019
      7  CD1       41.0680   74.0190   35.4580 C.3    19  LEU19       0.0001
      8  CD2       43.1500   74.7300   34.2670 C.3    19  LEU19       0.0001
      9  N         49.0010   74.6850   37.7550 N.3    22  ILE22      -0.1231
     10  CA        49.4410   75.7780   36.8960 C.3    22  ILE22       0.1692
     11  C         49.5830   77.0670   37.7320 C.2    22  ILE22       0.2592
     12  O         50.6050   77.7630   37.6380 O.2    22  ILE22      -0.2718
     13  CB        48.4260   76.0340   35.7720 C.3    22  ILE22       0.0266
     14  CG1       48.3860   74.8750   34.7740 C.3    22  ILE22       0.0019
     15  CG2       48.6880   77.3790   35.0550 C.3    22  ILE22       0.0020
     16  CD1       47.0910   74.9050   33.9670 C.3    22  ILE22       0.0001
     17  N         48.5360   77.3980   38.4630 N.am   23  ASN23      -0.1974
     18  CA        48.4640   78.6740   39.1950 C.3    23  ASN23       0.1688
     19  C         49.4570   78.6990   40.3790 C.2    23  ASN23       0.2292
     20  O         50.1580   79.7130   40.6070 O.2    23  ASN23      -0.2864
     21  CB        47.0370   78.9190   39.6970 C.3    23  ASN23       0.1181
     22  CG        46.1150   79.3420   38.5680 C.2    23  ASN23       0.2629
     23  OD1       46.4250   79.0670   37.4110 O.2    23  ASN23      -0.2716
     24  ND2       44.9850   79.9890   38.8860 N.am   23  ASN23      -0.0877
     25  N         52.9160   78.9520   38.7930 N.3    26  PHE26      -0.1241
     26  CA        53.1510   80.2460   38.1440 C.3    26  PHE26       0.1605
     27  C         53.4230   81.2930   39.2320 C.2    26  PHE26       0.2264
     28  O         54.3680   82.1250   39.1110 O.2    26  PHE26      -0.2867
     29  CB        51.9940   80.6430   37.2070 C.3    26  PHE26       0.0534
     30  CG        52.4690   81.6350   36.1710 C.ar   26  PHE26      -0.0203
     31  CD1       52.5220   82.9980   36.4630 C.ar   26  PHE26      -0.0042
     32  CD2       52.9540   81.1920   34.9510 C.ar   26  PHE26      -0.0042
     33  CE1       53.0550   83.9160   35.5610 C.ar   26  PHE26      -0.0003
     34  CE2       53.4860   82.1020   34.0300 C.ar   26  PHE26      -0.0003
     35  CZ        53.5540   83.4610   34.3450 C.ar   26  PHE26      -0.0000
     36  N         56.9450   83.4610   39.7380 N.3    30  ARG30      -0.1241
     37  CA        57.0710   84.9160   39.7630 C.3    30  ARG30       0.1606
     38  C         57.5240   85.3920   41.1540 C.2    30  ARG30       0.2264
     39  O         58.1970   86.4310   41.2710 O.2    30  ARG30      -0.2867
     40  CB        55.7970   85.6080   39.2680 C.3    30  ARG30       0.0562
     41  CG        55.5230   85.4450   37.7710 C.2    30  ARG30       0.0159
     42  CD        56.7490   85.2810   36.8540 C.2    30  ARG30       0.1886
     43  NE        56.5470   85.1700   35.3910 N.pl3  30  ARG30      -0.0578
     44  CZ        57.3470   84.5310   34.5250 C.cat  30  ARG30       0.5393
     45  NH1       58.3830   83.8350   34.9800 N.pl3  30  ARG30       0.1358
     46  NH2       57.1170   84.6050   33.2130 N.pl3  30  ARG30       0.1358
     47  N         58.7780   78.0100   36.5770 N.3    45  TYR45      -0.1241
     48  CA        57.9670   78.5190   35.4390 C.3    45  TYR45       0.1605
     49  C         57.7590   77.3790   34.4310 C.2    45  TYR45       0.2264
     50  O         56.6390   77.2030   33.8960 O.2    45  TYR45      -0.2867
     51  CB        58.6610   79.7140   34.7770 C.3    45  TYR45       0.0534
     52  CG        58.1280   80.0770   33.4070 C.ar   45  TYR45      -0.0201
     53  CD1       56.9830   80.8530   33.2900 C.ar   45  TYR45      -0.0009
     54  CD2       58.7470   79.6710   32.2330 C.ar   45  TYR45      -0.0009
     55  CE1       56.4820   81.2110   32.0440 C.ar   45  TYR45       0.0417
     56  CE2       58.2420   80.0000   30.9680 C.ar   45  TYR45       0.0417
     57  CZ        57.0990   80.7790   30.8870 C.ar   45  TYR45       0.1957
     58  OH        56.5590   81.1800   29.6960 O.3    45  TYR45      -0.2866
     59  N         54.3380   75.6060   32.9160 N.3    49  ILE49      -0.1245
     60  CA        54.0880   75.3530   31.4910 C.3    49  ILE49       0.1561
     61  C         53.7850   73.8600   31.3000 C.2    49  ILE49       0.2260
     62  O         52.8950   73.5240   30.5030 O.2    49  ILE49      -0.2867
     63  CB        55.2910   75.7690   30.6120 C.3    49  ILE49       0.0252
     64  CG1       55.6010   77.2760   30.6800 C.3    49  ILE49       0.0019
     65  CG2       55.1300   75.2720   29.1690 C.3    49  ILE49       0.0019
     66  CD1       54.5060   78.1650   30.1040 C.3    49  ILE49       0.0001
     67  N         50.2690   73.3250   32.1340 N.3    52  MET52      -0.1230
     68  CA        49.3390   73.8190   31.1150 C.3    52  MET52       0.1702
     69  C         49.1980   72.7670   29.9910 C.2    52  MET52       0.2592
     70  O         48.1160   72.5650   29.4370 O.2    52  MET52      -0.2718
     71  CB        49.8900   75.1390   30.5390 C.3    52  MET52       0.0401
     72  CG        49.8420   76.2890   31.5650 C.3    52  MET52       0.0596
     73  SD        50.8240   77.6800   30.8810 S.3    52  MET52      -0.1393
     74  CE        51.3220   78.4850   32.4100 C.3    52  MET52       0.0692
     75  N         50.3070   72.0800   29.6540 N.am   53  LYS53      -0.1980
     76  CA        50.2660   71.0560   28.6030 C.3    53  LYS53       0.1596
     77  C         49.4310   69.8600   29.0540 C.2    53  LYS53       0.2287
     78  O         48.6590   69.3240   28.2420 O.2    53  LYS53      -0.2864
     79  CB        51.6830   70.6510   28.1950 C.3    53  LYS53       0.0298
     80  CG        52.3780   71.7300   27.3760 C.3    53  LYS53       0.0038
     81  CD        53.8680   71.4630   27.2050 C.3    53  LYS53       0.0206
     82  CE        54.4560   72.3980   26.1680 C.3    53  LYS53       0.1093
     83  NZ        55.9290   72.2710   26.0530 N.3    53  LYS53      -0.1314
     84  N         47.0120   70.0210   31.2690 N.3    55  ALA55      -0.1231
     85  CA        45.5860   70.4880   31.2350 C.3    55  ALA55       0.1694
     86  C         45.0460   70.4060   29.7910 C.2    55  ALA55       0.2592
     87  O         43.9130   69.9870   29.5340 O.2    55  ALA55      -0.2718
     88  CB        45.4330   71.8990   31.8370 C.3    55  ALA55       0.0304
     89  N         45.8250   70.8830   28.8290 N.am   56  ASP56      -0.1974
     90  CA        45.4150   70.9080   27.4220 C.3    56  ASP56       0.1709
     91  C         45.0610   69.4850   26.9530 C.2    56  ASP56       0.2293
     92  O         44.0200   69.2910   26.3540 O.2    56  ASP56      -0.2864
     93  CB        46.5190   71.5620   26.5670 C.3    56  ASP56       0.1436
     94  CG        46.1560   71.7710   25.1010 C.2    56  ASP56       0.3671
     95  OD1       44.9790   71.7820   24.7520 O.co2  56  ASP56      -0.2456
     96  OD2       47.0740   72.0280   24.3230 O.co2  56  ASP56      -0.2456
     97  N         41.7380   68.3660   28.5260 N.3    59  ILE59      -0.1245
     98  CA        40.5880   69.0790   27.9160 C.3    59  ILE59       0.1561
     99  C         40.2780   68.4250   26.5710 C.2    59  ILE59       0.2260
    100  O         39.0960   68.2130   26.2840 O.2    59  ILE59      -0.2867
    101  CB        40.9010   70.5890   27.7570 C.3    59  ILE59       0.0252
    102  CG1       40.9510   71.2530   29.1470 C.3    59  ILE59       0.0019
    103  CG2       39.9080   71.2800   26.7830 C.3    59  ILE59       0.0019
    104  CD1       41.6550   72.6260   29.1300 C.3    59  ILE59       0.0001
    105  N         36.6980   74.1360   33.7260 N.3    71  LEU71      -0.1245
    106  CA        37.7620   75.1130   33.9940 C.3    71  LEU71       0.1561
    107  C         37.3200   76.1030   35.0820 C.2    71  LEU71       0.2260
    108  O         38.0400   77.0850   35.3230 O.2    71  LEU71      -0.2867
    109  CB        38.1650   75.8280   32.6900 C.3    71  LEU71       0.0270
    110  CG        39.1530   75.0300   31.8170 C.3    71  LEU71       0.0019
    111  CD1       38.3880   74.0070   30.9700 C.3    71  LEU71       0.0001
    112  CD2       39.9550   75.9590   30.8970 C.3    71  LEU71       0.0001
@<TRIPOS>BOND
     1    96    94   ar
     2    95    94   ar
     3    94    93    1
     4    83    82    1
     5    82    81    1
     6   100    99    2
     7    92    91    2
     8    93    90    1
     9    99    98    1
    10   103   101    1
    11    91    90    1
    12    81    80    1
    13    80    79    1
    14    90    89    1
    15   101    98    1
    16   101   102    1
    17    98    97    1
    18    79    76    1
    19    78    77    2
    20    76    77    1
    21    76    75    1
    22    89    86   am
    23   104   102    1
    24    65    63    1
    25    70    69    2
    26    87    86    2
    27    75    69   am
    28    58    57    1
    29    86    85    1
    30    69    68    1
    31    66    64    1
    32    62    61    2
    33    71    68    1
    34    71    72    1
    35    63    64    1
    36    63    60    1
    37    73    72    1
    38    73    74    1
    39    57    56   ar
    40    57    55   ar
    41   112   110    1
    42    56    54   ar
    43   111   110    1
    44    68    67    1
    45    85    84    1
    46    85    88    1
    47    61    60    1
    48    60    59    1
    49   110   109    1
    50    55    53   ar
    51    54    52   ar
    52   109   106    1
    53    46    44    1
    54    53    52   ar
    55    52    51    1
    56   105   106    1
    57    50    49    2
    58    16    14    1
    59   106   107    1
    60    34    35   ar
    61    34    32   ar
    62     8     6    1
    63    35    33   ar
    64    49    48    1
    65    44    45    1
    66    44    43    2
    67    14    13    1
    68    51    48    1
    69    32    30   ar
    70    15    13    1
    71   107   108    2
    72    43    42    1
    73     6     7    1
    74     6     5    1
    75    48    47    1
    76    33    31   ar
    77    13    10    1
    78    30    31   ar
    79    30    29    1
    80     5     2    1
    81    42    41    2
    82    10    11    1
    83    10     9    1
    84     2     1    1
    85     2     3    1
    86    29    26    1
    87    23    22    2
    88    12    11    2
    89    11    17   am
    90    41    40    1
    91    26    25    1
    92    26    27    1
    93     4     3    2
    94    17    18    1
    95    22    24   am
    96    22    21    1
    97    28    27    2
    98    18    21    1
    99    18    19    1
   100    40    37    1
   101    36    37    1
   102    37    38    1
   103    19    20    2
   104    38    39    2
