@<TRIPOS>MOLECULE
tmp/5zv2A00.pdb
 189 177 0 0 0
SMALL
GASTEIGER

@<TRIPOS>ATOM
      1  N          6.1990  -15.7520   25.2410 N.3    22  LEU22      -0.1231
      2  CA         7.2180  -16.7640   24.9120 C.3    22  LEU22       0.1693
      3  C          8.3300  -16.2280   23.9990 C.2    22  LEU22       0.2592
      4  O          8.0780  -15.4350   23.0980 O.2    22  LEU22      -0.2718
      5  CB         6.5670  -17.9790   24.2440 C.3    22  LEU22       0.0284
      6  CG         5.5650  -18.8110   25.0590 C.3    22  LEU22       0.0019
      7  CD1        4.9500  -19.8850   24.1810 C.3    22  LEU22       0.0001
      8  CD2        6.1930  -19.4470   26.2890 C.3    22  LEU22       0.0001
      9  N          9.5550  -16.6820   24.2540 N.am   23  GLY23      -0.1957
     10  CA        10.7190  -16.4720   23.3600 C.3    23  GLY23       0.1869
     11  C         11.2130  -15.1430   22.8060 C.2    23  GLY23       0.2309
     12  O         11.7630  -15.1160   21.6990 O.2    23  GLY23      -0.2863
     13  N         11.1890  -13.2600   19.1480 N.3    26  ALA26      -0.1231
     14  CA        11.8480  -13.9860   18.0490 C.3    26  ALA26       0.1694
     15  C         10.8660  -14.5210   17.0080 C.2    26  ALA26       0.2592
     16  O         11.2020  -14.6370   15.8280 O.2    26  ALA26      -0.2718
     17  CB        12.6820  -15.1330   18.6050 C.3    26  ALA26       0.0304
     18  N          9.6630  -14.8560   17.4680 N.am   27  PHE27      -0.1976
     19  CA         8.5910  -15.3350   16.6060 C.3    27  PHE27       0.1639
     20  C          7.3960  -14.3770   16.4730 C.2    27  PHE27       0.2290
     21  O          6.3430  -14.8140   16.0500 O.2    27  PHE27      -0.2864
     22  CB         8.1020  -16.6970   17.1250 C.3    27  PHE27       0.0560
     23  CG         9.1260  -17.7990   17.0500 C.ar   27  PHE27      -0.0200
     24  CD1        9.5430  -18.2970   15.8140 C.ar   27  PHE27      -0.0042
     25  CD2        9.6250  -18.3900   18.2050 C.ar   27  PHE27      -0.0042
     26  CE1       10.4590  -19.3390   15.7350 C.ar   27  PHE27      -0.0003
     27  CE2       10.5410  -19.4390   18.1370 C.ar   27  PHE27      -0.0003
     28  CZ        10.9600  -19.9130   16.9000 C.ar   27  PHE27      -0.0000
     29  N          4.2300  -13.9490   20.5970 N.3    30  VAL30      -0.1245
     30  CA         3.6830  -15.2490   20.9300 C.3    30  VAL30       0.1561
     31  C          3.4930  -15.2920   22.4390 C.2    30  VAL30       0.2260
     32  O          4.3030  -14.7430   23.1920 O.2    30  VAL30      -0.2867
     33  CB         4.6520  -16.3720   20.4930 C.3    30  VAL30       0.0252
     34  CG1        4.0840  -17.7560   20.7910 C.3    30  VAL30       0.0019
     35  CG2        4.9740  -16.2500   19.0120 C.3    30  VAL30       0.0019
     36  N          0.5740  -22.5870   22.2390 N.3    50  ALA50      -0.1245
     37  CA         1.1800  -21.3090   21.8760 C.3    50  ALA50       0.1562
     38  C          0.2110  -20.5470   21.0000 C.2    50  ALA50       0.2260
     39  O         -0.4950  -21.1460   20.1830 O.2    50  ALA50      -0.2867
     40  CB         2.5010  -21.5170   21.1610 C.3    50  ALA50       0.0290
     41  N          0.1260  -17.0790   18.6340 N.3    52  LYS52      -0.1245
     42  CA         0.6740  -15.9080   17.9580 C.3    52  LYS52       0.1561
     43  C         -0.4490  -14.9240   17.6880 C.2    52  LYS52       0.2260
     44  O         -1.5850  -15.3240   17.4160 O.2    52  LYS52      -0.2867
     45  CB         1.3470  -16.2990   16.6440 C.3    52  LYS52       0.0271
     46  CG         2.1160  -15.1630   15.9790 C.3    52  LYS52       0.0035
     47  CD         2.8640  -15.5990   14.7340 C.3    52  LYS52       0.0206
     48  CE         3.9300  -14.6010   14.3170 C.3    52  LYS52       0.1093
     49  NZ         4.9240  -15.1840   13.3760 N.3    52  LYS52      -0.1314
     50  N          0.5100  -17.2540    6.7690 N.3    69  GLU69      -0.1245
     51  CA         1.1540  -18.1950    7.6910 C.3    69  GLU69       0.1567
     52  C          0.1700  -19.2560    8.1940 C.2    69  GLU69       0.2260
     53  O          0.4740  -20.4500    8.2140 O.2    69  GLU69      -0.2867
     54  CB         1.7450  -17.4080    8.8750 C.3    69  GLU69       0.0388
     55  CG         2.4550  -18.2500    9.9230 C.3    69  GLU69       0.1160
     56  CD         3.1220  -17.4380   11.0240 C.2    69  GLU69       0.3649
     57  OE1        3.5800  -16.3030   10.7650 O.co2  69  GLU69      -0.2457
     58  OE2        3.2040  -17.9520   12.1610 O.co2  69  GLU69      -0.2457
     59  N         -0.9600  -21.4490    5.1190 N.3    72  MET72      -0.1230
     60  CA         0.1870  -22.3180    4.8220 C.3    72  MET72       0.1702
     61  C          0.1700  -23.5850    5.6700 C.2    72  MET72       0.2592
     62  O          0.3340  -24.7000    5.1550 O.2    72  MET72      -0.2718
     63  CB         1.4840  -21.5500    5.1030 C.3    72  MET72       0.0401
     64  CG         2.7780  -22.2820    4.7810 C.3    72  MET72       0.0596
     65  SD         3.1980  -22.3060    3.0360 S.3    72  MET72      -0.1393
     66  CE         3.3630  -20.5760    2.6230 C.3    72  MET72       0.0692
     67  N         -0.0010  -23.3860    6.9750 N.am   73  MET73      -0.1979
     68  CA        -0.0470  -24.4900    7.9410 C.3    73  MET73       0.1605
     69  C         -1.2160  -25.4250    7.6790 C.2    73  MET73       0.2287
     70  O         -1.0550  -26.6550    7.7640 O.2    73  MET73      -0.2864
     71  CB        -0.1240  -23.9600    9.3680 C.3    73  MET73       0.0413
     72  CG         1.2180  -23.5190    9.9130 C.3    73  MET73       0.0598
     73  SD         1.1930  -23.0790   11.6560 S.3    73  MET73      -0.1393
     74  CE         0.8310  -21.3320   11.5350 C.3    73  MET73       0.0692
     75  N          5.8470  -27.9780   13.7690 N.3    83  ILE83      -0.1245
     76  CA         4.8590  -27.2220   14.5490 C.3    83  ILE83       0.1561
     77  C          3.5420  -27.2780   13.7820 C.2    83  ILE83       0.2260
     78  O          3.4460  -26.7370   12.6770 O.2    83  ILE83      -0.2867
     79  CB         5.2910  -25.7490   14.7900 C.3    83  ILE83       0.0252
     80  CG1        6.4950  -25.6930   15.7390 C.3    83  ILE83       0.0019
     81  CG2        4.1490  -24.8910   15.3500 C.3    83  ILE83       0.0019
     82  CD1        6.2180  -26.0580   17.1940 C.3    83  ILE83       0.0001
     83  N         -3.6660  -17.2360   16.2860 N.3    97  VAL97      -0.1245
     84  CA        -3.3030  -18.4810   15.5990 C.3    97  VAL97       0.1561
     85  C         -2.7330  -19.4220   16.6450 C.2    97  VAL97       0.2260
     86  O         -1.6560  -19.1750   17.2020 O.2    97  VAL97      -0.2867
     87  CB        -2.2520  -18.2630   14.4990 C.3    97  VAL97       0.0252
     88  CG1       -1.8860  -19.5830   13.8200 C.3    97  VAL97       0.0019
     89  CG2       -2.7660  -17.2770   13.4660 C.3    97  VAL97       0.0019
     90  N         -1.1330  -22.8470   17.9570 N.3    99  VAL99      -0.1231
     91  CA        -0.2570  -23.9460   17.5450 C.3    99  VAL99       0.1692
     92  C          0.2020  -24.7890   18.7280 C.2    99  VAL99       0.2592
     93  O          0.0530  -24.3860   19.8880 O.2    99  VAL99      -0.2718
     94  CB         0.9740  -23.4450   16.7710 C.3    99  VAL99       0.0266
     95  CG1        0.5300  -22.7360   15.5090 C.3    99  VAL99       0.0020
     96  CG2        1.8400  -22.5260   17.6220 C.3    99  VAL99       0.0020
     97  N          0.7410  -25.9650   18.4000 N.am  100  GLU100     -0.1966
     98  CA         1.2880  -26.9100   19.3730 C.3   100  GLU100      0.1733
     99  C          2.3540  -26.2540   20.2280 C.2   100  GLU100      0.2616
    100  O          3.2450  -25.6070   19.6950 O.2   100  GLU100     -0.2715
    101  CB         1.9230  -28.0980   18.6600 C.3   100  GLU100      0.0429
    102  CG         0.9290  -29.0680   18.0630 C.3   100  GLU100      0.1163
    103  CD         1.5930  -30.3120   17.5000 C.2   100  GLU100      0.3649
    104  OE1        2.5690  -30.1640   16.7310 O.co2 100  GLU100     -0.2457
    105  OE2        1.1270  -31.4360   17.8020 O.co2 100  GLU100     -0.2457
    106  N          2.2500  -26.4290   21.5440 N.am  101  TYR101     -0.1960
    107  CA         3.2160  -25.8710   22.4950 C.3   101  TYR101      0.1771
    108  C          4.4240  -26.7750   22.6210 C.2   101  TYR101      0.2619
    109  O          4.2840  -27.9950   22.6570 O.2   101  TYR101     -0.2715
    110  CB         2.5740  -25.6990   23.8690 C.3   101  TYR101      0.0574
    111  CG         3.4900  -25.1470   24.9380 C.ar  101  TYR101     -0.0198
    112  CD1        4.1690  -23.9430   24.7460 C.ar  101  TYR101     -0.0009
    113  CD2        3.6610  -25.8140   26.1570 C.ar  101  TYR101     -0.0009
    114  CE1        5.0050  -23.4280   25.7260 C.ar  101  TYR101      0.0417
    115  CE2        4.4830  -25.3010   27.1460 C.ar  101  TYR101      0.0417
    116  CZ         5.1500  -24.1070   26.9300 C.ar  101  TYR101      0.1957
    117  OH         5.9760  -23.6050   27.9140 O.3   101  TYR101     -0.2866
    118  N          5.6010  -26.1540   22.7240 N.am  102  ALA102     -0.1963
    119  CA         6.8920  -26.8500   22.8490 C.3   102  ALA102      0.1728
    120  C          7.6290  -26.4270   24.1300 C.2   102  ALA102      0.2616
    121  O          8.5200  -25.5780   24.1000 O.2   102  ALA102     -0.2715
    122  CB         7.7430  -26.5720   21.6240 C.3   102  ALA102      0.0334
    123  N          7.2710  -27.0700   25.2400 N.am  103  SER103     -0.1950
    124  CA         7.6620  -26.6380   26.6030 C.3   103  SER103      0.1924
    125  C          9.1380  -26.3110   26.8360 C.2   103  SER103      0.2314
    126  O          9.4600  -25.3230   27.5030 O.2   103  SER103     -0.2863
    127  CB         7.2300  -27.6880   27.6190 C.3   103  SER103      0.2116
    128  OG         7.8430  -28.9220   27.3410 O.3   103  SER103     -0.2180
    129  N         11.5820  -25.0630   25.0180 N.3   105  GLY105     -0.1210
    130  CA        12.2500  -24.0240   24.2260 C.3   105  GLY105      0.1956
    131  C         12.7520  -24.4890   22.8750 C.2   105  GLY105      0.2611
    132  O         12.3520  -25.5470   22.3900 O.2   105  GLY105     -0.2717
    133  N         13.6330  -23.6880   22.2730 N.am  106  ASN106     -0.1974
    134  CA        14.2820  -24.0550   21.0050 C.3   106  ASN106      0.1688
    135  C         15.4910  -24.9750   21.2080 C.2   106  ASN106      0.2292
    136  O         15.9880  -25.1450   22.3230 O.2   106  ASN106     -0.2864
    137  CB        14.6440  -22.8200   20.1740 C.3   106  ASN106      0.1181
    138  CG        15.8540  -22.0760   20.7040 C.2   106  ASN106      0.2629
    139  OD1       16.9170  -22.6600   20.9070 O.2   106  ASN106     -0.2716
    140  ND2       15.7050  -20.7670   20.9040 N.am  106  ASN106     -0.0877
    141  N         18.9540  -23.4450   22.8010 N.3   109  GLU109     -0.1245
    142  CA        18.8250  -23.3170   24.2560 C.3   109  GLU109      0.1567
    143  C         18.7760  -24.6820   24.9460 C.2   109  GLU109      0.2260
    144  O         19.4320  -24.8960   25.9620 O.2   109  GLU109     -0.2867
    145  CB        17.5710  -22.5170   24.6020 C.3   109  GLU109      0.0388
    146  CG        17.6370  -21.0530   24.1880 C.3   109  GLU109      0.1160
    147  CD        16.3020  -20.3360   24.3100 C.2   109  GLU109      0.3649
    148  OE1       16.3060  -19.1400   24.6690 O.co2 109  GLU109     -0.2457
    149  OE2       15.2510  -20.9580   24.0440 O.co2 109  GLU109     -0.2457
    150  N         11.9590  -26.3020   17.5980 N.3   154  LEU154     -0.1245
    151  CA        11.4360  -26.3000   18.9590 C.3   154  LEU154      0.1561
    152  C         11.3970  -27.7060   19.5080 C.2   154  LEU154      0.2260
    153  O         11.4430  -28.6750   18.7510 O.2   154  LEU154     -0.2867
    154  CB        10.0690  -25.6230   19.0200 C.3   154  LEU154      0.0270
    155  CG        10.0740  -24.1470   18.5800 C.3   154  LEU154      0.0019
    156  CD1        8.6680  -23.5740   18.5660 C.3   154  LEU154      0.0001
    157  CD2       10.9600  -23.2740   19.4630 C.3   154  LEU154      0.0001
    158  N          9.9870  -25.1300   12.9370 N.3   164  ALA164     -0.1231
    159  CA         9.1730  -23.9240   12.9400 C.3   164  ALA164      0.1694
    160  C          9.6460  -22.9650   11.8670 C.2   164  ALA164      0.2592
    161  O         10.7250  -23.1350   11.3080 O.2   164  ALA164     -0.2718
    162  CB         9.2430  -23.2600   14.3000 C.3   164  ALA164      0.0304
    163  N          8.8060  -21.9670   11.5940 N.am  165  ASP165     -0.1960
    164  CA         9.0620  -20.9190   10.5940 C.3   165  ASP165      0.1840
    165  C          9.3650  -21.4410    9.1920 C.2   165  ASP165      0.2622
    166  O         10.0050  -20.7570    8.3920 O.2   165  ASP165     -0.2715
    167  CB        10.1780  -19.9710   11.0670 C.3   165  ASP165      0.1450
    168  CG         9.6640  -18.8490   11.9510 C.2   165  ASP165      0.3671
    169  OD1        8.4900  -18.8780   12.3620 O.co2 165  ASP165     -0.2456
    170  OD2       10.4520  -17.9290   12.2420 O.co2 165  ASP165     -0.2456
    171  N          8.9300  -22.6880    8.9020 N.am  166  PHE166     -0.1974
    172  CA         9.1140  -23.1630    7.5340 C.3   166  PHE166      0.1639
    173  C          8.1150  -22.5520    6.5790 C.2   166  PHE166      0.2290
    174  O          6.9120  -22.6060    6.8080 O.2   166  PHE166     -0.2864
    175  CB         8.8970  -24.6620    7.4080 C.3   166  PHE166      0.0560
    176  CG         7.6080  -25.1280    7.9920 C.ar  166  PHE166     -0.0200
    177  CD1        6.4360  -25.0600    7.2580 C.ar  166  PHE166     -0.0042
    178  CD2        7.5590  -25.6110    9.2840 C.ar  166  PHE166     -0.0042
    179  CE1        5.2370  -25.4670    7.8050 C.ar  166  PHE166     -0.0003
    180  CE2        6.3640  -26.0270    9.8340 C.ar  166  PHE166     -0.0003
    181  CZ         5.1990  -25.9570    9.0930 C.ar  166  PHE166     -0.0000
    182  N          7.0050  -19.2330    5.4290 N.3   168  LEU168     -0.1245
    183  CA         7.2000  -17.8640    5.9080 C.3   168  LEU168      0.1561
    184  C          7.8960  -17.0610    4.8030 C.2   168  LEU168      0.2260
    185  O          9.1050  -16.8180    4.8480 O.2   168  LEU168     -0.2867
    186  CB         8.0290  -17.8460    7.2010 C.3   168  LEU168      0.0270
    187  CG         8.2750  -16.5060    7.8260 C.3   168  LEU168      0.0019
    188  CD1        7.0140  -16.0760    8.5550 C.3   168  LEU168      0.0001
    189  CD2        9.4620  -16.5410    8.7750 C.3   168  LEU168      0.0001
@<TRIPOS>BOND
     1    66    65    1
     2    65    64    1
     3    64    63    1
     4   184   185    2
     5   184   183    1
     6    60    63    1
     7    60    59    1
     8    60    61    1
     9    62    61    2
    10   182   183    1
    11    61    67   am
    12   183   186    1
    13   173   174    2
    14   173   172    1
    15    50    51    1
    16    67    68    1
    17   186   187    1
    18   177   179   ar
    19   177   176   ar
    20   175   172    1
    21   175   176    1
    22   172   171    1
    23    69    70    2
    24    69    68    1
    25    51    52    1
    26    51    54    1
    27   179   181   ar
    28   187   188    1
    29   187   189    1
    30    68    71    1
    31   176   178   ar
    32    52    53    2
    33   166   165    2
    34    54    55    1
    35   171   165   am
    36   181   180   ar
    37   165   164    1
    38   178   180   ar
    39    71    72    1
    40    72    73    1
    41    55    56    1
    42   164   167    1
    43   164   163    1
    44    57    56   ar
    45    56    58   ar
    46   167   168    1
    47   161   160    2
    48    74    73    1
    49   163   160   am
    50   160   159    1
    51   168   170   ar
    52   168   169   ar
    53    78    77    2
    54   158   159    1
    55   159   162    1
    56    49    48    1
    57    89    87    1
    58    75    76    1
    59    77    76    1
    60    88    87    1
    61    48    47    1
    62    87    84    1
    63    76    79    1
    64    47    46    1
    65    79    81    1
    66    79    80    1
    67    95    94    1
    68    84    83    1
    69    84    85    1
    70    26    24   ar
    71    26    28   ar
    72    80    82    1
    73    24    23   ar
    74    16    15    2
    75    46    45    1
    76    21    20    2
    77    20    19    1
    78    19    22    1
    79    19    18    1
    80    45    42    1
    81    85    86    2
    82   104   103   ar
    83    94    91    1
    84    94    96    1
    85    28    27   ar
    86    15    18   am
    87    15    14    1
    88    23    22    1
    89    23    25   ar
    90    44    43    2
    91   103   105   ar
    92   103   102    1
    93    91    90    1
    94    91    92    1
    95   150   151    1
    96    43    42    1
    97    42    41    1
    98    14    17    1
    99    14    13    1
   100   102   101    1
   101    27    25   ar
   102    97    92   am
   103    97    98    1
   104   156   155    1
   105   155   154    1
   106   155   157    1
   107   101    98    1
   108    92    93    2
   109   153   152    2
   110   151   154    1
   111   151   152    1
   112    35    33    1
   113    98    99    1
   114   100    99    2
   115   137   138    1
   116   137   134    1
   117    39    38    2
   118    99   106   am
   119    33    34    1
   120    33    30    1
   121    29    30    1
   122   138   140   am
   123   138   139    2
   124    30    31    1
   125    38    37    1
   126   134   135    1
   127   134   133    1
   128    40    37    1
   129   135   136    2
   130   106   107    1
   131   122   119    1
   132    12    11    2
   133    37    36    1
   134   133   131   am
   135   132   131    2
   136    31    32    2
   137   107   108    1
   138   107   110    1
   139   108   109    2
   140   108   118   am
   141   118   119    1
   142   141   142    1
   143    11    10    1
   144   119   120    1
   145   131   130    1
   146     4     3    2
   147    10     9    1
   148   110   111    1
   149     3     9   am
   150     3     2    1
   151   149   147   ar
   152   121   120    2
   153   120   123   am
   154     7     6    1
   155   146   147    1
   156   146   145    1
   157   130   129    1
   158     5     2    1
   159     5     6    1
   160   142   145    1
   161   142   143    1
   162   147   148   ar
   163   112   111   ar
   164   112   114   ar
   165     2     1    1
   166   111   113   ar
   167   143   144    2
   168     6     8    1
   169   123   124    1
   170   114   116   ar
   171   113   115   ar
   172   124   125    1
   173   124   127    1
   174   125   126    2
   175   116   115   ar
   176   116   117    1
   177   128   127    1
