@<TRIPOS>MOLECULE
tmp/5zv2B00.pdb
 189 177 0 0 0
SMALL
GASTEIGER

@<TRIPOS>ATOM
      1  N         18.8350  -48.5770   61.5010 N.3    25  LEU25      -0.1231
      2  CA        19.7780  -49.3970   60.7190 C.3    25  LEU25       0.1693
      3  C         21.0390  -48.6270   60.3290 C.2    25  LEU25       0.2592
      4  O         20.9700  -47.4480   59.9510 O.2    25  LEU25      -0.2718
      5  CB        19.1040  -49.9650   59.4590 C.3    25  LEU25       0.0284
      6  CG        17.9580  -50.9670   59.6580 C.3    25  LEU25       0.0019
      7  CD1       17.3440  -51.3270   58.3140 C.3    25  LEU25       0.0001
      8  CD2       18.4060  -52.2320   60.3730 C.3    25  LEU25       0.0001
      9  N         22.1770  -49.3240   60.4180 N.am   26  GLY26      -0.1957
     10  CA        23.5090  -48.7630   60.2150 C.3    26  GLY26       0.1869
     11  C         23.7780  -47.6950   61.2500 C.2    26  GLY26       0.2309
     12  O         23.5280  -47.8950   62.4410 O.2    26  GLY26      -0.2863
     13  N         24.7390  -43.9220   57.5580 N.3    29  ALA29      -0.1231
     14  CA        25.4380  -44.2250   56.2970 C.3    29  ALA29       0.1694
     15  C         24.5120  -44.0890   55.0760 C.2    29  ALA29       0.2592
     16  O         24.9760  -43.7730   53.9810 O.2    29  ALA29      -0.2718
     17  CB        26.0410  -45.6250   56.3540 C.3    29  ALA29       0.0304
     18  N         23.2170  -44.3400   55.2930 N.am   30  PHE30      -0.1976
     19  CA        22.1510  -44.1400   54.3010 C.3    30  PHE30       0.1639
     20  C         21.1220  -43.0790   54.7050 C.2    30  PHE30       0.2290
     21  O         20.0310  -43.0420   54.1520 O.2    30  PHE30      -0.2864
     22  CB        21.4250  -45.4700   54.0740 C.3    30  PHE30       0.0560
     23  CG        22.3050  -46.5260   53.4960 C.ar   30  PHE30      -0.0200
     24  CD1       22.8020  -46.3850   52.2060 C.ar   30  PHE30      -0.0042
     25  CD2       22.6690  -47.6400   54.2390 C.ar   30  PHE30      -0.0042
     26  CE1       23.6380  -47.3430   51.6580 C.ar   30  PHE30      -0.0003
     27  CE2       23.5050  -48.6040   53.6960 C.ar   30  PHE30      -0.0003
     28  CZ        23.9920  -48.4560   52.4020 C.ar   30  PHE30      -0.0000
     29  N         17.5080  -44.3240   58.4220 N.3    33  VAL33      -0.1245
     30  CA        16.8230  -45.5470   57.9990 C.3    33  VAL33       0.1561
     31  C         16.4880  -46.3690   59.2440 C.2    33  VAL33       0.2260
     32  O         17.2670  -46.4030   60.2040 O.2    33  VAL33      -0.2867
     33  CB        17.7200  -46.3950   57.0600 C.3    33  VAL33       0.0252
     34  CG1       16.9970  -47.6460   56.5560 C.3    33  VAL33       0.0019
     35  CG2       18.1900  -45.5670   55.8710 C.3    33  VAL33       0.0019
     36  N         12.9310  -52.0320   55.0840 N.3    53  ALA53      -0.1245
     37  CA        13.6820  -50.8380   55.4740 C.3    53  ALA53       0.1562
     38  C         12.8660  -49.6010   55.1130 C.2    53  ALA53       0.2260
     39  O         12.1600  -49.5790   54.1010 O.2    53  ALA53      -0.2867
     40  CB        15.0330  -50.7970   54.7940 C.3    53  ALA53       0.0290
     41  N         13.3310  -45.4370   54.9690 N.3    55  LYS55      -0.1245
     42  CA        14.0420  -44.1660   55.0400 C.3    55  LYS55       0.1561
     43  C         13.0420  -43.0540   55.3250 C.2    55  LYS55       0.2260
     44  O         11.8940  -43.0970   54.8670 O.2    55  LYS55      -0.2867
     45  CB        14.7720  -43.8780   53.7280 C.3    55  LYS55       0.0271
     46  CG        15.7020  -42.6750   53.7520 C.3    55  LYS55       0.0035
     47  CD        16.3340  -42.4770   52.3710 C.3    55  LYS55       0.0206
     48  CE        17.8160  -42.2310   52.4710 C.3    55  LYS55       0.1093
     49  NZ        18.5350  -42.2850   51.1710 N.3    55  LYS55      -0.1314
     50  N         14.4800  -39.0530   44.9240 N.3    72  GLU72      -0.1245
     51  CA        14.9740  -40.4060   45.1800 C.3    72  GLU72       0.1567
     52  C         13.8710  -41.4610   45.0130 C.2    72  GLU72       0.2260
     53  O         14.0760  -42.5120   44.3990 O.2    72  GLU72      -0.2867
     54  CB        15.5660  -40.4630   46.5940 C.3    72  GLU72       0.0388
     55  CG        16.1220  -41.8150   47.0210 C.3    72  GLU72       0.1160
     56  CD        16.7430  -41.7960   48.4040 C.2    72  GLU72       0.3649
     57  OE1       17.3910  -40.7780   48.7650 O.co2  72  GLU72      -0.2457
     58  OE2       16.5880  -42.8090   49.1330 O.co2  72  GLU72      -0.2457
     59  N         12.8490  -41.4870   41.2440 N.3    75  MET75      -0.1230
     60  CA        13.9670  -42.1730   40.5610 C.3    75  MET75       0.1702
     61  C         13.7470  -43.6790   40.5790 C.2    75  MET75       0.2592
     62  O         13.8420  -44.3330   39.5470 O.2    75  MET75      -0.2718
     63  CB        15.2910  -41.8430   41.2740 C.3    75  MET75       0.0401
     64  CG        16.5760  -42.4590   40.7190 C.3    75  MET75       0.0596
     65  SD        17.4560  -41.4860   39.4760 S.3    75  MET75      -0.1393
     66  CE        17.9830  -40.0430   40.4210 C.3    75  MET75       0.0692
     67  N         13.4520  -44.2060   41.7660 N.am   76  MET76      -0.1979
     68  CA        13.2200  -45.6400   41.9610 C.3    76  MET76       0.1605
     69  C         12.0130  -46.1340   41.1840 C.2    76  MET76       0.2287
     70  O         12.0530  -47.2150   40.5960 O.2    76  MET76      -0.2864
     71  CB        13.0650  -45.9920   43.4490 C.3    76  MET76       0.0413
     72  CG        14.3910  -46.0860   44.1760 C.3    76  MET76       0.0598
     73  SD        14.2720  -46.6700   45.8800 S.3    76  MET76      -0.1393
     74  CE        14.1060  -45.0940   46.7040 C.3    76  MET76       0.0692
     75  N         18.3310  -52.5050   45.1800 N.3    86  ILE86      -0.1245
     76  CA        17.3650  -52.2050   46.2400 C.3    86  ILE86       0.1561
     77  C         16.1100  -51.6570   45.5590 C.2    86  ILE86       0.2260
     78  O         16.1440  -50.5800   44.9490 O.2    86  ILE86      -0.2867
     79  CB        17.9210  -51.1850   47.2730 C.3    86  ILE86       0.0252
     80  CG1       19.0500  -51.8110   48.1110 C.3    86  ILE86       0.0019
     81  CG2       16.8230  -50.6490   48.1950 C.3    86  ILE86       0.0019
     82  CD1       18.6270  -52.8870   49.0990 C.3    86  ILE86       0.0001
     83  N          9.7300  -43.8080   52.8730 N.3   100  VAL100     -0.1245
     84  CA        10.0280  -44.5220   51.6230 C.3   100  VAL100      0.1561
     85  C         10.4140  -45.9480   51.9890 C.2   100  VAL100      0.2260
     86  O         11.4560  -46.1750   52.6070 O.2   100  VAL100     -0.2867
     87  CB        11.1730  -43.8710   50.8280 C.3   100  VAL100      0.0252
     88  CG1       11.4420  -44.6450   49.5460 C.3   100  VAL100      0.0019
     89  CG2       10.8320  -42.4280   50.4840 C.3   100  VAL100      0.0019
     90  N         11.5050  -49.7210   51.3260 N.3   102  VAL102     -0.1231
     91  CA        12.3140  -50.5120   50.3970 C.3   102  VAL102      0.1692
     92  C         12.5880  -51.9130   50.9330 C.2   102  VAL102      0.2592
     93  O         12.4000  -52.1830   52.1220 O.2   102  VAL102     -0.2718
     94  CB        13.6560  -49.8160   50.0500 C.3   102  VAL102      0.0266
     95  CG1       13.4030  -48.4850   49.3540 C.3   102  VAL102      0.0020
     96  CG2       14.5300  -49.6220   51.2810 C.3   102  VAL102      0.0020
     97  N         13.0580  -52.7750   50.0320 N.am  103  GLU103     -0.1966
     98  CA        13.4470  -54.1590   50.3470 C.3   103  GLU103      0.1733
     99  C         14.4910  -54.2090   51.4550 C.2   103  GLU103      0.2616
    100  O         15.4880  -53.4990   51.3730 O.2   103  GLU103     -0.2715
    101  CB        14.0390  -54.8360   49.1070 C.3   103  GLU103      0.0429
    102  CG        13.0170  -55.1840   48.0440 C.3   103  GLU103      0.1163
    103  CD        13.6120  -55.9780   46.8950 C.2   103  GLU103      0.3649
    104  OE1       14.6530  -55.5530   46.3480 O.co2 103  GLU103     -0.2457
    105  OE2       13.0280  -57.0160   46.5170 O.co2 103  GLU103     -0.2457
    106  N         14.2640  -55.0530   52.4620 N.am  104  TYR104     -0.1960
    107  CA        15.2140  -55.2320   53.5800 C.3   104  TYR104      0.1771
    108  C         16.3370  -56.2100   53.2120 C.2   104  TYR104      0.2619
    109  O         16.0800  -57.2220   52.5660 O.2   104  TYR104     -0.2715
    110  CB        14.4890  -55.7340   54.8250 C.3   104  TYR104      0.0574
    111  CG        15.3790  -55.9520   56.0380 C.ar  104  TYR104     -0.0198
    112  CD1       16.1860  -54.9240   56.5360 C.ar  104  TYR104     -0.0009
    113  CD2       15.4030  -57.1810   56.7000 C.ar  104  TYR104     -0.0009
    114  CE1       17.0000  -55.1180   57.6460 C.ar  104  TYR104      0.0417
    115  CE2       16.2020  -57.3810   57.8150 C.ar  104  TYR104      0.0417
    116  CZ        16.9990  -56.3480   58.2880 C.ar  104  TYR104      0.1957
    117  OH        17.8000  -56.5520   59.3900 O.3   104  TYR104     -0.2866
    118  N         17.5620  -55.8950   53.6440 N.am  105  ALA105     -0.1963
    119  CA        18.7750  -56.7030   53.3760 C.3   105  ALA105      0.1728
    120  C         19.4610  -57.1390   54.6820 C.2   105  ALA105      0.2616
    121  O         20.4420  -56.5360   55.1250 O.2   105  ALA105     -0.2715
    122  CB        19.7430  -55.9220   52.5070 C.3   105  ALA105      0.0334
    123  N         18.9510  -58.2210   55.2600 N.am  106  SER106     -0.1950
    124  CA        19.2710  -58.6420   56.6400 C.3   106  SER106      0.1924
    125  C         20.7570  -58.6950   57.0330 C.2   106  SER106      0.2314
    126  O         21.1170  -58.2930   58.1420 O.2   106  SER106     -0.2863
    127  CB        18.6460  -60.0090   56.9030 C.3   106  SER106      0.2116
    128  OG        19.1710  -60.9610   55.9940 O.3   106  SER106     -0.2180
    129  N         23.4680  -57.0040   56.2470 N.3   108  GLY108     -0.1210
    130  CA        24.2960  -55.8010   56.1740 C.3   108  GLY108      0.1956
    131  C         24.8480  -55.5120   54.7920 C.2   108  GLY108      0.2611
    132  O         24.3880  -56.0690   53.7870 O.2   108  GLY108     -0.2717
    133  N         25.8510  -54.6400   54.7540 N.am  109  ASN109     -0.1974
    134  CA        26.5450  -54.3120   53.5060 C.3   109  ASN109      0.1688
    135  C         27.6580  -55.3100   53.1650 C.2   109  ASN109      0.2292
    136  O         28.0610  -56.1260   53.9940 O.2   109  ASN109     -0.2864
    137  CB        27.0580  -52.8670   53.5220 C.3   109  ASN109      0.1181
    138  CG        28.2600  -52.6730   54.4200 C.2   109  ASN109      0.2629
    139  OD1       29.2610  -53.3800   54.2850 O.2   109  ASN109     -0.2716
    140  ND2       28.1910  -51.6860   55.3170 N.am  109  ASN109     -0.0877
    141  N         31.1740  -55.3360   55.3500 N.3   112  GLU112     -0.1245
    142  CA        30.9780  -56.0180   56.6350 C.3   112  GLU112      0.1567
    143  C         30.7640  -57.5120   56.4450 C.2   112  GLU112      0.2260
    144  O         31.3500  -58.3260   57.1620 O.2   112  GLU112     -0.2867
    145  CB        29.7750  -55.4300   57.3710 C.3   112  GLU112      0.0388
    146  CG        29.9860  -54.0020   57.8500 C.3   112  GLU112      0.1160
    147  CD        28.7110  -53.3410   58.3520 C.2   112  GLU112      0.3649
    148  OE1       28.7990  -52.5520   59.3210 O.co2 112  GLU112     -0.2457
    149  OE2       27.6240  -53.5990   57.7820 O.co2 112  GLU112     -0.2457
    150  N         24.2950  -53.9520   49.4080 N.3   158  LEU158     -0.1245
    151  CA        23.6690  -54.6710   50.5100 C.3   158  LEU158      0.1561
    152  C         23.4660  -56.1340   50.1580 C.2   158  LEU158      0.2260
    153  O         23.4870  -56.5140   48.9790 O.2   158  LEU158     -0.2867
    154  CB        22.3550  -54.0040   50.9130 C.3   158  LEU158      0.0270
    155  CG        22.5180  -52.5540   51.3920 C.3   158  LEU158      0.0019
    156  CD1       21.1730  -51.9090   51.6830 C.3   158  LEU158      0.0001
    157  CD2       23.4100  -52.4420   52.6250 C.3   158  LEU158      0.0001
    158  N         22.7820  -50.1760   46.2160 N.3   168  ALA168     -0.1231
    159  CA        22.0840  -49.0900   46.8950 C.3   168  ALA168      0.1694
    160  C         22.7440  -47.7530   46.5830 C.2   168  ALA168      0.2592
    161  O         23.8480  -47.7160   46.0380 O.2   168  ALA168     -0.2718
    162  CB        22.1100  -49.3360   48.3860 C.3   168  ALA168      0.0304
    163  N         22.0570  -46.6700   46.9490 N.am  169  ASP169     -0.1960
    164  CA        22.5330  -45.2880   46.7530 C.3   169  ASP169      0.1840
    165  C         22.8120  -44.9040   45.3040 C.2   169  ASP169      0.2622
    166  O         23.5020  -43.9170   45.0440 O.2   169  ASP169     -0.2715
    167  CB        23.7830  -45.0120   47.6060 C.3   169  ASP169      0.1450
    168  CG        23.4540  -44.6190   49.0330 C.2   169  ASP169      0.3671
    169  OD1       22.2690  -44.6860   49.4300 O.co2 169  ASP169     -0.2456
    170  OD2       24.3940  -44.2290   49.7570 O.co2 169  ASP169     -0.2456
    171  N         22.2800  -45.6820   44.3680 N.am  170  PHE170     -0.1974
    172  CA        22.4350  -45.3790   42.9500 C.3   170  PHE170      0.1639
    173  C         21.6060  -44.1350   42.6510 C.2   170  PHE170      0.2290
    174  O         20.4070  -44.1050   42.8910 O.2   170  PHE170     -0.2864
    175  CB        22.0180  -46.5560   42.0570 C.3   170  PHE170      0.0560
    176  CG        20.6780  -47.1450   42.4000 C.ar  170  PHE170     -0.0200
    177  CD1       19.5180  -46.6870   41.7950 C.ar  170  PHE170     -0.0042
    178  CD2       20.5820  -48.1700   43.3280 C.ar  170  PHE170     -0.0042
    179  CE1       18.2900  -47.2340   42.1210 C.ar  170  PHE170     -0.0003
    180  CE2       19.3570  -48.7190   43.6570 C.ar  170  PHE170     -0.0003
    181  CZ        18.2090  -48.2490   43.0510 C.ar  170  PHE170     -0.0000
    182  N         21.2410  -40.3840   43.8090 N.3   172  LEU172     -0.1245
    183  CA        21.5570  -39.3580   44.8190 C.3   172  LEU172      0.1561
    184  C         22.3190  -38.1490   44.2580 C.2   172  LEU172      0.2260
    185  O         23.5520  -38.1050   44.2800 O.2   172  LEU172     -0.2867
    186  CB        22.3420  -39.9770   45.9790 C.3   172  LEU172      0.0270
    187  CG        21.6460  -41.1160   46.7260 C.3   172  LEU172      0.0019
    188  CD1       22.5690  -41.5980   47.8460 C.3   172  LEU172      0.0001
    189  CD2       20.3080  -40.7270   47.2520 C.3   172  LEU172      0.0001
@<TRIPOS>BOND
     1    65    66    1
     2    65    64    1
     3    62    61    2
     4    60    61    1
     5    60    59    1
     6    60    63    1
     7    61    67   am
     8    70    69    2
     9    64    63    1
    10    69    68    1
    11    67    68    1
    12   177   179   ar
    13   177   176   ar
    14    68    71    1
    15   175   176    1
    16   175   172    1
    17   179   181   ar
    18   176   178   ar
    19   173   174    2
    20   173   172    1
    21   172   171    1
    22   181   180   ar
    23   178   180   ar
    24    71    72    1
    25   182   183    1
    26    72    73    1
    27   184   185    2
    28   184   183    1
    29   171   165   am
    30    53    52    2
    31   183   186    1
    32    50    51    1
    33    78    77    2
    34    52    51    1
    35   166   165    2
    36    75    76    1
    37    51    54    1
    38   165   164    1
    39    77    76    1
    40    73    74    1
    41   186   187    1
    42   161   160    2
    43   158   159    1
    44    76    79    1
    45   104   103   ar
    46   105   103   ar
    47   160   159    1
    48   160   163   am
    49    54    55    1
    50   187   189    1
    51   187   188    1
    52   164   163    1
    53   164   167    1
    54   103   102    1
    55   159   162    1
    56    55    56    1
    57    79    80    1
    58    79    81    1
    59   167   168    1
    60   102   101    1
    61    80    82    1
    62    56    57   ar
    63    56    58   ar
    64   153   152    2
    65   168   169   ar
    66   168   170   ar
    67   101    98    1
    68    95    94    1
    69   150   151    1
    70    88    87    1
    71    97    98    1
    72    97    92   am
    73    94    91    1
    74    94    96    1
    75   152   151    1
    76    98    99    1
    77    91    92    1
    78    91    90    1
    79    89    87    1
    80   151   154    1
    81    87    84    1
    82   154   155    1
    83    92    93    2
    84    49    48    1
    85   100    99    2
    86   155   156    1
    87   155   157    1
    88    99   106   am
    89    84    85    1
    90    84    83    1
    91    26    24   ar
    92    26    28   ar
    93    85    86    2
    94    24    23   ar
    95    47    48    1
    96    47    46    1
    97    28    27   ar
    98   106   107    1
    99   122   119    1
   100   109   108    2
   101   135   134    1
   102   135   136    2
   103   108   107    1
   104   108   118   am
   105   119   118    1
   106   119   120    1
   107    23    22    1
   108    23    25   ar
   109   134   137    1
   110   134   133    1
   111   137   138    1
   112   107   110    1
   113    27    25   ar
   114    45    46    1
   115    45    42    1
   116   132   131    2
   117    16    15    2
   118    22    19    1
   119    39    38    2
   120    21    20    2
   121   139   138    2
   122    19    20    1
   123    19    18    1
   124   138   140   am
   125   120   121    2
   126   120   123   am
   127   133   131   am
   128   131   130    1
   129    40    37    1
   130   110   111    1
   131    44    43    2
   132    41    42    1
   133    42    43    1
   134    15    18   am
   135    15    14    1
   136    36    37    1
   137    38    37    1
   138   123   124    1
   139   141   142    1
   140    35    33    1
   141   128   127    1
   142   111   112   ar
   143   111   113   ar
   144   130   129    1
   145    14    17    1
   146    14    13    1
   147   143   142    1
   148   143   144    2
   149   112   114   ar
   150    34    33    1
   151   142   145    1
   152   124   127    1
   153   124   125    1
   154   113   115   ar
   155   125   126    2
   156    33    30    1
   157   145   146    1
   158   114   116   ar
   159   149   147   ar
   160   115   116   ar
   161   146   147    1
   162    30    29    1
   163    30    31    1
   164   116   117    1
   165     7     6    1
   166   147   148   ar
   167    31    32    2
   168     5     6    1
   169     5     2    1
   170     6     8    1
   171     4     3    2
   172    10     9    1
   173    10    11    1
   174     3     9   am
   175     3     2    1
   176     2     1    1
   177    11    12    2
