@<TRIPOS>MOLECULE
tmp/5zvcB02.pdb
 84 79 0 0 0
SMALL
GASTEIGER

@<TRIPOS>ATOM
      1  N         94.5690   76.5770  149.2310 N.3    73  ASP73      -0.1239
      2  CA        94.4390   77.4150  148.0410 C.3    73  ASP73       0.1674
      3  C         93.7010   78.7300  148.3320 C.2    73  ASP73       0.2266
      4  O         92.5120   78.7260  148.6680 O.2    73  ASP73      -0.2867
      5  CB        93.7140   76.6120  146.9360 C.3    73  ASP73       0.1410
      6  CG        93.8700   77.2230  145.5510 C.2    73  ASP73       0.3668
      7  OD1       93.8380   78.4640  145.4330 O.co2  73  ASP73      -0.2456
      8  OD2       93.9760   76.4520  144.5660 O.co2  73  ASP73      -0.2456
      9  N         92.9410   80.9890  146.1170 N.3    75  TRP75      -0.1227
     10  CA        92.0550   81.3540  145.0230 C.3    75  TRP75       0.1737
     11  C         90.8600   80.4100  144.9790 C.2    75  TRP75       0.2595
     12  O         89.7570   80.7940  145.3770 O.2    75  TRP75      -0.2718
     13  CB        92.7940   81.4010  143.6840 C.3    75  TRP75       0.0564
     14  CG        91.9130   81.8970  142.5960 C.ar   75  TRP75       0.0003
     15  CD1       91.2410   81.1420  141.6800 C.ar   75  TRP75       0.0946
     16  CD2       91.5650   83.2590  142.3290 C.ar   75  TRP75       0.0152
     17  NE1       90.5100   81.9490  140.8480 N.ar   75  TRP75      -0.2442
     18  CE2       90.6910   83.2540  141.2210 C.ar   75  TRP75       0.0810
     19  CE3       91.9220   84.4860  142.9040 C.ar   75  TRP75       0.0012
     20  CZ2       90.1600   84.4230  140.6880 C.ar   75  TRP75       0.0191
     21  CZ3       91.3920   85.6430  142.3740 C.ar   75  TRP75       0.0001
     22  CH2       90.5250   85.6060  141.2750 C.ar   75  TRP75       0.0015
     23  N         91.0680   79.1830  144.5240 N.am   76  ASP76      -0.1974
     24  CA        89.9750   78.2100  144.4580 C.3    76  ASP76       0.1709
     25  C         89.8700   77.4680  145.7760 C.2    76  ASP76       0.2293
     26  O         90.5450   76.4680  145.9710 O.2    76  ASP76      -0.2864
     27  CB        90.2030   77.2260  143.3110 C.3    76  ASP76       0.1436
     28  CG        90.2330   77.9120  141.9650 C.2    76  ASP76       0.3671
     29  OD1       89.2230   78.5620  141.6150 O.co2  76  ASP76      -0.2456
     30  OD2       91.2640   77.8140  141.2660 O.co2  76  ASP76      -0.2456
     31  N         87.5250   85.6630  133.5750 N.3   108  ILE108     -0.1245
     32  CA        86.7740   85.4120  134.7900 C.3   108  ILE108      0.1561
     33  C         85.2770   85.5620  134.5460 C.2   108  ILE108      0.2260
     34  O         84.8050   86.6080  134.0800 O.2   108  ILE108     -0.2867
     35  CB        87.2020   86.3600  135.9270 C.3   108  ILE108      0.0252
     36  CG1       88.6880   86.1700  136.2430 C.3   108  ILE108      0.0019
     37  CG2       86.3590   86.1120  137.1670 C.3   108  ILE108      0.0019
     38  CD1       89.2540   87.1950  137.2000 C.3   108  ILE108      0.0001
     39  N         87.6390   81.3640  137.0920 N.3   134  SER134     -0.1217
     40  CA        88.6690   81.8570  136.1760 C.3   134  SER134      0.1889
     41  C         89.2280   80.7260  135.3310 C.2   134  SER134      0.2288
     42  O         89.6070   79.6860  135.8670 O.2   134  SER134     -0.2866
     43  CB        89.8160   82.5070  136.9520 C.3   134  SER134      0.2089
     44  OG        90.8510   82.9020  136.0620 O.3   134  SER134     -0.2183
     45  N         92.0440   80.8610  133.7520 N.3   136  THR136     -0.1203
     46  CA        93.5000   80.8380  133.9180 C.3   136  THR136      0.1994
     47  C         93.9340   80.0760  135.1730 C.2   136  THR136      0.2619
     48  O         95.1210   79.8300  135.3570 O.2   136  THR136     -0.2717
     49  CB        94.1120   82.2560  133.9200 C.3   136  THR136      0.1784
     50  OG1       93.6400   82.9980  135.0490 O.3   136  THR136     -0.2211
     51  CG2       93.7550   83.0000  132.6380 C.3   136  THR136      0.0376
     52  N         92.9790   79.6990  136.0250 N.am  137  SER137     -0.1937
     53  CA        93.2580   78.8010  137.1350 C.3   137  SER137      0.2055
     54  C         93.5810   77.4100  136.6200 C.2   137  SER137      0.2643
     55  O         92.9220   76.9100  135.7040 O.2   137  SER137     -0.2714
     56  CB        92.0670   78.7140  138.0940 C.3   137  SER137      0.2130
     57  OG        92.2360   77.6380  139.0020 O.3   137  SER137     -0.2179
     58  N         94.5830   76.7760  137.2220 N.am  138  GLY138     -0.1954
     59  CA        94.8780   75.3710  136.9420 C.3   138  GLY138      0.1869
     60  C         93.7230   74.4350  137.2970 C.2   138  GLY138      0.2309
     61  O         93.7100   73.2870  136.8700 O.2   138  GLY138     -0.2863
     62  N         90.4240   91.2650  136.6150 N.3   172  ASN172     -0.1240
     63  CA        91.2840   91.7060  137.7110 C.3   172  ASN172      0.1653
     64  C         92.6470   92.1040  137.1530 C.2   172  ASN172      0.2266
     65  O         92.8200   92.1750  135.9380 O.2   172  ASN172     -0.2867
     66  CB        91.3660   90.6640  138.8340 C.3   172  ASN172      0.1155
     67  CG        92.1750   89.4250  138.4600 C.2   172  ASN172      0.2627
     68  OD1       92.7860   89.3470  137.4000 O.2   172  ASN172     -0.2716
     69  ND2       92.1750   88.4470  139.3530 N.am  172  ASN172     -0.0877
     70  N         95.5360   90.8520  136.6220 N.3   174  ASN174     -0.1225
     71  CA        96.3040   89.9830  135.7260 C.3   174  ASN174      0.1785
     72  C         95.4730   88.9890  134.8910 C.2   174  ASN174      0.2597
     73  O         96.0240   88.0430  134.3310 O.2   174  ASN174     -0.2718
     74  CB        97.3600   89.2140  136.5300 C.3   174  ASN174      0.1169
     75  CG        96.7590   88.1310  137.4150 C.2   174  ASN174      0.2627
     76  OD1       95.5800   88.1760  137.7730 O.2   174  ASN174     -0.2716
     77  ND2       97.5760   87.1500  137.7750 N.am  174  ASN174     -0.0877
     78  N         94.1650   89.2050  134.7970 N.am  175  THR175     -0.1953
     79  CA        93.2930   88.2890  134.0490 C.3   175  THR175      0.1897
     80  C         92.3660   89.0870  133.1350 C.2   175  THR175      0.2313
     81  O         91.2420   89.4090  133.5160 O.2   175  THR175     -0.2863
     82  CB        92.4490   87.3980  134.9850 C.3   175  THR175      0.1794
     83  OG1       93.2700   86.8760  136.0320 O.3   175  THR175     -0.2208
     84  CG2       91.8340   86.2380  134.2110 C.3   175  THR175      0.0378
@<TRIPOS>BOND
     1    51    49    1
     2    80    81    2
     3    80    79    1
     4    31    32    1
     5    45    46    1
     6    46    49    1
     7    46    47    1
     8    49    50    1
     9    79    78    1
    10    79    82    1
    11    34    33    2
    12    84    82    1
    13    73    72    2
    14    33    32    1
    15    32    35    1
    16    78    72   am
    17    72    71    1
    18    82    83    1
    19    47    48    2
    20    47    52   am
    21    41    42    2
    22    41    40    1
    23    55    54    2
    24    71    74    1
    25    71    70    1
    26    35    36    1
    27    35    37    1
    28    65    64    2
    29    52    53    1
    30    44    43    1
    31    40    43    1
    32    40    39    1
    33    36    38    1
    34    74    75    1
    35    62    63    1
    36    54    53    1
    37    54    58   am
    38    61    60    2
    39    59    58    1
    40    59    60    1
    41    53    56    1
    42    64    63    1
    43    68    67    2
    44    75    76    2
    45    75    77   am
    46    63    66    1
    47    56    57    1
    48    67    66    1
    49    67    69   am
    50    20    18   ar
    51    20    22   ar
    52    17    18   ar
    53    17    15   ar
    54    18    16   ar
    55    30    28   ar
    56    22    21   ar
    57    29    28   ar
    58    15    14   ar
    59    28    27    1
    60    16    14   ar
    61    16    19   ar
    62    21    19   ar
    63    14    13    1
    64    27    24    1
    65    13    10    1
    66    24    23    1
    67    24    25    1
    68    23    11   am
    69     8     6   ar
    70    11    10    1
    71    11    12    2
    72    10     9    1
    73     7     6   ar
    74     6     5    1
    75    25    26    2
    76     5     2    1
    77     2     3    1
    78     2     1    1
    79     3     4    2
