@<TRIPOS>MOLECULE
tmp/5zvgB00.pdb
 205 200 0 0 0
SMALL
GASTEIGER

@<TRIPOS>ATOM
      1  N          2.1050   18.7670   20.4370 N.3   180  TYR180     -0.1241
      2  CA         2.1180   18.0330   19.1840 C.3   180  TYR180      0.1605
      3  C          0.7960   17.3020   19.0160 C.2   180  TYR180      0.2264
      4  O          0.4660   16.4240   19.8120 O.2   180  TYR180     -0.2867
      5  CB         3.2830   17.0390   19.1370 C.3   180  TYR180      0.0534
      6  CG         3.4220   16.3370   17.8010 C.ar  180  TYR180     -0.0201
      7  CD1        4.1270   16.9200   16.7540 C.ar  180  TYR180     -0.0009
      8  CD2        2.8300   15.0990   17.5820 C.ar  180  TYR180     -0.0009
      9  CE1        4.2470   16.2800   15.5290 C.ar  180  TYR180      0.0417
     10  CE2        2.9430   14.4590   16.3700 C.ar  180  TYR180      0.0417
     11  CZ         3.6530   15.0470   15.3480 C.ar  180  TYR180      0.1957
     12  OH         3.7560   14.3930   14.1440 O.3   180  TYR180     -0.2866
     13  N         -1.7960   14.6610   18.2300 N.3   182  GLN182     -0.1245
     14  CA        -1.5750   13.2190   18.2190 C.3   182  GLN182      0.1566
     15  C         -2.7410   12.4920   18.8770 C.2   182  GLN182      0.2260
     16  O         -3.2060   12.8950   19.9420 O.2   182  GLN182     -0.2867
     17  CB        -0.2630   12.8800   18.9360 C.3   182  GLN182      0.0367
     18  CG         0.1650   11.4200   18.8390 C.3   182  GLN182      0.0905
     19  CD         1.4570   11.1480   19.5980 C.2   182  GLN182      0.2608
     20  OE1        1.7200   11.7600   20.6340 O.2   182  GLN182     -0.2717
     21  NE2        2.2620   10.2180   19.0920 N.am  182  GLN182     -0.0878
     22  N         12.9130    3.2880   16.5400 N.3   203  ASP203     -0.1225
     23  CA        11.6470    3.5570   15.8800 C.3   203  ASP203      0.1805
     24  C         11.8880    3.3620   14.3940 C.2   203  ASP203      0.2598
     25  O         12.4850    4.2200   13.7460 O.2   203  ASP203     -0.2718
     26  CB        11.1640    4.9790   16.1790 C.3   203  ASP203      0.1424
     27  CG         9.7000    5.1840   15.8460 C.2   203  ASP203      0.3668
     28  OD1        9.1330    4.3620   15.0920 O.co2 203  ASP203     -0.2456
     29  OD2        9.1220    6.1850   16.3210 O.co2 203  ASP203     -0.2456
     30  N         11.4420    2.2380   13.8460 N.am  204  MET204     -0.1965
     31  CA        11.8800    1.8870   12.5000 C.3   204  MET204      0.1736
     32  C         10.9290    2.3710   11.4120 C.2   204  MET204      0.2616
     33  O         11.1730    2.1550   10.2300 O.2   204  MET204     -0.2715
     34  CB        12.0820    0.3820   12.3750 C.3   204  MET204      0.0427
     35  CG        10.8740   -0.4520   12.6770 C.3   204  MET204      0.0599
     36  SD        11.3180   -2.1720   12.3920 S.3   204  MET204     -0.1393
     37  CE        12.5900   -2.3360   13.6060 C.3   204  MET204      0.0692
     38  N          9.8520    3.0320   11.8140 N.am  205  ALA205     -0.1963
     39  CA         8.9770    3.7110   10.8700 C.3   205  ALA205      0.1728
     40  C          8.4910    4.9850   11.5410 C.2   205  ALA205      0.2616
     41  O          7.3320    5.0950   11.9410 O.2   205  ALA205     -0.2715
     42  CB         7.8200    2.8230   10.4630 C.3   205  ALA205      0.0334
     43  N          9.3940    5.9510   11.6560 N.am  206  ALA206     -0.1963
     44  CA         9.2530    6.9940   12.6600 C.3   206  ALA206      0.1728
     45  C          8.6330    8.2990   12.1790 C.2   206  ALA206      0.2616
     46  O          8.0230    9.0050   12.9750 O.2   206  ALA206     -0.2715
     47  CB        10.6130    7.2790   13.2750 C.3   206  ALA206      0.0334
     48  N          8.7470    8.6080   10.8910 N.am  207  ALA207     -0.1964
     49  CA         8.3490    9.9300   10.4020 C.3   207  ALA207      0.1713
     50  C          6.8330   10.0380   10.2860 C.2   207  ALA207      0.2458
     51  O          6.1710    9.0520    9.9790 O.2   207  ALA207     -0.2730
     52  CB         9.0110   10.2200    9.0620 C.3   207  ALA207      0.0333
     53  N          6.2690   11.2350   10.5340 N.am  208  PRO208     -0.2716
     54  CA         6.9000   12.5320   10.8320 C.3   208  PRO208      0.1536
     55  C          7.4030   12.7260   12.2720 C.2   208  PRO208      0.2599
     56  O          7.7960   13.8430   12.6210 O.2   208  PRO208     -0.2715
     57  CB         5.7810   13.5300   10.5280 C.3   208  PRO208      0.0310
     58  CG         4.5380   12.7800   10.8170 C.3   208  PRO208      0.0237
     59  CD         4.8060   11.3600   10.3980 C.3   208  PRO208      0.0939
     60  N          7.3710   11.6790   13.0920 N.am  209  GLY209     -0.1941
     61  CA         8.0160   11.7170   14.3930 C.3   209  GLY209      0.2014
     62  C          7.1100   11.9020   15.5910 C.2   209  GLY209      0.2639
     63  O          7.5750   12.2770   16.6700 O.2   209  GLY209     -0.2714
     64  N          5.8260   11.6090   15.4100 N.am  210  GLY210     -0.1939
     65  CA         4.8590   11.6810   16.4890 C.3   210  GLY210      0.2014
     66  C          5.2110   10.8570   17.7110 C.2   210  GLY210      0.2638
     67  O          5.3070   11.3860   18.8210 O.2   210  GLY210     -0.2714
     68  N          5.4050    9.5590   17.5200 N.am  211  LYS211     -0.1977
     69  CA         5.6940    8.6890   18.6510 C.3   211  LYS211      0.1596
     70  C          7.1520    8.8170   19.0910 C.2   211  LYS211      0.2287
     71  O          7.4620    8.6460   20.2700 O.2   211  LYS211     -0.2864
     72  CB         5.3630    7.2320   18.3070 C.3   211  LYS211      0.0298
     73  CG         3.8970    7.0160   17.9590 C.3   211  LYS211      0.0038
     74  CD         3.6230    5.6030   17.5000 C.3   211  LYS211      0.0206
     75  CE         2.1560    5.4340   17.1510 C.3   211  LYS211      0.1093
     76  NZ         1.8110    6.2620   15.9560 N.3   211  LYS211     -0.1314
     77  N         14.0490    5.6410   12.1760 N.3   228  ILE228     -0.1231
     78  CA        14.2600    5.2240   10.7980 C.3   228  ILE228      0.1692
     79  C         13.0660    5.5650    9.9270 C.2   228  ILE228      0.2592
     80  O         11.9240    5.3570   10.3350 O.2   228  ILE228     -0.2718
     81  CB        14.5020    3.7030   10.7070 C.3   228  ILE228      0.0266
     82  CG1       15.7050    3.2920   11.5500 C.3   228  ILE228      0.0019
     83  CG2       14.6680    3.2670    9.2630 C.3   228  ILE228      0.0020
     84  CD1       15.9440    1.8140   11.5800 C.3   228  ILE228      0.0001
     85  N         13.3240    6.1000    8.7380 N.am  229  ASP229     -0.1960
     86  CA        12.2920    6.1890    7.7070 C.3   229  ASP229      0.1840
     87  C         12.9090    6.1680    6.3180 C.2   229  ASP229      0.2622
     88  O         14.0250    6.6390    6.1170 O.2   229  ASP229     -0.2715
     89  CB        11.4390    7.4440    7.8710 C.3   229  ASP229      0.1450
     90  CG        10.0270    7.2480    7.3580 C.2   229  ASP229      0.3671
     91  OD1        9.8260    7.3360    6.1270 O.co2 229  ASP229     -0.2456
     92  OD2        9.1150    7.0150    8.1790 O.co2 229  ASP229     -0.2456
     93  N         12.1610    5.6420    5.3570 N.am  230  LYS230     -0.1963
     94  CA        12.6380    5.5440    3.9850 C.3   230  LYS230      0.1728
     95  C         12.4670    6.8650    3.2430 C.2   230  LYS230      0.2616
     96  O         13.2870    7.2190    2.3960 O.2   230  LYS230     -0.2715
     97  CB        11.8940    4.4300    3.2470 C.3   230  LYS230      0.0311
     98  CG        12.3970    4.1450    1.8450 C.3   230  LYS230      0.0038
     99  CD        11.5620    3.0560    1.1970 C.3   230  LYS230      0.0206
    100  CE        10.1390    3.5500    0.9340 C.3   230  LYS230      0.1093
    101  NZ         9.4030    2.6920   -0.0370 N.3   230  LYS230     -0.1314
    102  N         11.4140    7.6020    3.5870 N.am  231  SER231     -0.1950
    103  CA        11.0750    8.8420    2.8910 C.3   231  SER231      0.1924
    104  C         11.9010   10.0260    3.3880 C.2   231  SER231      0.2314
    105  O         11.8730   10.3520    4.5740 O.2   231  SER231     -0.2863
    106  CB         9.5830    9.1430    3.0540 C.3   231  SER231      0.2116
    107  OG         9.2110   10.2830    2.3040 O.3   231  SER231     -0.2180
    108  N          9.4550   13.1340    4.3260 N.3   234  ARG234     -0.1245
    109  CA         8.8480   12.9430    5.6350 C.3   234  ARG234      0.1563
    110  C          9.8760   13.0450    6.7640 C.2   234  ARG234      0.2260
    111  O          9.5640   13.5300    7.8510 O.2   234  ARG234     -0.2867
    112  CB         8.1310   11.5970    5.6750 C.3   234  ARG234      0.0307
    113  CG         6.9570   11.5300    4.7200 C.3   234  ARG234      0.0489
    114  CD         6.4000   10.1330    4.6440 C.3   234  ARG234      0.2205
    115  NE         5.8490    9.6920    5.9200 N.pl3 234  ARG234     -0.0865
    116  CZ         4.6600   10.0540    6.3870 C.cat 234  ARG234      0.5346
    117  NH1        3.8940   10.8690    5.6780 N.pl3 234  ARG234      0.1354
    118  NH2        4.2380    9.5950    7.5630 N.pl3 234  ARG234      0.1354
    119  N         16.7180    4.9230    5.4720 N.3   255  MET255     -0.1230
    120  CA        16.9540    3.5540    4.9960 C.3   255  MET255      0.1702
    121  C         15.6510    2.7710    4.9370 C.2   255  MET255      0.2592
    122  O         14.6640    3.1460    5.5680 O.2   255  MET255     -0.2718
    123  CB        17.9430    2.7900    5.8900 C.3   255  MET255      0.0401
    124  CG        17.3550    2.3130    7.2130 C.3   255  MET255      0.0596
    125  SD        18.4670    1.2890    8.2100 S.3   255  MET255     -0.1393
    126  CE        18.6160   -0.1610    7.1710 C.3   255  MET255      0.0692
    127  N         15.6580    1.6920    4.1570 N.am  256  ASP256     -0.1960
    128  CA        14.5810    0.7030    4.1620 C.3   256  ASP256      0.1840
    129  C         14.6970   -0.1220    5.4450 C.2   256  ASP256      0.2622
    130  O         15.6530   -0.8790    5.6190 O.2   256  ASP256     -0.2715
    131  CB        14.6600   -0.1910    2.9140 C.3   256  ASP256      0.1450
    132  CG        13.6070   -1.2960    2.8940 C.2   256  ASP256      0.3671
    133  OD1       12.6940   -1.3010    3.7440 O.co2 256  ASP256     -0.2456
    134  OD2       13.6930   -2.1720    2.0070 O.co2 256  ASP256     -0.2456
    135  N         13.7290    0.0370    6.3440 N.am  257  ALA257     -0.1963
    136  CA        13.7850   -0.5930    7.6600 C.3   257  ALA257      0.1728
    137  C         13.7280   -2.1150    7.5890 C.2   257  ALA257      0.2616
    138  O         14.0410   -2.7950    8.5640 O.2   257  ALA257     -0.2715
    139  CB        12.6650   -0.0730    8.5360 C.3   257  ALA257      0.0334
    140  N         13.3360   -2.6510    6.4380 N.am  258  ARG258     -0.1977
    141  CA        13.3130   -4.0990    6.2560 C.3   258  ARG258      0.1597
    142  C         14.7270   -4.6670    6.2220 C.2   258  ARG258      0.2287
    143  O         14.9240   -5.8630    6.4150 O.2   258  ARG258     -0.2864
    144  CB        12.5620   -4.4730    4.9790 C.3   258  ARG258      0.0334
    145  CG        11.0710   -4.1830    5.0410 C.3   258  ARG258      0.0492
    146  CD        10.4150   -4.3930    3.6900 C.3   258  ARG258      0.2205
    147  NE        11.0270   -3.5530    2.6680 N.pl3 258  ARG258     -0.0865
    148  CZ        10.7110   -3.5990    1.3800 C.cat 258  ARG258      0.5346
    149  NH1       11.3200   -2.7950    0.5220 N.pl3 258  ARG258      0.1354
    150  NH2        9.7830   -4.4480    0.9550 N.pl3 258  ARG258      0.1354
    151  N          5.6110    1.1310   14.3770 N.3   273  ASP273     -0.1225
    152  CA         4.3330    1.7240   14.0110 C.3   273  ASP273      0.1805
    153  C          4.2030    1.6820   12.4930 C.2   273  ASP273      0.2598
    154  O          4.5350    2.6350   11.7880 O.2   273  ASP273     -0.2718
    155  CB         4.2170    3.1420   14.5670 C.3   273  ASP273      0.1424
    156  CG         2.9100    3.7960   14.2150 C.2   273  ASP273      0.3668
    157  OD1        1.8440    3.2360   14.5610 O.co2 273  ASP273     -0.2456
    158  OD2        2.9540    4.9080   13.6470 O.co2 273  ASP273     -0.2456
    159  N          3.7110    0.5440   12.0180 N.am  274  ALA274     -0.1966
    160  CA         3.9250    0.0980   10.6520 C.3   274  ALA274      0.1713
    161  C          3.0290    0.7720    9.6200 C.2   274  ALA274      0.2458
    162  O          1.8810    1.1170    9.9110 O.2   274  ALA274     -0.2730
    163  CB         3.7430   -1.4190   10.5840 C.3   274  ALA274      0.0333
    164  N          3.5670    0.9710    8.4050 N.am  275  PRO275     -0.2716
    165  CA         2.7310    1.3490    7.2660 C.3   275  PRO275      0.1536
    166  C          1.6030    0.3420    7.1240 C.2   275  PRO275      0.2598
    167  O          1.8280   -0.8610    7.2830 O.2   275  PRO275     -0.2715
    168  CB         3.6950    1.2940    6.0740 C.3   275  PRO275      0.0310
    169  CG         4.8390    0.4470    6.5390 C.3   275  PRO275      0.0237
    170  CD         4.9640    0.7350    8.0050 C.3   275  PRO275      0.0939
    171  N          0.4010    0.8280    6.8540 N.am  276  CYS276     -0.1968
    172  CA        -0.7690   -0.0310    6.8560 C.3   276  CYS276      0.1712
    173  C         -1.8460    0.5200    5.9350 C.2   276  CYS276      0.2296
    174  O         -1.7180    1.6220    5.4000 O.2   276  CYS276     -0.2864
    175  CB        -1.3090   -0.1950    8.2830 C.3   276  CYS276      0.0983
    176  SG        -1.9350    1.3230    9.0540 S.3   276  CYS276     -0.0798
    177  N          3.6170   -7.2620    3.5270 N.3   300  TYR300     -0.1241
    178  CA         4.6990   -6.2790    3.4860 C.3   300  TYR300      0.1605
    179  C          5.1720   -5.9210    4.8970 C.2   300  TYR300      0.2264
    180  O          6.3470   -5.6400    5.1230 O.2   300  TYR300     -0.2867
    181  CB         4.2200   -5.0370    2.7230 C.3   300  TYR300      0.0534
    182  CG         5.1680   -3.8560    2.6670 C.ar  300  TYR300     -0.0201
    183  CD1        6.3750   -3.9420    1.9850 C.ar  300  TYR300     -0.0009
    184  CD2        4.8180   -2.6280    3.2250 C.ar  300  TYR300     -0.0009
    185  CE1        7.2330   -2.8570    1.9060 C.ar  300  TYR300      0.0417
    186  CE2        5.6690   -1.5350    3.1450 C.ar  300  TYR300      0.0417
    187  CZ         6.8740   -1.6580    2.4840 C.ar  300  TYR300      0.1957
    188  OH         7.7340   -0.5900    2.3920 O.3   300  TYR300     -0.2866
    189  N          9.0670   -6.0840    7.9080 N.3   304  PHE304     -0.1241
    190  CA         9.4490   -5.1870    9.0050 C.3   304  PHE304      0.1605
    191  C          9.5510   -5.9420   10.3170 C.2   304  PHE304      0.2264
    192  O         10.5070   -5.7820   11.0770 O.2   304  PHE304     -0.2867
    193  CB         8.4420   -4.0470    9.1850 C.3   304  PHE304      0.0534
    194  CG         8.3780   -3.0900    8.0380 C.ar  304  PHE304     -0.0203
    195  CD1        7.7230   -3.4280    6.8630 C.ar  304  PHE304     -0.0042
    196  CD2        8.9480   -1.8310    8.1450 C.ar  304  PHE304     -0.0042
    197  CE1        7.6530   -2.5290    5.8090 C.ar  304  PHE304     -0.0003
    198  CE2        8.8830   -0.9260    7.0960 C.ar  304  PHE304     -0.0003
    199  CZ         8.2350   -1.2740    5.9280 C.ar  304  PHE304     -0.0000
    200  N         -2.7970    1.9130   12.3880 N.3   323  CYS323     -0.1235
    201  CA        -4.0660    2.6290   12.3640 C.3   323  CYS323      0.1677
    202  C         -5.0480    1.9690   11.3930 C.2   323  CYS323      0.2270
    203  O         -5.6980    2.6420   10.5980 O.2   323  CYS323     -0.2867
    204  CB        -3.8400    4.1020   12.0010 C.3   323  CYS323      0.0956
    205  SG        -2.9830    4.3680   10.4350 S.3   323  CYS323     -0.0801
@<TRIPOS>BOND
     1   101   100    1
     2   149   148    1
     3   100    99    1
     4   150   148    1
     5    99    98    1
     6   148   147    2
     7    98    97    1
     8   185   183   ar
     9   185   187   ar
    10   183   182   ar
    11   134   132   ar
    12   107   106    1
    13   188   187    1
    14    96    95    2
    15   187   186   ar
    16   182   181    1
    17   182   184   ar
    18   147   146    1
    19   181   178    1
    20   103   106    1
    21   103   104    1
    22   103   102    1
    23   132   131    1
    24   132   133   ar
    25   131   128    1
    26   186   184   ar
    27    95   102   am
    28    95    94    1
    29    97    94    1
    30   104   105    2
    31   178   177    1
    32   178   179    1
    33   146   145    1
    34    94    93    1
    35   127   128    1
    36   127   121   am
    37   128   129    1
    38   108   109    1
    39   114   113    1
    40   114   115    1
    41   113   112    1
    42   179   180    2
    43   121   120    1
    44   121   122    2
    45   144   145    1
    46   144   141    1
    47   120   119    1
    48   120   123    1
    49    93    87   am
    50   174   173    2
    51   129   130    2
    52   129   135   am
    53   109   112    1
    54   109   110    1
    55   117   116    1
    56   197   199   ar
    57   197   195   ar
    58   123   124    1
    59   115   116    2
    60   199   198   ar
    61   173   172    1
    62   168   169    1
    63   168   165    1
    64    88    87    2
    65    91    90   ar
    66   142   141    1
    67   142   143    2
    68   141   140    1
    69    87    86    1
    70   135   136    1
    71   116   118    1
    72   140   137   am
    73   169   170    1
    74   110   111    2
    75   171   172    1
    76   171   166   am
    77   172   175    1
    78   195   194   ar
    79   198   196   ar
    80   166   165    1
    81   166   167    2
    82   126   125    1
    83   124   125    1
    84   165   164    1
    85    90    89    1
    86    90    92   ar
    87   137   136    1
    88   137   138    2
    89   136   139    1
    90    86    89    1
    91    86    85    1
    92   189   190    1
    93   170   164    1
    94   194   196   ar
    95   194   193    1
    96   175   176    1
    97   164   161   am
    98    85    79   am
    99   190   193    1
   100   190   191    1
   101    52    49    1
   102    83    81    1
   103   161   162    2
   104   161   160    1
   105    79    80    2
   106    79    78    1
   107    51    50    2
   108    33    32    2
   109    50    49    1
   110    50    53   am
   111   191   192    2
   112    59    53    1
   113    59    58    1
   114    49    48    1
   115   205   204    1
   116    42    39    1
   117    57    58    1
   118    57    54    1
   119    53    54    1
   120   163   160    1
   121   203   202    2
   122   160   159    1
   123    81    78    1
   124    81    82    1
   125    78    77    1
   126    54    55    1
   127    39    40    1
   128    39    38    1
   129    48    45   am
   130   202   201    1
   131    32    38   am
   132    32    31    1
   133    40    43   am
   134    40    41    2
   135    82    84    1
   136    43    44    1
   137   154   153    2
   138   204   201    1
   139   159   153   am
   140    45    44    1
   141    45    46    2
   142    55    56    2
   143    55    60   am
   144   201   200    1
   145    34    31    1
   146    34    35    1
   147    36    35    1
   148    36    37    1
   149   153   152    1
   150    31    30    1
   151    44    47    1
   152    60    61    1
   153   158   156   ar
   154    25    24    2
   155    30    24   am
   156   152   151    1
   157   152   155    1
   158    12    11    1
   159   156   157   ar
   160   156   155    1
   161    61    62    1
   162    24    23    1
   163    28    27   ar
   164    11     9   ar
   165    11    10   ar
   166    64    62   am
   167    64    65    1
   168     9     7   ar
   169    62    63    2
   170    27    26    1
   171    27    29   ar
   172    23    26    1
   173    23    22    1
   174    76    75    1
   175    10     8   ar
   176    65    66    1
   177     7     6   ar
   178    75    74    1
   179    74    73    1
   180    68    66   am
   181    68    69    1
   182     8     6   ar
   183    66    67    2
   184     6     5    1
   185    73    72    1
   186    14    13    1
   187    14    15    1
   188    14    17    1
   189    72    69    1
   190    69    70    1
   191    18    17    1
   192    18    19    1
   193    15    16    2
   194     3     2    1
   195     3     4    2
   196    70    71    2
   197    21    19   am
   198     5     2    1
   199     2     1    1
   200    19    20    2
