@<TRIPOS>MOLECULE
tmp/5zvhB00.pdb
 195 190 0 0 0
SMALL
GASTEIGER

@<TRIPOS>ATOM
      1  N        -11.4380  -18.5700   65.0220 N.3   180  TYR180     -0.1241
      2  CA       -11.4140  -19.2790   63.7530 C.3   180  TYR180      0.1605
      3  C        -12.7270  -20.0180   63.5930 C.2   180  TYR180      0.2264
      4  O        -13.0790  -20.8500   64.4320 O.2   180  TYR180     -0.2867
      5  CB       -10.2430  -20.2600   63.6610 C.3   180  TYR180      0.0534
      6  CG       -10.1210  -20.8910   62.2860 C.ar  180  TYR180     -0.0201
      7  CD1       -9.4450  -20.2420   61.2610 C.ar  180  TYR180     -0.0009
      8  CD2      -10.6980  -22.1210   62.0070 C.ar  180  TYR180     -0.0009
      9  CE1       -9.3420  -20.8050   60.0000 C.ar  180  TYR180      0.0417
     10  CE2      -10.5990  -22.6900   60.7480 C.ar  180  TYR180      0.0417
     11  CZ        -9.9170  -22.0290   59.7500 C.ar  180  TYR180      0.1957
     12  OH        -9.8120  -22.5930   58.4980 O.3   180  TYR180     -0.2866
     13  N        -15.2540  -22.6890   62.8360 N.3   182  GLN182     -0.1245
     14  CA       -15.0160  -24.1210   62.8500 C.3   182  GLN182      0.1566
     15  C        -16.1790  -24.8370   63.5240 C.2   182  GLN182      0.2260
     16  O        -16.6590  -24.4010   64.5710 O.2   182  GLN182     -0.2867
     17  CB       -13.7120  -24.4450   63.5750 C.3   182  GLN182      0.0367
     18  CG       -13.3160  -25.8940   63.4570 C.3   182  GLN182      0.0905
     19  CD       -12.0510  -26.2190   64.2150 C.2   182  GLN182      0.2608
     20  OE1      -11.7890  -25.6640   65.2830 O.2   182  GLN182     -0.2717
     21  NE2      -11.2600  -27.1320   63.6680 N.am  182  GLN182     -0.0878
     22  N         -0.6430  -33.9420   61.0220 N.3   203  ASP203     -0.1225
     23  CA        -1.9140  -33.6420   60.3790 C.3   203  ASP203      0.1805
     24  C         -1.6960  -33.8120   58.8820 C.2   203  ASP203      0.2598
     25  O         -1.1300  -32.9320   58.2380 O.2   203  ASP203     -0.2718
     26  CB        -2.3580  -32.2130   60.7130 C.3   203  ASP203      0.1424
     27  CG        -3.8080  -31.9450   60.3660 C.2   203  ASP203      0.3668
     28  OD1       -4.3970  -32.7130   59.5810 O.co2 203  ASP203     -0.2456
     29  OD2       -4.3570  -30.9410   60.8610 O.co2 203  ASP203     -0.2456
     30  N         -2.1310  -34.9350   58.3190 N.am  204  MET204     -0.1965
     31  CA        -1.6830  -35.2770   56.9700 C.3   204  MET204      0.1736
     32  C         -2.6120  -34.8090   55.8590 C.2   204  MET204      0.2616
     33  O         -2.3500  -35.0650   54.6870 O.2   204  MET204     -0.2715
     34  CB        -1.4550  -36.7810   56.8440 C.3   204  MET204      0.0427
     35  CG        -2.6440  -37.6510   57.1400 C.3   204  MET204      0.0599
     36  SD        -2.1660  -39.3720   56.8860 S.3   204  MET204     -0.1393
     37  CE        -0.9130  -39.5070   58.1180 C.3   204  MET204      0.0692
     38  N         -3.6950  -34.1330   56.2210 N.am  205  ALA205     -0.1963
     39  CA        -4.5350  -33.4400   55.2420 C.3   205  ALA205      0.1728
     40  C         -5.0450  -32.1720   55.9110 C.2   205  ALA205      0.2616
     41  O         -6.2150  -32.0800   56.2820 O.2   205  ALA205     -0.2715
     42  CB        -5.6820  -34.3220   54.7710 C.3   205  ALA205      0.0334
     43  N         -4.1520  -31.1990   56.0620 N.am  206  ALA206     -0.1963
     44  CA        -4.3210  -30.1680   57.0740 C.3   206  ALA206      0.1728
     45  C         -4.9270  -28.8520   56.6050 C.2   206  ALA206      0.2616
     46  O         -5.4980  -28.1260   57.4150 O.2   206  ALA206     -0.2715
     47  CB        -2.9750  -29.8940   57.7290 C.3   206  ALA206      0.0334
     48  N         -4.8280  -28.5330   55.3200 N.am  207  ALA207     -0.1964
     49  CA        -5.2310  -27.1980   54.8770 C.3   207  ALA207      0.1713
     50  C         -6.7510  -27.0900   54.7700 C.2   207  ALA207      0.2458
     51  O         -7.4150  -28.0540   54.3900 O.2   207  ALA207     -0.2730
     52  CB        -4.5690  -26.8630   53.5460 C.3   207  ALA207      0.0333
     53  N         -7.3140  -25.9100   55.0860 N.am  208  PRO208     -0.2716
     54  CA        -6.6910  -24.6260   55.4520 C.3   208  PRO208      0.1536
     55  C         -6.2270  -24.4710   56.9120 C.2   208  PRO208      0.2599
     56  O         -5.8770  -23.3560   57.3060 O.2   208  PRO208     -0.2715
     57  CB        -7.8010  -23.6150   55.1460 C.3   208  PRO208      0.0310
     58  CG        -9.0560  -24.3780   55.3820 C.3   208  PRO208      0.0237
     59  CD        -8.7760  -25.7860   54.9400 C.3   208  PRO208      0.0939
     60  N         -6.2360  -25.5420   57.7010 N.am  209  GLY209     -0.1941
     61  CA        -5.6010  -25.5040   59.0090 C.3   209  GLY209      0.2014
     62  C         -6.5080  -25.3120   60.2090 C.2   209  GLY209      0.2639
     63  O         -6.0490  -24.9120   61.2820 O.2   209  GLY209     -0.2714
     64  N         -7.7920  -25.6000   60.0280 N.am  210  GLY210     -0.1939
     65  CA        -8.7610  -25.5350   61.1040 C.3   210  GLY210      0.2014
     66  C         -8.4000  -26.3880   62.3050 C.2   210  GLY210      0.2639
     67  O         -8.2940  -25.8900   63.4280 O.2   210  GLY210     -0.2714
     68  N         -8.2090  -27.6810   62.0740 N.am  211  LYS211     -0.1963
     69  CA        -7.9110  -28.5970   63.1630 C.3   211  LYS211      0.1728
     70  C         -6.4610  -28.4700   63.5970 C.2   211  LYS211      0.2616
     71  O         -6.1390  -28.6580   64.7690 O.2   211  LYS211     -0.2715
     72  CB        -8.2180  -30.0350   62.7410 C.3   211  LYS211      0.0311
     73  CG        -9.6790  -30.2630   62.3790 C.3   211  LYS211      0.0038
     74  CD        -9.9090  -31.6580   61.8330 C.3   211  LYS211      0.0206
     75  CE       -11.3820  -31.8630   61.5180 C.3   211  LYS211      0.1093
     76  NZ       -11.8260  -30.9660   60.4180 N.3   211  LYS211     -0.1314
     77  N         -5.5980  -28.1030   62.6530 N.am  212  THR212     -0.1951
     78  CA        -4.1700  -27.9750   62.9230 C.3   212  THR212      0.1897
     79  C         -3.8930  -26.8680   63.9250 C.2   212  THR212      0.2313
     80  O         -3.1460  -27.0580   64.8810 O.2   212  THR212     -0.2863
     81  CB        -3.3740  -27.6900   61.6460 C.3   212  THR212      0.1794
     82  OG1       -3.6610  -28.6980   60.6690 O.3   212  THR212     -0.2208
     83  CG2       -1.8830  -27.6790   61.9460 C.3   212  THR212      0.0378
     84  N          0.5060  -31.4920   56.6850 N.3   228  ILE228     -0.1231
     85  CA         0.7250  -31.8880   55.3030 C.3   228  ILE228      0.1692
     86  C         -0.4730  -31.5230   54.4390 C.2   228  ILE228      0.2592
     87  O         -1.6160  -31.6700   54.8680 O.2   228  ILE228     -0.2718
     88  CB         0.9770  -33.4080   55.1880 C.3   228  ILE228      0.0266
     89  CG1        2.1990  -33.8160   56.0050 C.3   228  ILE228      0.0019
     90  CG2        1.1430  -33.8210   53.7440 C.3   228  ILE228      0.0020
     91  CD1        2.4630  -35.2970   56.0110 C.3   228  ILE228      0.0001
     92  N         -0.2100  -31.0060   53.2440 N.am  229  ASP229     -0.1960
     93  CA        -1.2460  -30.8810   52.2230 C.3   229  ASP229      0.1840
     94  C         -0.6510  -30.9620   50.8220 C.2   229  ASP229      0.2622
     95  O          0.4740  -30.5320   50.5850 O.2   229  ASP229     -0.2715
     96  CB        -2.0300  -29.5810   52.3870 C.3   229  ASP229      0.1450
     97  CG        -3.4320  -29.6790   51.8160 C.2   229  ASP229      0.3671
     98  OD1       -3.5830  -29.4940   50.5890 O.co2 229  ASP229     -0.2456
     99  OD2       -4.3800  -29.9540   52.5880 O.co2 229  ASP229     -0.2456
    100  N         -1.4280  -31.4920   49.8870 N.am  230  LYS230     -0.1963
    101  CA        -0.9430  -31.6620   48.5280 C.3   230  LYS230      0.1728
    102  C         -1.0460  -30.3470   47.7600 C.2   230  LYS230      0.2616
    103  O         -0.2120  -30.0520   46.9060 O.2   230  LYS230     -0.2715
    104  CB        -1.7260  -32.7670   47.8170 C.3   230  LYS230      0.0311
    105  CG        -1.1910  -33.1400   46.4490 C.3   230  LYS230      0.0038
    106  CD        -2.0350  -34.2350   45.8160 C.3   230  LYS230      0.0206
    107  CE        -3.4240  -33.7160   45.4570 C.3   230  LYS230      0.1093
    108  NZ        -4.1210  -34.6170   44.4980 N.3   230  LYS230     -0.1314
    109  N         -2.0630  -29.5560   48.0870 N.am  231  SER231     -0.1950
    110  CA        -2.3410  -28.3010   47.3920 C.3   231  SER231      0.1924
    111  C         -1.4870  -27.1390   47.8950 C.2   231  SER231      0.2314
    112  O         -1.4460  -26.8570   49.0920 O.2   231  SER231     -0.2863
    113  CB        -3.8220  -27.9370   47.5250 C.3   231  SER231      0.2116
    114  OG        -4.1230  -26.7730   46.7770 O.3   231  SER231     -0.2180
    115  N         -3.9300  -24.0520   48.9210 N.3   234  ARG234     -0.1245
    116  CA        -4.5530  -24.3080   50.2050 C.3   234  ARG234      0.1563
    117  C         -3.5350  -24.2160   51.3370 C.2   234  ARG234      0.2260
    118  O         -3.8650  -23.7470   52.4230 O.2   234  ARG234     -0.2867
    119  CB        -5.2590  -25.6690   50.1840 C.3   234  ARG234      0.0307
    120  CG        -6.4340  -25.7060   49.2090 C.3   234  ARG234      0.0489
    121  CD        -7.0550  -27.0790   49.1440 C.3   234  ARG234      0.2205
    122  NE        -7.6080  -27.4550   50.4390 N.pl3 234  ARG234     -0.0865
    123  CZ        -8.7460  -26.9830   50.9370 C.cat 234  ARG234      0.5346
    124  NH1       -9.4620  -26.1060   50.2460 N.pl3 234  ARG234      0.1354
    125  NH2       -9.1660  -27.3840   52.1320 N.pl3 234  ARG234      0.1354
    126  N          3.1780  -32.2570   49.9700 N.3   255  MET255     -0.1230
    127  CA         3.4200  -33.6230   49.4910 C.3   255  MET255      0.1702
    128  C          2.1250  -34.4150   49.4240 C.2   255  MET255      0.2592
    129  O          1.1400  -34.0630   50.0670 O.2   255  MET255     -0.2718
    130  CB         4.4240  -34.3800   50.3880 C.3   255  MET255      0.0401
    131  CG         3.8600  -34.8780   51.7150 C.3   255  MET255      0.0596
    132  SD         5.0320  -35.8540   52.6910 S.3   255  MET255     -0.1393
    133  CE         5.2590  -37.2930   51.6490 C.3   255  MET255      0.0692
    134  N          2.1390  -35.4790   48.6260 N.am  256  ASP256     -0.1960
    135  CA         1.0660  -36.4680   48.6140 C.3   256  ASP256      0.1840
    136  C          1.1900  -37.2960   49.8870 C.2   256  ASP256      0.2622
    137  O          2.1560  -38.0420   50.0540 O.2   256  ASP256     -0.2715
    138  CB         1.1500  -37.3530   47.3670 C.3   256  ASP256      0.1450
    139  CG         0.0740  -38.4260   47.3250 C.2   256  ASP256      0.3671
    140  OD1       -0.8620  -38.3840   48.1490 O.co2 256  ASP256     -0.2456
    141  OD2        0.1770  -39.3300   46.4700 O.co2 256  ASP256     -0.2456
    142  N          0.2190  -37.1520   50.7840 N.am  257  ALA257     -0.1963
    143  CA         0.2880  -37.7770   52.0990 C.3   257  ALA257      0.1728
    144  C          0.2540  -39.3000   52.0290 C.2   257  ALA257      0.2616
    145  O          0.6210  -39.9770   52.9900 O.2   257  ALA257     -0.2715
    146  CB        -0.8420  -37.2740   52.9670 C.3   257  ALA257      0.0334
    147  N         -0.1570  -39.8350   50.8830 N.am  258  ARG258     -0.1977
    148  CA        -0.1780  -41.2830   50.6850 C.3   258  ARG258      0.1597
    149  C          1.2310  -41.8550   50.6310 C.2   258  ARG258      0.2287
    150  O          1.4260  -43.0590   50.7660 O.2   258  ARG258     -0.2864
    151  CB        -0.9440  -41.6370   49.4130 C.3   258  ARG258      0.0334
    152  CG        -2.4350  -41.3460   49.5010 C.3   258  ARG258      0.0492
    153  CD        -3.1020  -41.5360   48.1610 C.3   258  ARG258      0.2205
    154  NE        -2.5050  -40.6790   47.1480 N.pl3 258  ARG258     -0.0865
    155  CZ        -2.8390  -40.7070   45.8650 C.cat 258  ARG258      0.5346
    156  NH1       -2.2500  -39.8870   45.0070 N.pl3 258  ARG258      0.1354
    157  NH2       -3.7500  -41.5730   45.4380 N.pl3 258  ARG258      0.1354
    158  N         -7.9220  -36.1430   58.7460 N.3   273  ASP273     -0.1239
    159  CA        -9.2090  -35.5810   58.3800 C.3   273  ASP273      0.1674
    160  C         -9.3300  -35.6960   56.8720 C.2   273  ASP273      0.2266
    161  O         -9.0420  -34.7580   56.1300 O.2   273  ASP273     -0.2867
    162  CB        -9.3260  -34.1320   58.8500 C.3   273  ASP273      0.1410
    163  CG       -10.6700  -33.5220   58.5290 C.2   273  ASP273      0.3668
    164  OD1      -11.6980  -34.2180   58.6950 O.co2 273  ASP273     -0.2456
    165  OD2      -10.6960  -32.3380   58.1260 O.co2 273  ASP273     -0.2456
    166  N         -9.9880  -36.3550   52.8830 N.3   275  PRO275     -0.2116
    167  CA       -10.8540  -35.9400   51.7810 C.3   275  PRO275      0.1372
    168  C        -11.9540  -36.9760   51.5960 C.2   275  PRO275      0.2244
    169  O        -11.6930  -38.1770   51.6690 O.2   275  PRO275     -0.2868
    170  CB        -9.9030  -35.8840   50.5770 C.3   275  PRO275      0.0268
    171  CG        -8.7220  -36.7030   50.9770 C.3   275  PRO275      0.0207
    172  CD        -8.5870  -36.5020   52.4550 C.3   275  PRO275      0.0892
    173  N         -9.9130  -44.5360   47.8950 N.3   300  TYR300     -0.1241
    174  CA        -8.8470  -43.5440   47.8580 C.3   300  TYR300      0.1605
    175  C         -8.3470  -43.2160   49.2660 C.2   300  TYR300      0.2264
    176  O         -7.1660  -42.9570   49.4620 O.2   300  TYR300     -0.2867
    177  CB        -9.3570  -42.2900   47.1310 C.3   300  TYR300      0.0534
    178  CG        -8.4570  -41.0720   47.1340 C.ar  300  TYR300     -0.0201
    179  CD1       -7.2050  -41.0990   46.5270 C.ar  300  TYR300     -0.0009
    180  CD2       -8.8880  -39.8750   47.6880 C.ar  300  TYR300     -0.0009
    181  CE1       -6.3930  -39.9760   46.5120 C.ar  300  TYR300      0.0417
    182  CE2       -8.0840  -38.7470   47.6740 C.ar  300  TYR300      0.0417
    183  CZ        -6.8410  -38.8030   47.0880 C.ar  300  TYR300      0.1957
    184  OH        -6.0410  -37.6840   47.0730 O.3   300  TYR300     -0.2866
    185  N         -4.4280  -43.3280   52.2680 N.3   304  PHE304     -0.1241
    186  CA        -4.0730  -42.4410   53.3780 C.3   304  PHE304      0.1605
    187  C         -3.9700  -43.2040   54.6800 C.2   304  PHE304      0.2264
    188  O         -3.0140  -43.0520   55.4370 O.2   304  PHE304     -0.2867
    189  CB        -5.0980  -41.3240   53.5600 C.3   304  PHE304      0.0534
    190  CG        -5.1640  -40.3640   52.4230 C.ar  304  PHE304     -0.0203
    191  CD1       -5.8150  -40.6990   51.2460 C.ar  304  PHE304     -0.0042
    192  CD2       -4.5820  -39.1130   52.5340 C.ar  304  PHE304     -0.0042
    193  CE1       -5.8760  -39.8020   50.1970 C.ar  304  PHE304     -0.0003
    194  CE2       -4.6410  -38.2120   51.4910 C.ar  304  PHE304     -0.0003
    195  CZ        -5.2880  -38.5560   50.3210 C.ar  304  PHE304     -0.0000
@<TRIPOS>BOND
     1   108   107    1
     2   156   155    1
     3   157   155    1
     4   107   106    1
     5   106   105    1
     6   155   154    2
     7   105   104    1
     8   141   139   ar
     9   181   179   ar
    10   181   183   ar
    11   179   178   ar
    12   114   113    1
    13   103   102    2
    14   184   183    1
    15   183   182   ar
    16   177   178    1
    17   177   174    1
    18   178   180   ar
    19   154   153    1
    20   139   138    1
    21   139   140   ar
    22   138   135    1
    23   110   113    1
    24   110   111    1
    25   110   109    1
    26   182   180   ar
    27   102   109   am
    28   102   101    1
    29   104   101    1
    30   174   173    1
    31   174   175    1
    32   111   112    2
    33   153   152    1
    34   101   100    1
    35   135   134    1
    36   135   136    1
    37   134   128   am
    38   115   116    1
    39   121   120    1
    40   121   122    1
    41   120   119    1
    42   175   176    2
    43   151   152    1
    44   151   148    1
    45   128   127    1
    46   128   129    2
    47   127   126    1
    48   127   130    1
    49   136   137    2
    50   136   142   am
    51   100    94   am
    52   119   116    1
    53   193   195   ar
    54   193   191   ar
    55   116   117    1
    56   124   123    1
    57   195   194   ar
    58   130   131    1
    59   122   123    2
    60   170   171    1
    61   170   167    1
    62    95    94    2
    63    98    97   ar
    64   149   148    1
    65   149   150    2
    66   148   147    1
    67   142   143    1
    68    94    93    1
    69   147   144   am
    70   123   125    1
    71   171   172    1
    72   191   190   ar
    73   117   118    2
    74   194   192   ar
    75   168   169    2
    76   168   167    1
    77   133   132    1
    78   131   132    1
    79   167   166    1
    80    97    96    1
    81    97    99   ar
    82   144   143    1
    83   144   145    2
    84   143   146    1
    85    93    96    1
    86    93    92    1
    87   185   186    1
    88   190   192   ar
    89   190   189    1
    90   172   166    1
    91    92    86   am
    92   186   189    1
    93   186   187    1
    94    52    49    1
    95    90    88    1
    96    51    50    2
    97    86    87    2
    98    86    85    1
    99   187   188    2
   100    33    32    2
   101    50    49    1
   102    50    53   am
   103    42    39    1
   104    49    48    1
   105    59    53    1
   106    59    58    1
   107    53    54    1
   108    57    58    1
   109    57    54    1
   110    88    85    1
   111    88    89    1
   112    39    40    1
   113    39    38    1
   114    85    84    1
   115    48    45   am
   116    54    55    1
   117    32    38   am
   118    32    31    1
   119    40    43   am
   120    40    41    2
   121    89    91    1
   122    43    44    1
   123   161   160    2
   124    45    44    1
   125    45    46    2
   126    34    31    1
   127    34    35    1
   128   160   159    1
   129    36    35    1
   130    36    37    1
   131    55    56    2
   132    55    60   am
   133    31    30    1
   134    44    47    1
   135    60    61    1
   136   165   163   ar
   137    25    24    2
   138    30    24   am
   139   159   158    1
   140   159   162    1
   141    12    11    1
   142   163   164   ar
   143   163   162    1
   144    24    23    1
   145    61    62    1
   146    28    27   ar
   147    11     9   ar
   148    11    10   ar
   149     9     7   ar
   150    64    62   am
   151    64    65    1
   152    62    63    2
   153    27    26    1
   154    27    29   ar
   155    23    26    1
   156    23    22    1
   157    76    75    1
   158    82    81    1
   159    10     8   ar
   160    65    66    1
   161     7     6   ar
   162    75    74    1
   163    81    83    1
   164    81    78    1
   165    74    73    1
   166     8     6   ar
   167    68    66   am
   168    68    69    1
   169     6     5    1
   170    66    67    2
   171    73    72    1
   172    77    78    1
   173    77    70   am
   174    72    69    1
   175    13    14    1
   176    14    15    1
   177    14    17    1
   178    78    79    1
   179    69    70    1
   180    18    17    1
   181    18    19    1
   182    15    16    2
   183     3     2    1
   184     3     4    2
   185    70    71    2
   186     5     2    1
   187    21    19   am
   188     2     1    1
   189    79    80    2
   190    19    20    2
