@<TRIPOS>MOLECULE
tmp/5zw4A00.pdb
 200 193 0 0 0
SMALL
GASTEIGER

@<TRIPOS>ATOM
      1  N        -20.0810   15.4580  -27.7160 N.3    35  PRO35      -0.2102
      2  CA       -20.1670   14.3230  -28.6290 C.3    35  PRO35       0.1504
      3  C        -21.5580   14.4280  -29.2450 C.2    35  PRO35       0.2576
      4  O        -22.5310   14.7320  -28.5590 O.2    35  PRO35      -0.2718
      5  CB       -20.0190   13.0920  -27.7250 C.3    35  PRO35       0.0282
      6  CG       -19.9310   13.5870  -26.3240 C.3    35  PRO35       0.0208
      7  CD       -20.2360   15.0580  -26.3070 C.3    35  PRO35       0.0893
      8  N        -21.6530   14.2900  -30.5560 N.am   36  ILE36      -0.1966
      9  CA       -22.9700   14.1960  -31.1660 C.3    36  ILE36       0.1727
     10  C        -22.8000   13.0460  -32.1390 C.2    36  ILE36       0.2616
     11  O        -21.6850   12.6210  -32.4110 O.2    36  ILE36      -0.2715
     12  CB       -23.4800   15.4830  -31.8080 C.3    36  ILE36       0.0290
     13  CG1      -22.6960   15.8310  -33.0710 C.3    36  ILE36       0.0022
     14  CG2      -23.5950   16.5840  -30.7610 C.3    36  ILE36       0.0023
     15  CD1      -23.3670   16.9150  -33.8860 C.3    36  ILE36       0.0001
     16  N        -23.8990   12.4590  -32.5720 N.am   37  MET37      -0.1977
     17  CA       -23.7930   11.3120  -33.4770 C.3    37  MET37       0.1605
     18  C        -22.9640   11.6650  -34.7010 C.2    37  MET37       0.2287
     19  O        -23.1700   12.7000  -35.3140 O.2    37  MET37      -0.2864
     20  CB       -25.2120   10.9260  -33.8420 C.3    37  MET37       0.0413
     21  CG       -25.2690    9.4260  -34.0850 C.3    37  MET37       0.0598
     22  SD       -26.8770    8.9100  -34.6910 S.3    37  MET37      -0.1393
     23  CE       -26.3800    7.2310  -35.0740 C.3    37  MET37       0.0692
     24  N        -35.2830    8.2780  -26.5840 N.3    59  GLU59      -0.1231
     25  CA       -33.8480    8.3790  -26.7730 C.3    59  GLU59       0.1699
     26  C        -33.1880    8.5340  -25.4060 C.2    59  GLU59       0.2592
     27  O        -33.6280    9.3450  -24.5660 O.2    59  GLU59      -0.2718
     28  CB       -33.5670    9.6140  -27.6210 C.3    59  GLU59       0.0402
     29  CG       -32.0810    9.9320  -27.6920 C.3    59  GLU59       0.1161
     30  CD       -31.7860   11.1780  -28.4920 C.2    59  GLU59       0.3649
     31  OE1      -32.0500   12.2770  -27.9400 O.co2  59  GLU59      -0.2457
     32  OE2      -31.3020   11.0130  -29.6460 O.co2  59  GLU59      -0.2457
     33  N        -32.1870    7.6990  -25.1600 N.am   60  ILE60      -0.1966
     34  CA       -31.3690    7.7660  -23.9590 C.3    60  ILE60       0.1727
     35  C        -30.0780    8.4640  -24.2990 C.2    60  ILE60       0.2617
     36  O        -29.2680    7.9040  -25.0410 O.2    60  ILE60      -0.2715
     37  CB       -31.1720    6.3590  -23.4270 C.3    60  ILE60       0.0290
     38  CG1      -32.5330    5.7750  -23.0660 C.3    60  ILE60       0.0022
     39  CG2      -30.3880    6.3850  -22.1090 C.3    60  ILE60       0.0023
     40  CD1      -32.5360    4.2900  -22.8540 C.3    60  ILE60       0.0001
     41  N        -29.9040    9.6950  -23.8280 N.am   61  GLY61      -0.1940
     42  CA       -28.7190   10.4480  -24.1340 C.3    61  GLY61       0.2014
     43  C        -28.9240   11.6000  -25.0780 C.2    61  GLY61       0.2640
     44  O        -28.5530   11.5620  -26.2340 O.2    61  GLY61      -0.2714
     45  N        -29.4980   12.6950  -24.6020 N.am   62  THR62      -0.1936
     46  CA       -29.8450   13.8120  -25.4890 C.3    62  THR62       0.2028
     47  C        -28.6430   14.6540  -25.9510 C.2    62  THR62       0.2642
     48  O        -28.6670   15.2060  -27.0400 O.2    62  THR62      -0.2714
     49  CB       -30.8060   14.7520  -24.7480 C.3    62  THR62       0.1808
     50  OG1      -31.7490   13.9670  -23.9930 O.3    62  THR62      -0.2208
     51  CG2      -31.4850   15.7060  -25.7220 C.3    62  THR62       0.0379
     52  N        -27.6630   14.8050  -25.0670 N.am   63  ALA63      -0.1963
     53  CA       -26.6650   15.8560  -25.1930 C.3    63  ALA63       0.1728
     54  C        -27.3000   17.2060  -25.4650 C.2    63  ALA63       0.2616
     55  O        -28.1370   17.5770  -24.6470 O.2    63  ALA63      -0.2715
     56  CB       -25.5990   15.4910  -26.2030 C.3    63  ALA63       0.0334
     57  N        -26.9700   17.8930  -26.5650 N.am   64  ILE64      -0.1977
     58  CA       -27.5660   19.1940  -26.7860 C.3    64  ILE64       0.1596
     59  C        -28.7630   19.1450  -27.7230 C.2    64  ILE64       0.2287
     60  O        -29.2160   20.1540  -28.1970 O.2    64  ILE64      -0.2864
     61  CB       -26.5420   20.2440  -27.2570 C.3    64  ILE64       0.0276
     62  CG1      -25.9980   19.8010  -28.6020 C.3    64  ILE64       0.0022
     63  CG2      -25.4640   20.4180  -26.1990 C.3    64  ILE64       0.0022
     64  CD1      -25.3860   20.9380  -29.3800 C.3    64  ILE64       0.0001
     65  N        -29.2440   17.5100  -30.6930 N.3    66  TYR66      -0.1227
     66  CA       -29.0350   17.3250  -32.1260 C.3    66  TYR66       0.1736
     67  C        -29.7340   16.1150  -32.7160 C.2    66  TYR66       0.2596
     68  O        -30.4610   16.2560  -33.6740 O.2    66  TYR66      -0.2718
     69  CB       -27.5320   17.2350  -32.4090 C.3    66  TYR66       0.0548
     70  CG       -27.1550   16.9110  -33.8210 C.ar   66  TYR66      -0.0200
     71  CD1      -27.2210   17.8790  -34.8220 C.ar   66  TYR66      -0.0009
     72  CD2      -26.7390   15.6260  -34.1660 C.ar   66  TYR66      -0.0009
     73  CE1      -26.8600   17.5670  -36.1270 C.ar   66  TYR66       0.0417
     74  CE2      -26.3530   15.3160  -35.4600 C.ar   66  TYR66       0.0417
     75  CZ       -26.4120   16.2950  -36.4400 C.ar   66  TYR66       0.1957
     76  OH       -26.0360   16.0290  -37.7450 O.3    66  TYR66      -0.2866
     77  N        -29.4990   14.9260  -32.1800 N.am   67  SER67      -0.1952
     78  CA       -30.1340   13.7440  -32.7750 C.3    67  SER67       0.1924
     79  C        -31.6620   13.7940  -32.6320 C.2    67  SER67       0.2314
     80  O        -32.3990   13.4290  -33.5560 O.2    67  SER67      -0.2863
     81  CB       -29.5360   12.4220  -32.2190 C.3    67  SER67       0.2116
     82  OG       -29.6420   12.4240  -30.8050 O.3    67  SER67      -0.2180
     83  N        -33.6700   11.6390  -22.7230 N.3    83  ILE83      -0.1231
     84  CA       -33.2400   11.7240  -21.3300 C.3    83  ILE83       0.1692
     85  C        -31.7960   12.1940  -21.3230 C.2    83  ILE83       0.2592
     86  O        -30.9740   11.6950  -22.1110 O.2    83  ILE83      -0.2718
     87  CB       -33.3160   10.3520  -20.6590 C.3    83  ILE83       0.0266
     88  CG1      -34.7420    9.7980  -20.8160 C.3    83  ILE83       0.0019
     89  CG2      -32.8940   10.4580  -19.1900 C.3    83  ILE83       0.0020
     90  CD1      -34.7830    8.3600  -20.3630 C.3    83  ILE83       0.0001
     91  N        -31.4710   13.1520  -20.4550 N.am   84  GLU84      -0.1966
     92  CA       -30.0920   13.6400  -20.3450 C.3    84  GLU84       0.1733
     93  C        -29.7340   13.8660  -18.8750 C.2    84  GLU84       0.2616
     94  O        -30.4380   14.6060  -18.1930 O.2    84  GLU84      -0.2715
     95  CB       -29.9630   14.9360  -21.1280 C.3    84  GLU84       0.0429
     96  CG       -28.6260   15.6580  -20.9670 C.3    84  GLU84       0.1163
     97  CD       -27.4060   14.7880  -21.2690 C.2    84  GLU84       0.3649
     98  OE1      -27.3000   14.2190  -22.3980 O.co2  84  GLU84      -0.2457
     99  OE2      -26.5440   14.6060  -20.3810 O.co2  84  GLU84      -0.2457
    100  N        -28.6960   13.2170  -18.3550 N.am   85  ARG85      -0.1963
    101  CA       -28.2900   13.4210  -16.9630 C.3    85  ARG85       0.1729
    102  C        -27.4420   14.6470  -16.6280 C.2    85  ARG85       0.2616
    103  O        -27.3650   15.0580  -15.4650 O.2    85  ARG85      -0.2715
    104  CB       -27.6850   12.1470  -16.3600 C.3    85  ARG85       0.0348
    105  CG       -26.2090   11.9700  -16.6770 C.3    85  ARG85       0.0492
    106  CD       -25.5630   10.9790  -15.7250 C.3    85  ARG85       0.2205
    107  NE       -24.4910   10.2560  -16.3930 N.pl3  85  ARG85      -0.0865
    108  CZ       -24.0040    9.1030  -15.9520 C.cat  85  ARG85       0.5346
    109  NH1      -23.0450    8.4930  -16.6270 N.pl3  85  ARG85       0.1354
    110  NH2      -24.4940    8.5700  -14.8400 N.pl3  85  ARG85       0.1354
    111  N        -26.8180   15.2690  -17.6200 N.am   86  ASN86      -0.1972
    112  CA       -25.9820   16.4240  -17.3360 C.3    86  ASN86       0.1688
    113  C        -26.8200   17.6850  -17.3780 C.2    86  ASN86       0.2292
    114  O        -27.5170   17.9810  -18.3460 O.2    86  ASN86      -0.2864
    115  CB       -24.8700   16.5080  -18.3850 C.3    86  ASN86       0.1181
    116  CG       -23.9940   17.7120  -18.1610 C.2    86  ASN86       0.2629
    117  OD1      -24.2810   18.8070  -18.6610 O.2    86  ASN86      -0.2716
    118  ND2      -22.9480   17.5220  -17.3540 N.am   86  ASN86      -0.0877
    119  N        -26.1020   20.3470  -20.2660 N.3    89  ARG89      -0.1245
    120  CA       -26.5890   19.8310  -21.5600 C.3    89  ARG89       0.1563
    121  C        -28.1080   19.8020  -21.6690 C.2    89  ARG89       0.2260
    122  O        -28.6730   20.1330  -22.7140 O.2    89  ARG89      -0.2867
    123  CB       -25.9590   18.4980  -21.9010 C.3    89  ARG89       0.0307
    124  CG       -24.5400   18.6560  -22.4530 C.3    89  ARG89       0.0489
    125  CD       -23.8080   17.3400  -22.3300 C.3    89  ARG89       0.2205
    126  NE       -22.4000   17.3940  -22.7190 N.pl3  89  ARG89      -0.0865
    127  CZ       -21.6240   16.3210  -22.8830 C.cat  89  ARG89       0.5346
    128  NH1      -20.3430   16.4650  -23.2060 N.pl3  89  ARG89       0.1354
    129  NH2      -22.1050   15.0920  -22.7460 N.pl3  89  ARG89       0.1354
    130  N        -32.0910   13.7380  -15.8200 N.3   111  GLY111     -0.1210
    131  CA       -31.6520   12.7500  -14.8540 C.3   111  GLY111      0.1956
    132  C        -31.0130   11.5320  -15.4650 C.2   111  GLY111      0.2612
    133  O        -30.7600   11.4660  -16.6680 O.2   111  GLY111     -0.2717
    134  N        -30.6680   10.5880  -14.5950 N.am  112  ASP112     -0.1959
    135  CA       -30.1090    9.3160  -15.0150 C.3   112  ASP112      0.1840
    136  C        -31.2340    8.4170  -15.5010 C.2   112  ASP112      0.2622
    137  O        -32.1700    8.1250  -14.7810 O.2   112  ASP112     -0.2715
    138  CB       -29.4330    8.6580  -13.8150 C.3   112  ASP112      0.1450
    139  CG       -28.6910    7.3830  -14.1440 C.2   112  ASP112      0.3671
    140  OD1      -28.9680    6.6490  -15.1260 O.co2 112  ASP112     -0.2456
    141  OD2      -27.8070    7.1090  -13.3100 O.co2 112  ASP112     -0.2456
    142  N        -31.1150    7.9410  -16.7360 N.am  113  ALA113     -0.1963
    143  CA       -32.1500    7.0930  -17.3070 C.3   113  ALA113      0.1728
    144  C        -32.4240    5.8590  -16.4670 C.2   113  ALA113      0.2616
    145  O        -33.5510    5.3900  -16.4920 O.2   113  ALA113     -0.2715
    146  CB       -31.7850    6.6730  -18.7250 C.3   113  ALA113      0.0334
    147  N        -31.4290    5.3360  -15.7390 N.am  114  LEU114     -0.1977
    148  CA       -31.6590    4.1560  -14.9120 C.3   114  LEU114      0.1596
    149  C        -32.6000    4.4710  -13.7440 C.2   114  LEU114      0.2287
    150  O        -33.1270    3.5460  -13.1470 O.2   114  LEU114     -0.2864
    151  CB       -30.3570    3.5520  -14.4030 C.3   114  LEU114      0.0297
    152  CG       -29.4470    3.0220  -15.5430 C.3   114  LEU114      0.0022
    153  CD1      -28.1100    2.5270  -15.0230 C.3   114  LEU114      0.0001
    154  CD2      -30.1660    1.9380  -16.3220 C.3   114  LEU114      0.0001
    155  N        -28.0780    5.8750  -26.7340 N.3   132  ASP132     -0.1225
    156  CA       -26.9390    6.6590  -27.1880 C.3   132  ASP132      0.1805
    157  C        -26.2090    7.3000  -25.9980 C.2   132  ASP132      0.2598
    158  O        -25.8370    8.4560  -26.0610 O.2   132  ASP132     -0.2718
    159  CB       -27.3740    7.6890  -28.2140 C.3   132  ASP132      0.1424
    160  CG       -26.1970    8.3180  -28.9580 C.2   132  ASP132      0.3668
    161  OD1      -25.1710    7.6150  -29.0100 O.co2 132  ASP132     -0.2456
    162  OD2      -26.2590    9.4540  -29.5060 O.co2 132  ASP132     -0.2456
    163  N        -26.0350    6.5540  -24.9170 N.am  133  ALA133     -0.1966
    164  CA       -25.3840    7.0760  -23.7060 C.3   133  ALA133      0.1728
    165  C        -24.4940    6.0160  -23.0550 C.2   133  ALA133      0.2616
    166  O        -24.5910    4.8330  -23.3760 O.2   133  ALA133     -0.2715
    167  CB       -26.4340    7.4640  -22.6890 C.3   133  ALA133      0.0334
    168  N        -23.6970    6.4430  -22.0790 N.am  134  ALA134     -0.1977
    169  CA       -23.0430    5.5610  -21.1020 C.3   134  ALA134      0.1597
    170  C        -22.6100    4.1780  -21.5870 C.2   134  ALA134      0.2287
    171  O        -23.3100    3.1660  -21.4220 O.2   134  ALA134     -0.2864
    172  CB       -23.8330    5.4640  -19.7950 C.3   134  ALA134      0.0319
    173  N        -23.1780    0.8130  -19.8160 N.3   137  GLN137     -0.1245
    174  CA       -24.5080    0.5930  -19.2440 C.3   137  GLN137      0.1566
    175  C        -25.5120    0.0800  -20.3080 C.2   137  GLN137      0.2260
    176  O        -26.6820    0.0060  -20.0090 O.2   137  GLN137     -0.2867
    177  CB       -25.1050    1.8730  -18.6210 C.3   137  GLN137      0.0367
    178  CG       -24.4230    2.4690  -17.3940 C.3   137  GLN137      0.0905
    179  CD       -24.4540    1.5430  -16.1880 C.2   137  GLN137      0.2608
    180  OE1      -25.4350    0.8500  -15.8580 O.2   137  GLN137     -0.2717
    181  NE2      -23.3060    1.4850  -15.5300 N.am  137  GLN137     -0.0878
    182  N        -29.7020   -0.4480  -19.6990 N.3   141  PHE141     -0.1241
    183  CA       -30.7410    0.3250  -20.4380 C.3   141  PHE141      0.1605
    184  C        -31.6730   -0.6020  -21.1940 C.2   141  PHE141      0.2264
    185  O        -32.8900   -0.4670  -21.1560 O.2   141  PHE141     -0.2867
    186  CB       -30.1010    1.2890  -21.4120 C.3   141  PHE141      0.0534
    187  CG       -29.2580    2.3850  -20.8070 C.ar  141  PHE141     -0.0203
    188  CD1      -29.6350    3.0760  -19.6820 C.ar  141  PHE141     -0.0042
    189  CD2      -28.0940    2.7840  -21.4410 C.ar  141  PHE141     -0.0042
    190  CE1      -28.8540    4.1120  -19.1870 C.ar  141  PHE141     -0.0003
    191  CE2      -27.3310    3.8040  -20.9660 C.ar  141  PHE141     -0.0003
    192  CZ       -27.6990    4.4580  -19.8120 C.ar  141  PHE141     -0.0000
    193  N        -22.6460    3.1810  -30.8660 N.3   159  ASN159     -0.1240
    194  CA       -21.3410    2.9710  -30.2460 C.3   159  ASN159      0.1653
    195  C        -21.0900    1.5320  -29.8010 C.2   159  ASN159      0.2266
    196  O        -20.6480    1.2610  -28.6930 O.2   159  ASN159     -0.2867
    197  CB       -21.1550    3.9470  -29.0930 C.3   159  ASN159      0.1155
    198  CG       -21.0870    5.3820  -29.5780 C.2   159  ASN159      0.2627
    199  OD1      -20.0530    5.8260  -30.0830 O.2   159  ASN159     -0.2716
    200  ND2      -22.1830    6.1160  -29.4230 N.am  159  ASN159     -0.0877
@<TRIPOS>BOND
     1    76    75    1
     2    75    73   ar
     3    75    74   ar
     4    73    71   ar
     5    74    72   ar
     6    19    18    2
     7    23    22    1
     8    71    70   ar
     9    18    17    1
    10    22    21    1
    11    72    70   ar
    12    21    20    1
    13    15    13    1
    14    20    17    1
    15    70    69    1
    16    68    67    2
    17    80    79    2
    18    17    16    1
    19    13    12    1
    20    78    79    1
    21    78    81    1
    22    78    77    1
    23    67    77   am
    24    67    66    1
    25    16    10   am
    26    11    10    2
    27    69    66    1
    28    81    82    1
    29    10     9    1
    30    66    65    1
    31    12     9    1
    32    12    14    1
    33     9     8    1
    34   193   194    1
    35     8     3   am
    36   194   195    1
    37   194   197    1
    38   199   198    2
    39   195   196    2
    40    32    30   ar
    41   198   200   am
    42   198   197    1
    43   162   160   ar
    44    64    62    1
    45     3     2    1
    46     3     4    2
    47   161   160   ar
    48   160   159    1
    49     2     5    1
    50     2     1    1
    51    62    61    1
    52    30    31   ar
    53    30    29    1
    54   159   156    1
    55    60    59    2
    56     5     6    1
    57    59    58    1
    58     1     7    1
    59    29    28    1
    60    28    25    1
    61    61    58    1
    62    61    63    1
    63   156   155    1
    64   156   157    1
    65    48    47    2
    66    58    57    1
    67    25    24    1
    68    25    26    1
    69    57    54   am
    70     6     7    1
    71    44    43    2
    72    56    53    1
    73   158   157    2
    74   157   163   am
    75    47    46    1
    76    47    52   am
    77    51    49    1
    78    46    49    1
    79    46    45    1
    80    54    53    1
    81    54    55    2
    82    26    33   am
    83    26    27    2
    84    53    52    1
    85    33    34    1
    86    43    45   am
    87    43    42    1
    88    36    35    2
    89   163   164    1
    90    49    50    1
    91    35    34    1
    92    35    41   am
    93    42    41    1
    94    34    37    1
    95   164   165    1
    96   164   167    1
    97    37    38    1
    98    37    39    1
    99   166   165    2
   100   128   127    1
   101    38    40    1
   102   165   168   am
   103   127   129    1
   104   127   126    2
   105    83    84    1
   106   126   125    1
   107   122   121    2
   108   124   125    1
   109   124   123    1
   110    98    97   ar
   111    86    85    2
   112   168   169    1
   113   123   120    1
   114   121   120    1
   115   170   171    2
   116   170   169    1
   117   120   119    1
   118   189   191   ar
   119   189   187   ar
   120   186   187    1
   121   186   183    1
   122    84    85    1
   123    84    87    1
   124    85    91   am
   125    97    96    1
   126    97    99   ar
   127   184   185    2
   128   184   183    1
   129    95    96    1
   130    95    92    1
   131   169   172    1
   132   191   192   ar
   133    88    87    1
   134    88    90    1
   135   187   188   ar
   136    87    89    1
   137    91    92    1
   138   183   182    1
   139    92    93    1
   140   175   176    2
   141   175   174    1
   142   173   174    1
   143   192   190   ar
   144   188   190   ar
   145   174   177    1
   146    93   100   am
   147    93    94    2
   148   146   143    1
   149   117   116    2
   150   177   178    1
   151   115   116    1
   152   115   112    1
   153   100   101    1
   154   114   113    2
   155   116   118   am
   156   111   112    1
   157   111   102   am
   158   178   179    1
   159   113   112    1
   160   143   142    1
   161   143   144    1
   162   101   102    1
   163   101   104    1
   164   142   136   am
   165   105   104    1
   166   105   106    1
   167   133   132    2
   168   102   103    2
   169   109   108    1
   170   145   144    2
   171   144   147   am
   172   107   108    2
   173   107   106    1
   174   154   152    1
   175   179   180    2
   176   179   181   am
   177   108   110    1
   178   130   131    1
   179   147   148    1
   180   152   153    1
   181   152   151    1
   182   136   135    1
   183   136   137    2
   184   132   131    1
   185   132   134   am
   186   140   139   ar
   187   135   134    1
   188   135   138    1
   189   148   151    1
   190   148   149    1
   191   139   138    1
   192   139   141   ar
   193   149   150    2
