@<TRIPOS>MOLECULE
tmp/5zw8A03.pdb
 85 80 0 0 0
SMALL
GASTEIGER

@<TRIPOS>ATOM
      1  N         17.1370   18.4300   25.7640 N.3   125  ASN125     -0.1240
      2  CA        17.0390   19.5550   24.8490 C.3   125  ASN125      0.1653
      3  C         15.5870   20.0300   24.7490 C.2   125  ASN125      0.2266
      4  O         14.6570   19.2260   24.6850 O.2   125  ASN125     -0.2867
      5  CB        17.5900   19.1780   23.4740 C.3   125  ASN125      0.1155
      6  CG        16.5910   18.5280   22.6140 C.2   125  ASN125      0.2627
      7  OD1       16.1560   17.4030   22.9000 O.2   125  ASN125     -0.2716
      8  ND2       16.2220   19.1970   21.5290 N.am  125  ASN125     -0.0877
      9  N         13.2060   22.5140   22.6600 N.3   127  ALA127     -0.1231
     10  CA        12.9030   23.3690   21.5210 C.3   127  ALA127      0.1694
     11  C         11.4050   23.4980   21.3400 C.2   127  ALA127      0.2592
     12  O         10.8650   24.6120   21.2390 O.2   127  ALA127     -0.2718
     13  CB        13.5360   22.7920   20.2600 C.3   127  ALA127      0.0304
     14  N         10.6900   22.3680   21.3820 N.am  128  THR128     -0.1953
     15  CA         9.2540   22.3600   21.0690 C.3   128  THR128      0.1897
     16  C          8.4120   23.1400   22.0500 C.2   128  THR128      0.2313
     17  O          8.6660   23.1090   23.2560 O.2   128  THR128     -0.2863
     18  CB         8.7900   20.8870   21.0400 C.3   128  THR128      0.1794
     19  OG1        9.5780   20.2140   20.0700 O.3   128  THR128     -0.2208
     20  CG2        7.2830   20.7770   20.7090 C.3   128  THR128      0.0378
     21  N          8.9360   24.8250   13.9790 N.3   136  ILE136     -0.1245
     22  CA         9.6840   24.9670   15.2430 C.3   136  ILE136      0.1561
     23  C         10.2700   26.3780   15.3390 C.2   136  ILE136      0.2260
     24  O         10.4430   26.9150   16.4500 O.2   136  ILE136     -0.2867
     25  CB        10.7880   23.8890   15.2990 C.3   136  ILE136      0.0252
     26  CG1       11.4300   23.8070   16.6740 C.3   136  ILE136      0.0019
     27  CG2       11.8890   24.1300   14.3100 C.3   136  ILE136      0.0019
     28  CD1       10.4380   23.4450   17.7030 C.3   136  ILE136      0.0001
     29  N         20.1710   23.8050   16.1710 N.3   237  PHE237     -0.1241
     30  CA        19.0990   22.8470   16.3840 C.3   237  PHE237      0.1605
     31  C         18.9730   21.9490   15.1670 C.2   237  PHE237      0.2264
     32  O         18.8840   20.7160   15.2760 O.2   237  PHE237     -0.2867
     33  CB        17.7860   23.5560   16.6490 C.3   237  PHE237      0.0534
     34  CG        16.5920   22.6360   16.6670 C.ar  237  PHE237     -0.0203
     35  CD1       16.2650   21.9050   17.8100 C.ar  237  PHE237     -0.0042
     36  CD2       15.8110   22.4930   15.5300 C.ar  237  PHE237     -0.0042
     37  CE1       15.1510   21.0470   17.8180 C.ar  237  PHE237     -0.0003
     38  CE2       14.6910   21.6400   15.5360 C.ar  237  PHE237     -0.0003
     39  CZ        14.3580   20.9430   16.6840 C.ar  237  PHE237     -0.0000
     40  N         19.4300   17.8320   14.8590 N.3   241  MET241     -0.1245
     41  CA        18.3940   16.9260   14.3420 C.3   241  MET241      0.1570
     42  C         18.9140   16.0340   13.2290 C.2   241  MET241      0.2261
     43  O         18.4080   14.9110   13.0690 O.2   241  MET241     -0.2867
     44  CB        17.1560   17.7100   13.8650 C.3   241  MET241      0.0387
     45  CG        16.3900   18.3610   15.0730 C.3   241  MET241      0.0595
     46  SD        15.7690   17.1640   16.3200 S.3   241  MET241     -0.1393
     47  CE        16.8550   17.4970   17.7660 C.3   241  MET241      0.0692
     48  N         20.4280   13.3210   15.3090 N.3   244  GLU244     -0.1245
     49  CA        19.3470   12.5720   15.9270 C.3   244  GLU244      0.1567
     50  C         18.6270   11.6760   14.9290 C.2   244  GLU244      0.2260
     51  O         18.3440   10.4910   15.2320 O.2   244  GLU244     -0.2867
     52  CB        18.4160   13.5490   16.6310 C.3   244  GLU244      0.0388
     53  CG        17.7060   12.8470   17.7640 C.3   244  GLU244      0.1160
     54  CD        16.7760   13.7740   18.5340 C.2   244  GLU244      0.3649
     55  OE1       17.0400   14.0020   19.7240 O.co2 244  GLU244     -0.2457
     56  OE2       15.7670   14.2660   17.9590 O.co2 244  GLU244     -0.2457
     57  N          7.3040   10.5310   14.3140 N.3   363  ILE363     -0.1231
     58  CA         7.0540   11.8960   14.7950 C.3   363  ILE363      0.1692
     59  C          8.3380   12.5960   15.2180 C.2   363  ILE363      0.2592
     60  O          8.5340   13.7820   14.9370 O.2   363  ILE363     -0.2718
     61  CB         6.0800   11.8230   15.9810 C.3   363  ILE363      0.0266
     62  CG1        4.8010   11.0190   15.6240 C.3   363  ILE363      0.0019
     63  CG2        5.8030   13.3050   16.5130 C.3   363  ILE363      0.0020
     64  CD1        3.9510   10.6550   16.8510 C.3   363  ILE363      0.0001
     65  N          9.1610   11.8950   15.9970 N.am  364  PHE364     -0.1962
     66  CA        10.3840   12.4130   16.6060 C.3   364  PHE364      0.1771
     67  C         11.4080   12.9250   15.5760 C.2   364  PHE364      0.2620
     68  O         11.5850   12.3330   14.4980 O.2   364  PHE364     -0.2715
     69  CB        10.9680   11.2380   17.4340 C.3   364  PHE364      0.0574
     70  CG        12.0750   11.5970   18.2820 C.ar  364  PHE364     -0.0200
     71  CD1       11.9370   12.5850   19.2610 C.ar  364  PHE364     -0.0042
     72  CD2       13.2960   10.9680   18.1150 C.ar  364  PHE364     -0.0042
     73  CE1       13.0270   12.9390   20.1300 C.ar  364  PHE364     -0.0003
     74  CE2       14.3950   11.2870   18.9850 C.ar  364  PHE364     -0.0003
     75  CZ        14.2530   12.3040   19.9720 C.ar  364  PHE364     -0.0000
     76  N         12.1170   14.0350   15.9350 N.am  365  SER365     -0.1936
     77  CA        13.1810   14.6570   15.1510 C.3   365  SER365      0.2055
     78  C         12.6470   15.2600   13.8560 C.2   365  SER365      0.2643
     79  O         13.3950   15.4480   12.8920 O.2   365  SER365     -0.2714
     80  CB        14.3200   13.6740   14.8090 C.3   365  SER365      0.2130
     81  OG        14.7690   12.9460   15.9620 O.3   365  SER365     -0.2179
     82  N         11.3770   15.5970   13.8500 N.am  366  GLY366     -0.1954
     83  CA        10.7600   16.0830   12.6130 C.3   366  GLY366      0.1869
     84  C          9.8770   14.9610   12.0890 C.2   366  GLY366      0.2309
     85  O         10.3740   13.8630   11.8010 O.2   366  GLY366     -0.2863
@<TRIPOS>BOND
     1    85    84    2
     2    84    83    1
     3    83    82    1
     4    79    78    2
     5    43    42    2
     6    42    41    1
     7    82    78   am
     8    78    77    1
     9    44    41    1
    10    44    45    1
    11    21    22    1
    12    27    25    1
    13    57    58    1
    14    41    40    1
    15    68    67    2
    16    58    59    1
    17    58    61    1
    18    80    77    1
    19    80    81    1
    20    50    51    2
    21    50    49    1
    22    60    59    2
    23    45    46    1
    24    77    76    1
    25    31    32    2
    26    31    30    1
    27    59    65   am
    28    22    25    1
    29    22    23    1
    30    25    26    1
    31    48    49    1
    32    23    24    2
    33    36    38   ar
    34    36    34   ar
    35    38    39   ar
    36    67    76   am
    37    67    66    1
    38    62    61    1
    39    62    64    1
    40    49    52    1
    41    61    63    1
    42    65    66    1
    43    29    30    1
    44    46    47    1
    45    30    33    1
    46    66    69    1
    47    52    53    1
    48    33    34    1
    49    34    35   ar
    50    26    28    1
    51    39    37   ar
    52    69    70    1
    53    53    54    1
    54    35    37   ar
    55    56    54   ar
    56    72    70   ar
    57    72    74   ar
    58    70    71   ar
    59    54    55   ar
    60    74    75   ar
    61    71    73   ar
    62    75    73   ar
    63    19    18    1
    64    13    10    1
    65    20    18    1
    66    18    15    1
    67    15    14    1
    68    15    16    1
    69    12    11    2
    70    11    14   am
    71    11    10    1
    72    10     9    1
    73     8     6   am
    74    16    17    2
    75     6     7    2
    76     6     5    1
    77     5     2    1
    78     4     3    2
    79     3     2    1
    80     2     1    1
