@<TRIPOS>MOLECULE
tmp/5zw8A04.pdb
 103 98 0 0 0
SMALL
GASTEIGER

@<TRIPOS>ATOM
      1  N          5.7150   23.1500   16.7660 N.3   133  GLY133     -0.1210
      2  CA         6.1840   21.7640   16.6920 C.3   133  GLY133      0.1956
      3  C          6.9190   21.5800   15.3760 C.2   133  GLY133      0.2612
      4  O          8.1120   21.8800   15.2530 O.2   133  GLY133     -0.2717
      5  N          6.1790   21.1700   14.3230 N.am  134  SER134     -0.1952
      6  CA         6.8030   21.1580   13.0120 C.3   134  SER134      0.1924
      7  C          7.2810   22.5590   12.6100 C.2   134  SER134      0.2314
      8  O          8.3200   22.6910   11.9430 O.2   134  SER134     -0.2863
      9  CB         5.8390   20.6110   11.9260 C.3   134  SER134      0.2116
     10  OG         5.4190   19.2760   12.3410 O.3   134  SER134     -0.2180
     11  N          8.9360   24.8250   13.9790 N.3   136  ILE136     -0.1231
     12  CA         9.6840   24.9670   15.2430 C.3   136  ILE136      0.1692
     13  C         10.2700   26.3780   15.3390 C.2   136  ILE136      0.2592
     14  O         10.4430   26.9150   16.4500 O.2   136  ILE136     -0.2718
     15  CB        10.7880   23.8890   15.2990 C.3   136  ILE136      0.0266
     16  CG1       11.4300   23.8070   16.6740 C.3   136  ILE136      0.0019
     17  CG2       11.8890   24.1300   14.3100 C.3   136  ILE136      0.0020
     18  CD1       10.4380   23.4450   17.7030 C.3   136  ILE136      0.0001
     19  N         10.5450   27.0150   14.1860 N.am  137  TYR137     -0.1976
     20  CA        11.2560   28.2920   14.2400 C.3   137  TYR137      0.1639
     21  C         10.2930   29.4280   14.4840 C.2   137  TYR137      0.2290
     22  O         10.7450   30.5780   14.6510 O.2   137  TYR137     -0.2864
     23  CB        12.1220   28.5030   12.9890 C.3   137  TYR137      0.0560
     24  CG        13.0720   27.3410   12.8000 C.ar  137  TYR137     -0.0198
     25  CD1       12.8580   26.4040   11.7820 C.ar  137  TYR137     -0.0009
     26  CD2       14.1490   27.1010   13.7120 C.ar  137  TYR137     -0.0009
     27  CE1       13.6940   25.2820   11.6360 C.ar  137  TYR137      0.0417
     28  CE2       14.9910   25.9740   13.5640 C.ar  137  TYR137      0.0417
     29  CZ        14.7350   25.0580   12.5360 C.ar  137  TYR137      0.1957
     30  OH        15.5430   23.9490   12.3770 O.3   137  TYR137     -0.2866
     31  N         20.1710   23.8050   16.1710 N.3   237  PHE237     -0.1227
     32  CA        19.0990   22.8470   16.3840 C.3   237  PHE237      0.1736
     33  C         18.9730   21.9490   15.1670 C.2   237  PHE237      0.2595
     34  O         18.8840   20.7160   15.2760 O.2   237  PHE237     -0.2718
     35  CB        17.7860   23.5560   16.6490 C.3   237  PHE237      0.0547
     36  CG        16.5920   22.6360   16.6670 C.ar  237  PHE237     -0.0202
     37  CD1       16.2650   21.9050   17.8100 C.ar  237  PHE237     -0.0042
     38  CD2       15.8110   22.4930   15.5300 C.ar  237  PHE237     -0.0042
     39  CE1       15.1510   21.0470   17.8180 C.ar  237  PHE237     -0.0003
     40  CE2       14.6910   21.6400   15.5360 C.ar  237  PHE237     -0.0003
     41  CZ        14.3580   20.9430   16.6840 C.ar  237  PHE237     -0.0000
     42  N         18.9590   22.5590   14.0080 N.am  238  HIS238     -0.1975
     43  CA        18.8190   21.7860   12.7850 C.3   238  HIS238      0.1656
     44  C         19.9510   20.7740   12.6450 C.2   238  HIS238      0.2291
     45  O         19.7340   19.5850   12.2970 O.2   238  HIS238     -0.2864
     46  CB        18.7940   22.7720   11.6060 C.3   238  HIS238      0.0771
     47  CG        18.5050   22.1250   10.2810 C.ar  238  HIS238      0.0820
     48  ND1       17.2230   21.7640    9.9000 N.ar  238  HIS238     -0.2267
     49  CD2       19.3340   21.7450    9.2760 C.ar  238  HIS238      0.1154
     50  CE1       17.2780   21.2040    8.6990 C.ar  238  HIS238      0.1986
     51  NE2       18.5470   21.1740    8.3030 N.ar  238  HIS238     -0.2212
     52  N         19.4300   17.8320   14.8590 N.3   241  MET241     -0.1245
     53  CA        18.3940   16.9260   14.3420 C.3   241  MET241      0.1570
     54  C         18.9140   16.0340   13.2290 C.2   241  MET241      0.2261
     55  O         18.4080   14.9110   13.0690 O.2   241  MET241     -0.2867
     56  CB        17.1560   17.7100   13.8650 C.3   241  MET241      0.0387
     57  CG        16.3900   18.3610   15.0730 C.3   241  MET241      0.0595
     58  SD        15.7690   17.1640   16.3200 S.3   241  MET241     -0.1393
     59  CE        16.8550   17.4970   17.7660 C.3   241  MET241      0.0692
     60  N         18.4740   12.1670   13.6820 N.3   245  LYS245     -0.1245
     61  CA        17.8950   11.3940   12.5850 C.3   245  LYS245      0.1561
     62  C         18.8820   10.4360   11.9300 C.2   245  LYS245      0.2260
     63  O         18.4720    9.4050   11.3810 O.2   245  LYS245     -0.2867
     64  CB        17.3360   12.3290   11.5020 C.3   245  LYS245      0.0271
     65  CG        16.1850   13.2530   11.9850 C.3   245  LYS245      0.0035
     66  CD        15.5680   14.0570   10.8060 C.3   245  LYS245      0.0206
     67  CE        16.6600   14.7030    9.9410 C.3   245  LYS245      0.1093
     68  NZ        16.0610   15.5170    8.8480 N.3   245  LYS245     -0.1314
     69  N         12.1170   14.0350   15.9350 N.3   365  SER365     -0.1202
     70  CA        13.1810   14.6570   15.1510 C.3   365  SER365      0.2020
     71  C         12.6470   15.2600   13.8560 C.2   365  SER365      0.2619
     72  O         13.3950   15.4480   12.8920 O.2   365  SER365     -0.2717
     73  CB        14.3200   13.6740   14.8090 C.3   365  SER365      0.2103
     74  OG        14.7690   12.9460   15.9620 O.3   365  SER365     -0.2182
     75  N         11.3770   15.5970   13.8500 N.am  366  GLY366     -0.1956
     76  CA        10.7600   16.0830   12.6130 C.3   366  GLY366      0.1869
     77  C          9.8770   14.9610   12.0890 C.2   366  GLY366      0.2309
     78  O         10.3740   13.8630   11.8010 O.2   366  GLY366     -0.2863
     79  N          7.3300   16.1840    7.5100 N.3   370  ILE370     -0.1231
     80  CA         8.4010   17.1720    7.4280 C.3   370  ILE370      0.1692
     81  C          9.6350   16.5800    6.7250 C.2   370  ILE370      0.2591
     82  O         10.3280   17.2830    5.9890 O.2   370  ILE370     -0.2718
     83  CB         8.6950   17.6770    8.8570 C.3   370  ILE370      0.0266
     84  CG1        7.5700   18.6090    9.3660 C.3   370  ILE370      0.0019
     85  CG2       10.1400   18.2670    8.9960 C.3   370  ILE370      0.0020
     86  CD1        7.3000   19.7320    8.4350 C.3   370  ILE370      0.0001
     87  N          9.9630   15.2940    6.9350 N.am  371  GLN371     -0.1979
     88  CA        11.0900   14.7450    6.1810 C.3   371  GLN371      0.1601
     89  C         10.8220   14.8500    4.6900 C.2   371  GLN371      0.2287
     90  O         11.7550   15.0890    3.9020 O.2   371  GLN371     -0.2864
     91  CB        11.3680   13.2630    6.5080 C.3   371  GLN371      0.0394
     92  CG        11.6490   13.0270    8.0380 C.3   371  GLN371      0.0908
     93  CD        12.7010   14.0600    8.5420 C.2   371  GLN371      0.2608
     94  OE1       13.7440   14.2710    7.8970 O.2   371  GLN371     -0.2717
     95  NE2       12.3700   14.7840    9.6030 N.am  371  GLN371     -0.0878
     96  N         11.6050   18.2600    3.5840 N.3   374  ILE374     -0.1245
     97  CA        13.0510   18.4290    3.4570 C.3   374  ILE374      0.1561
     98  C         13.5430   17.8130    2.1570 C.2   374  ILE374      0.2260
     99  O         14.3050   18.4320    1.4170 O.2   374  ILE374     -0.2867
    100  CB        13.7430   17.8200    4.6950 C.3   374  ILE374      0.0252
    101  CG1       13.3310   18.6470    5.9090 C.3   374  ILE374      0.0019
    102  CG2       15.3010   17.7190    4.4600 C.3   374  ILE374      0.0019
    103  CD1       13.8710   18.0430    7.2680 C.3   374  ILE374      0.0001
@<TRIPOS>BOND
     1    99    98    2
     2    98    97    1
     3    97    96    1
     4    97   100    1
     5    90    89    2
     6   102   100    1
     7    89    88    1
     8   100   101    1
     9   101   103    1
    10    82    81    2
    11    88    91    1
    12    88    87    1
    13    91    92    1
    14    81    87   am
    15    81    80    1
    16    80    79    1
    17    80    83    1
    18    94    93    2
    19    92    93    1
    20    51    50   ar
    21    51    49   ar
    22    86    84    1
    23    93    95   am
    24    50    48   ar
    25    68    67    1
    26    83    85    1
    27    83    84    1
    28    49    47   ar
    29    48    47   ar
    30    67    66    1
    31    47    46    1
    32    66    65    1
    33    63    62    2
    34    64    65    1
    35    64    61    1
    36    46    43    1
    37    27    25   ar
    38    27    29   ar
    39    25    24   ar
    40    78    77    2
    41     9    10    1
    42     9     6    1
    43    62    61    1
    44     8     7    2
    45    77    76    1
    46    45    44    2
    47    30    29    1
    48    29    28   ar
    49    61    60    1
    50     7     6    1
    51    76    75    1
    52    44    43    1
    53    43    42    1
    54    24    23    1
    55    24    26   ar
    56    72    71    2
    57    23    20    1
    58     6     5    1
    59    55    54    2
    60    54    53    1
    61    28    26   ar
    62    75    71   am
    63    71    70    1
    64    56    53    1
    65    56    57    1
    66    11    12    1
    67    42    33   am
    68    19    20    1
    69    19    13   am
    70    20    21    1
    71    17    15    1
    72     5     3   am
    73    53    52    1
    74    21    22    2
    75    73    70    1
    76    73    74    1
    77    57    58    1
    78    70    69    1
    79    33    34    2
    80    33    32    1
    81    12    15    1
    82    12    13    1
    83     4     3    2
    84    15    16    1
    85    13    14    2
    86     3     2    1
    87    38    40   ar
    88    38    36   ar
    89    40    41   ar
    90    31    32    1
    91    58    59    1
    92    32    35    1
    93    35    36    1
    94    36    37   ar
    95    16    18    1
    96    41    39   ar
    97     2     1    1
    98    37    39   ar
