@<TRIPOS>MOLECULE
tmp/5zwqA00.pdb
 152 145 0 0 0
SMALL
GASTEIGER

@<TRIPOS>ATOM
      1  N        -52.5060  -25.4280   49.5530 N.3    56  TYR56      -0.1227
      2  CA       -53.0130  -25.9200   48.2740 C.3    56  TYR56       0.1736
      3  C        -54.0280  -27.0470   48.4800 C.2    56  TYR56       0.2596
      4  O        -55.0120  -26.8270   49.1920 O.2    56  TYR56      -0.2718
      5  CB       -51.8300  -26.2890   47.3610 C.3    56  TYR56       0.0548
      6  CG       -51.1820  -25.0210   46.7880 C.ar   56  TYR56      -0.0200
      7  CD1      -51.6630  -24.4380   45.6140 C.ar   56  TYR56      -0.0009
      8  CD2      -50.1310  -24.3630   47.4580 C.ar   56  TYR56      -0.0009
      9  CE1      -51.0690  -23.2680   45.0620 C.ar   56  TYR56       0.0417
     10  CE2      -49.5660  -23.1940   46.9230 C.ar   56  TYR56       0.0417
     11  CZ       -50.0450  -22.6520   45.7390 C.ar   56  TYR56       0.1957
     12  OH       -49.4960  -21.4890   45.2030 O.3    56  TYR56      -0.2866
     13  N        -53.8100  -28.2590   47.9140 N.am   57  SER57      -0.1952
     14  CA       -54.8780  -29.2730   47.9330 C.3    57  SER57       0.1924
     15  C        -55.1200  -29.9290   49.2990 C.2    57  SER57       0.2314
     16  O        -56.0500  -30.7280   49.4230 O.2    57  SER57      -0.2863
     17  CB       -54.6120  -30.3570   46.8820 C.3    57  SER57       0.2116
     18  OG       -54.7640  -29.7790   45.5840 O.3    57  SER57      -0.2180
     19  N        -58.6070  -29.6250   50.0700 N.3    60  LYS60      -0.1245
     20  CA       -59.6730  -30.5300   49.6270 C.3    60  LYS60       0.1561
     21  C        -60.2630  -31.3850   50.7410 C.2    60  LYS60       0.2260
     22  O        -61.4870  -31.5720   50.7460 O.2    60  LYS60      -0.2867
     23  CB       -59.1720  -31.4150   48.4720 C.3    60  LYS60       0.0271
     24  CG       -58.8550  -30.6150   47.1890 C.3    60  LYS60       0.0035
     25  CD       -58.3570  -31.6080   46.0840 C.3    60  LYS60       0.0206
     26  CE       -58.3510  -30.9960   44.6900 C.3    60  LYS60       0.1093
     27  NZ       -57.2580  -29.9270   44.6040 N.3    60  LYS60      -0.1314
     28  N        -57.8470  -30.4490   34.9390 N.3   122  TYR122     -0.1241
     29  CA       -57.1410  -29.4060   35.6820 C.3   122  TYR122      0.1605
     30  C        -56.2520  -28.6790   34.6910 C.2   122  TYR122      0.2264
     31  O        -55.7440  -29.2970   33.7480 O.2   122  TYR122     -0.2867
     32  CB       -56.2630  -30.0060   36.7880 C.3   122  TYR122      0.0534
     33  CG       -56.6040  -29.6330   38.2160 C.ar  122  TYR122     -0.0201
     34  CD1      -57.0250  -28.3630   38.5460 C.ar  122  TYR122     -0.0009
     35  CD2      -56.4940  -30.5850   39.2410 C.ar  122  TYR122     -0.0009
     36  CE1      -57.3220  -28.0320   39.8830 C.ar  122  TYR122      0.0417
     37  CE2      -56.7900  -30.2610   40.5900 C.ar  122  TYR122      0.0417
     38  CZ       -57.1850  -28.9860   40.8880 C.ar  122  TYR122      0.1957
     39  OH       -57.4800  -28.6700   42.1890 O.3   122  TYR122     -0.2866
     40  N        -53.2600  -27.6340   34.7310 N.3   124  PHE124     -0.1241
     41  CA       -51.8680  -28.0530   34.6620 C.3   124  PHE124      0.1605
     42  C        -51.7130  -29.5180   34.2680 C.2   124  PHE124      0.2264
     43  O        -50.6030  -30.0650   34.3760 O.2   124  PHE124     -0.2867
     44  CB       -51.1900  -27.8000   36.0120 C.3   124  PHE124      0.0534
     45  CG       -51.9560  -28.3690   37.1860 C.ar  124  PHE124     -0.0203
     46  CD1      -51.8030  -29.7120   37.5500 C.ar  124  PHE124     -0.0042
     47  CD2      -52.8410  -27.5720   37.9220 C.ar  124  PHE124     -0.0042
     48  CE1      -52.5110  -30.2590   38.6260 C.ar  124  PHE124     -0.0003
     49  CE2      -53.5460  -28.1090   39.0060 C.ar  124  PHE124     -0.0003
     50  CZ       -53.3760  -29.4550   39.3540 C.ar  124  PHE124     -0.0000
     51  N        -57.4780  -21.5540   36.9260 N.3   140  ILE140     -0.1245
     52  CA       -56.6630  -21.4970   38.1400 C.3   140  ILE140      0.1561
     53  C        -55.9190  -20.1700   38.2350 C.2   140  ILE140      0.2260
     54  O        -55.8190  -19.5750   39.3170 O.2   140  ILE140     -0.2867
     55  CB       -55.6810  -22.6840   38.1640 C.3   140  ILE140      0.0252
     56  CG1      -56.4480  -23.9970   38.2730 C.3   140  ILE140      0.0019
     57  CG2      -54.6690  -22.5340   39.3150 C.3   140  ILE140      0.0019
     58  CD1      -57.3560  -24.1010   39.4870 C.3   140  ILE140      0.0001
     59  N        -57.8020  -36.8090   38.8080 N.3   169  TYR169     -0.1241
     60  CA       -57.6890  -35.7260   39.7810 C.3   169  TYR169      0.1605
     61  C        -57.9720  -34.3890   39.1020 C.2   169  TYR169      0.2264
     62  O        -57.4580  -34.1220   38.0080 O.2   169  TYR169     -0.2867
     63  CB       -56.2810  -35.7430   40.3470 C.3   169  TYR169      0.0534
     64  CG       -56.0630  -34.8260   41.5220 C.ar  169  TYR169     -0.0201
     65  CD1      -56.7170  -35.0440   42.7230 C.ar  169  TYR169     -0.0009
     66  CD2      -55.1200  -33.7990   41.4410 C.ar  169  TYR169     -0.0009
     67  CE1      -56.4490  -34.2200   43.8670 C.ar  169  TYR169      0.0417
     68  CE2      -54.8860  -32.9650   42.5470 C.ar  169  TYR169      0.0417
     69  CZ       -55.5150  -33.2060   43.7340 C.ar  169  TYR169      0.1957
     70  OH       -55.2130  -32.3550   44.7890 O.3   169  TYR169     -0.2866
     71  N        -40.4020  -23.1990   40.7260 N.3   223  MET223     -0.1230
     72  CA       -40.5920  -22.6680   39.3840 C.3   223  MET223      0.1702
     73  C        -41.9840  -23.0320   38.8970 C.2   223  MET223      0.2592
     74  O        -42.3270  -24.2160   38.8370 O.2   223  MET223     -0.2718
     75  CB       -39.5400  -23.2320   38.4310 C.3   223  MET223      0.0401
     76  CG       -39.6800  -22.7040   37.0250 C.3   223  MET223      0.0596
     77  SD       -39.3480  -20.9300   37.0280 S.3   223  MET223     -0.1393
     78  CE       -37.6230  -20.9160   37.5450 C.3   223  MET223      0.0692
     79  N        -42.7930  -22.0230   38.5780 N.am  224  ARG224     -0.1966
     80  CA       -44.0350  -22.2370   37.8380 C.3   224  ARG224      0.1729
     81  C        -43.7480  -22.0920   36.3480 C.2   224  ARG224      0.2616
     82  O        -43.0570  -21.1520   35.9300 O.2   224  ARG224     -0.2715
     83  CB       -45.1310  -21.2540   38.2630 C.3   224  ARG224      0.0348
     84  CG       -45.6590  -21.4910   39.6820 C.3   224  ARG224      0.0492
     85  CD       -47.1000  -21.0210   39.8260 C.3   224  ARG224      0.2205
     86  NE       -47.2590  -19.6770   39.2790 N.pl3 224  ARG224     -0.0865
     87  CZ       -48.4050  -19.1850   38.8200 C.cat 224  ARG224      0.5346
     88  NH1      -48.4290  -17.9440   38.3340 N.pl3 224  ARG224      0.1354
     89  NH2      -49.5150  -19.9320   38.8400 N.pl3 224  ARG224      0.1354
     90  N        -44.2600  -23.0280   35.5500 N.am  225  SER225     -0.1950
     91  CA       -43.9280  -23.0320   34.1340 C.3   225  SER225      0.1924
     92  C        -44.5040  -21.7980   33.4490 C.2   225  SER225      0.2314
     93  O        -45.6120  -21.3490   33.7650 O.2   225  SER225     -0.2863
     94  CB       -44.4510  -24.3030   33.4640 C.3   225  SER225      0.2116
     95  OG       -45.8600  -24.2770   33.4040 O.3   225  SER225     -0.2180
     96  N        -52.8300  -15.9280   41.1490 N.3   247  SER247     -0.1217
     97  CA       -53.5140  -17.1750   41.4950 C.3   247  SER247      0.1889
     98  C        -53.8140  -17.3240   42.9790 C.2   247  SER247      0.2288
     99  O        -54.6800  -18.1370   43.3360 O.2   247  SER247     -0.2866
    100  CB       -52.6710  -18.3710   41.0680 C.3   247  SER247      0.2089
    101  OG       -51.4970  -18.4420   41.8770 O.3   247  SER247     -0.2183
    102  N        -60.5270  -26.4030   45.8910 N.3   259  GLY259     -0.1210
    103  CA       -59.4230  -27.3060   45.6690 C.3   259  GLY259      0.1956
    104  C        -58.0800  -26.8090   46.1740 C.2   259  GLY259      0.2611
    105  O        -57.1150  -27.5740   46.2300 O.2   259  GLY259     -0.2717
    106  N        -58.0120  -25.5300   46.5220 N.am  260  HIS260     -0.1975
    107  CA       -56.7760  -24.8800   46.9700 C.3   260  HIS260      0.1656
    108  C        -57.1750  -23.5270   47.5310 C.2   260  HIS260      0.2291
    109  O        -58.3560  -23.1670   47.5500 O.2   260  HIS260     -0.2864
    110  CB       -55.7810  -24.6910   45.8390 C.3   260  HIS260      0.0771
    111  CG       -56.2460  -23.6970   44.8040 C.ar  260  HIS260      0.0820
    112  ND1      -57.2260  -23.9950   43.8690 N.ar  260  HIS260     -0.2267
    113  CD2      -55.8750  -22.4130   44.5670 C.ar  260  HIS260      0.1154
    114  CE1      -57.4080  -22.9490   43.0790 C.ar  260  HIS260      0.1986
    115  NE2      -56.6110  -21.9690   43.4870 N.ar  260  HIS260     -0.2212
    116  N        -50.8830  -36.8470   37.0580 N.3   311  ASN311     -0.1240
    117  CA       -49.8050  -36.4620   36.1330 C.3   311  ASN311      0.1653
    118  C        -48.7230  -37.5440   36.0860 C.2   311  ASN311      0.2266
    119  O        -47.5170  -37.2600   36.0310 O.2   311  ASN311     -0.2867
    120  CB       -49.1840  -35.1140   36.5060 C.3   311  ASN311      0.1155
    121  CG       -49.1600  -34.1510   35.3450 C.2   311  ASN311      0.2627
    122  OD1      -50.1850  -33.9300   34.6810 O.2   311  ASN311     -0.2716
    123  ND2      -47.9790  -33.5950   35.0640 N.am  311  ASN311     -0.0877
    124  N        -52.3540  -33.9630   50.5630 N.3   345  SER345     -0.1202
    125  CA       -51.1050  -33.2190   50.4400 C.3   345  SER345      0.2020
    126  C        -51.3510  -32.0760   49.4620 C.2   345  SER345      0.2619
    127  O        -52.4270  -31.9770   48.8590 O.2   345  SER345     -0.2717
    128  CB       -49.9750  -34.1290   49.9670 C.3   345  SER345      0.2103
    129  OG       -50.4200  -34.7930   48.7840 O.3   345  SER345     -0.2182
    130  N        -50.3630  -31.1860   49.3270 N.am  346  GLY346     -0.1942
    131  CA       -50.5050  -30.0570   48.4230 C.3   346  GLY346      0.2014
    132  C        -49.2420  -29.8210   47.6130 C.2   346  GLY346      0.2638
    133  O        -48.1520  -30.2910   47.9480 O.2   346  GLY346     -0.2714
    134  N        -49.4060  -29.0450   46.5390 N.am  347  VAL347     -0.1977
    135  CA       -48.3540  -28.9110   45.5440 C.3   347  VAL347      0.1596
    136  C        -47.1600  -28.1360   46.0720 C.2   347  VAL347      0.2287
    137  O        -46.0680  -28.2540   45.5080 O.2   347  VAL347     -0.2864
    138  CB       -48.8910  -28.2630   44.2460 C.3   347  VAL347      0.0276
    139  CG1      -49.3060  -26.8450   44.4890 C.3   347  VAL347      0.0022
    140  CG2      -47.8080  -28.3420   43.1380 C.3   347  VAL347      0.0022
    141  N        -42.8730  -25.5480   45.4380 N.3   369  LEU369     -0.1231
    142  CA       -43.8000  -25.9740   44.3900 C.3   369  LEU369      0.1693
    143  C        -43.1560  -27.0130   43.4780 C.2   369  LEU369      0.2592
    144  O        -42.0650  -26.7880   42.9430 O.2   369  LEU369     -0.2718
    145  CB       -44.2400  -24.7680   43.5770 C.3   369  LEU369      0.0284
    146  CG       -45.0520  -23.7340   44.3450 C.3   369  LEU369      0.0019
    147  CD1      -45.2720  -22.5070   43.4740 C.3   369  LEU369      0.0001
    148  CD2      -46.3900  -24.3100   44.7700 C.3   369  LEU369      0.0001
    149  N        -43.8560  -28.1350   43.2710 N.am  370  GLY370     -0.1957
    150  CA       -43.4030  -29.1370   42.3220 C.3   370  GLY370      0.1869
    151  C        -42.0780  -29.7520   42.7120 C.2   370  GLY370      0.2309
    152  O        -41.1700  -29.9240   41.8880 O.2   370  GLY370     -0.2863
@<TRIPOS>BOND
     1    95    94    1
     2    92    93    2
     3    92    91    1
     4    94    91    1
     5    31    30    2
     6    91    90    1
     7    42    43    2
     8    42    41    1
     9    41    40    1
    10    41    44    1
    11   122   121    2
    12    30    29    1
    13    28    29    1
    14   123   121   am
    15   121   120    1
    16    90    81   am
    17    29    32    1
    18    82    81    2
    19    44    45    1
    20   119   118    2
    21   118   117    1
    22   117   120    1
    23   117   116    1
    24    81    80    1
    25    32    33    1
    26    51    52    1
    27    76    77    1
    28    76    75    1
    29    77    78    1
    30    45    46   ar
    31    45    47   ar
    32    46    48   ar
    33    80    83    1
    34    80    79    1
    35    47    49   ar
    36    62    61    2
    37    52    55    1
    38    52    53    1
    39    55    56    1
    40    55    57    1
    41    33    34   ar
    42    33    35   ar
    43    53    54    2
    44    83    84    1
    45    56    58    1
    46    88    87    1
    47    75    72    1
    48    34    36   ar
    49    79    73   am
    50    48    50   ar
    51    59    60    1
    52    87    89    1
    53    87    86    2
    54    74    73    2
    55    73    72    1
    56    49    50   ar
    57    61    60    1
    58    35    37   ar
    59    86    85    1
    60    72    71    1
    61    84    85    1
    62    60    63    1
    63    36    38   ar
    64    63    64    1
    65    37    38   ar
    66    38    39    1
    67   100    97    1
    68   100   101    1
    69    96    97    1
    70    66    64   ar
    71    66    68   ar
    72    97    98    1
    73    64    65   ar
    74   152   151    2
    75   150   151    1
    76   150   149    1
    77    68    69   ar
    78    65    67   ar
    79   144   143    2
    80    98    99    2
    81   114   115   ar
    82   114   112   ar
    83   140   138    1
    84   149   143   am
    85   147   146    1
    86   143   142    1
    87   115   113   ar
    88   145   146    1
    89   145   142    1
    90    69    67   ar
    91    69    70    1
    92   112   111   ar
    93   138   139    1
    94   138   135    1
    95   146   148    1
    96   142   141    1
    97   113   111   ar
    98    27    26    1
    99    26    25    1
   100   111   110    1
   101     9     7   ar
   102     9    11   ar
   103    12    11    1
   104   137   136    2
   105   135   136    1
   106   135   134    1
   107    18    17    1
   108     7     6   ar
   109   103   102    1
   110   103   104    1
   111    11    10   ar
   112   110   107    1
   113    25    24    1
   114   104   105    2
   115   104   106   am
   116   106   107    1
   117   134   132   am
   118     6     5    1
   119     6     8   ar
   120    17    14    1
   121    10     8   ar
   122   107   108    1
   123    24    23    1
   124     5     2    1
   125   108   109    2
   126   132   133    2
   127   132   131    1
   128    13    14    1
   129    13     3   am
   130    14    15    1
   131     2     3    1
   132     2     1    1
   133   131   130    1
   134    23    20    1
   135     3     4    2
   136   129   128    1
   137   127   126    2
   138    15    16    2
   139   130   126   am
   140   126   125    1
   141    20    19    1
   142    20    21    1
   143   128   125    1
   144   125   124    1
   145    21    22    2
