@<TRIPOS>MOLECULE
tmp/5zwrA00.pdb
 141 134 0 0 0
SMALL
GASTEIGER

@<TRIPOS>ATOM
      1  N         52.4520   25.3310   -0.2460 N.3    56  TYR56      -0.1227
      2  CA        52.9060   25.8110   -1.5450 C.3    56  TYR56       0.1736
      3  C         53.8800   26.9680   -1.3590 C.2    56  TYR56       0.2596
      4  O         54.8810   26.7970   -0.6580 O.2    56  TYR56      -0.2718
      5  CB        51.6970   26.1420   -2.4280 C.3    56  TYR56       0.0548
      6  CG        51.0620   24.8700   -2.9640 C.ar   56  TYR56      -0.0200
      7  CD1       51.5630   24.2580   -4.0980 C.ar   56  TYR56      -0.0009
      8  CD2       49.9950   24.2610   -2.3060 C.ar   56  TYR56      -0.0009
      9  CE1       51.0090   23.0850   -4.5910 C.ar   56  TYR56       0.0417
     10  CE2       49.4240   23.0880   -2.7990 C.ar   56  TYR56       0.0417
     11  CZ        49.9430   22.5050   -3.9310 C.ar   56  TYR56       0.1957
     12  OH        49.3940   21.3400   -4.4210 O.3    56  TYR56      -0.2866
     13  N         53.6230   28.1420   -1.9520 N.am   57  SER57      -0.1952
     14  CA        54.6640   29.1710   -1.9730 C.3    57  SER57       0.1924
     15  C         54.9520   29.8010   -0.6080 C.2    57  SER57       0.2314
     16  O         55.8670   30.6240   -0.5210 O.2    57  SER57      -0.2863
     17  CB        54.3070   30.2630   -2.9910 C.3    57  SER57       0.2116
     18  OG        54.4470   29.7340   -4.2980 O.3    57  SER57      -0.2180
     19  N         57.6670   30.4490  -14.9100 N.3   122  TYR122     -0.1241
     20  CA        56.9650   29.4160  -14.1620 C.3   122  TYR122      0.1605
     21  C         56.0920   28.6640  -15.1510 C.2   122  TYR122      0.2264
     22  O         55.6020   29.2520  -16.1130 O.2   122  TYR122     -0.2867
     23  CB        56.0900   30.0180  -13.0550 C.3   122  TYR122      0.0534
     24  CG        56.4010   29.6000  -11.6330 C.ar  122  TYR122     -0.0201
     25  CD1       56.7840   28.3070  -11.3310 C.ar  122  TYR122     -0.0009
     26  CD2       56.2910   30.5170  -10.5900 C.ar  122  TYR122     -0.0009
     27  CE1       57.0480   27.9220  -10.0100 C.ar  122  TYR122      0.0417
     28  CE2       56.5500   30.1450   -9.2590 C.ar  122  TYR122      0.0417
     29  CZ        56.9350   28.8520   -8.9880 C.ar  122  TYR122      0.1957
     30  OH        57.1920   28.4840   -7.6860 O.3   122  TYR122     -0.2866
     31  N         53.0860   27.6570  -15.1720 N.3   124  PHE124     -0.1241
     32  CA        51.7060   28.0820  -15.3470 C.3   124  PHE124      0.1605
     33  C         51.5760   29.5750  -15.6270 C.2   124  PHE124      0.2264
     34  O         50.4860   30.1300  -15.4620 O.2   124  PHE124     -0.2867
     35  CB        50.9100   27.6990  -14.1030 C.3   124  PHE124      0.0534
     36  CG        51.7410   27.7120  -12.8730 C.ar  124  PHE124     -0.0203
     37  CD1       52.0390   28.9100  -12.2400 C.ar  124  PHE124     -0.0042
     38  CD2       52.2950   26.5350  -12.3870 C.ar  124  PHE124     -0.0042
     39  CE1       52.8410   28.9280  -11.1180 C.ar  124  PHE124     -0.0003
     40  CE2       53.0930   26.5460  -11.2640 C.ar  124  PHE124     -0.0003
     41  CZ        53.3690   27.7420  -10.6320 C.ar  124  PHE124     -0.0000
     42  N         57.2450   21.4860  -12.9080 N.3   140  ILE140     -0.1245
     43  CA        56.4560   21.4240  -11.6800 C.3   140  ILE140      0.1561
     44  C         55.6570   20.1290  -11.5900 C.2   140  ILE140      0.2260
     45  O         55.5080   19.5610  -10.5040 O.2   140  ILE140     -0.2867
     46  CB        55.5400   22.6590  -11.5820 C.3   140  ILE140      0.0252
     47  CG1       56.3800   23.9340  -11.5760 C.3   140  ILE140      0.0019
     48  CG2       54.6750   22.5830  -10.3210 C.3   140  ILE140      0.0019
     49  CD1       57.4320   23.9810  -10.4980 C.3   140  ILE140      0.0001
     50  N         57.6160   36.6920  -11.1330 N.3   169  TYR169     -0.1241
     51  CA        57.5040   35.6110  -10.1600 C.3   169  TYR169      0.1605
     52  C         57.7870   34.2670  -10.8250 C.2   169  TYR169      0.2264
     53  O         57.2700   33.9730  -11.9090 O.2   169  TYR169     -0.2867
     54  CB        56.1030   35.6430   -9.5660 C.3   169  TYR169      0.0534
     55  CG        55.8820   34.7610   -8.3590 C.ar  169  TYR169     -0.0201
     56  CD1       56.5550   34.9950   -7.1740 C.ar  169  TYR169     -0.0009
     57  CD2       54.9420   33.7420   -8.4010 C.ar  169  TYR169     -0.0009
     58  CE1       56.3230   34.2080   -6.0500 C.ar  169  TYR169      0.0417
     59  CE2       54.7120   32.9430   -7.2890 C.ar  169  TYR169      0.0417
     60  CZ        55.3900   33.1910   -6.1270 C.ar  169  TYR169      0.1957
     61  OH        55.1200   32.4010   -5.0220 O.3   169  TYR169     -0.2866
     62  N         41.6160   24.4700  -10.5870 N.3   224  ARG224     -0.1231
     63  CA        42.8670   24.8850  -11.2090 C.3   224  ARG224      0.1694
     64  C         43.7910   23.6840  -11.3300 C.2   224  ARG224      0.2593
     65  O         44.1500   23.0650  -10.3230 O.2   224  ARG224     -0.2718
     66  CB        43.5330   25.9910  -10.3950 C.3   224  ARG224      0.0321
     67  CG        44.7070   26.6240  -11.1230 C.3   224  ARG224      0.0489
     68  CD        45.6180   27.3990  -10.1890 C.3   224  ARG224      0.2205
     69  NE        46.7120   28.0340  -10.9270 N.pl3 224  ARG224     -0.0865
     70  CZ        47.7030   28.7070  -10.3530 C.cat 224  ARG224      0.5346
     71  NH1       47.7380   28.8290   -9.0300 N.pl3 224  ARG224      0.1354
     72  NH2       48.6580   29.2570  -11.1010 N.pl3 224  ARG224      0.1354
     73  N         44.1810   23.3500  -12.5570 N.am  225  SER225     -0.1938
     74  CA        44.9160   22.1220  -12.8250 C.3   225  SER225      0.2055
     75  C         46.3550   22.4200  -13.2220 C.2   225  SER225      0.2642
     76  O         46.6220   23.3680  -13.9680 O.2   225  SER225     -0.2714
     77  CB        44.2390   21.3070  -13.9290 C.3   225  SER225      0.2130
     78  OG        45.0010   20.1500  -14.2330 O.3   225  SER225     -0.2179
     79  N         47.2760   21.5980  -12.7170 N.am  226  LEU226     -0.1977
     80  CA        48.6660   21.6430  -13.1460 C.3   226  LEU226      0.1596
     81  C         48.8760   21.0170  -14.5140 C.2   226  LEU226      0.2287
     82  O         49.8620   21.3430  -15.1850 O.2   226  LEU226     -0.2864
     83  CB        49.5580   20.9130  -12.1400 C.3   226  LEU226      0.0297
     84  CG        50.6590   21.7000  -11.4330 C.3   226  LEU226      0.0022
     85  CD1       51.6410   20.7290  -10.8040 C.3   226  LEU226      0.0001
     86  CD2       51.3710   22.6860  -12.3700 C.3   226  LEU226      0.0001
     87  N         46.2710   16.2400   -7.7220 N.3   244  LEU244     -0.1245
     88  CA        47.6400   16.7380   -7.7320 C.3   244  LEU244      0.1561
     89  C         48.5680   15.8850   -8.5790 C.2   244  LEU244      0.2260
     90  O         49.7640   16.1810   -8.6420 O.2   244  LEU244     -0.2867
     91  CB        48.1880   16.8150   -6.3050 C.3   244  LEU244      0.0270
     92  CG        47.3190   17.6250   -5.3390 C.3   244  LEU244      0.0019
     93  CD1       48.0170   17.7730   -3.9930 C.3   244  LEU244      0.0001
     94  CD2       46.9840   18.9810   -5.9470 C.3   244  LEU244      0.0001
     95  N         52.6810   15.5880   -8.4650 N.3   247  SER247     -0.1217
     96  CA        53.3830   16.8440   -8.2190 C.3   247  SER247      0.1889
     97  C         53.7260   17.0730   -6.7530 C.2   247  SER247      0.2288
     98  O         54.6100   17.8830   -6.4610 O.2   247  SER247     -0.2866
     99  CB        52.5340   18.0150   -8.7200 C.3   247  SER247      0.2089
    100  OG        51.4000   18.2230   -7.8860 O.3   247  SER247     -0.2183
    101  N         57.8470   25.4330   -3.3370 N.3   260  HIS260     -0.1241
    102  CA        56.6230   24.7610   -2.9060 C.3   260  HIS260      0.1621
    103  C         57.0280   23.4230   -2.3010 C.2   260  HIS260      0.2264
    104  O         58.2080   23.0610   -2.2790 O.2   260  HIS260     -0.2867
    105  CB        55.6520   24.5640   -4.0700 C.3   260  HIS260      0.0745
    106  CG        56.1060   23.5430   -5.0690 C.ar  260  HIS260      0.0817
    107  ND1       57.1150   23.7870   -5.9810 N.ar  260  HIS260     -0.2268
    108  CD2       55.6830   22.2750   -5.3050 C.ar  260  HIS260      0.1154
    109  CE1       57.2970   22.7130   -6.7300 C.ar  260  HIS260      0.1986
    110  NE2       56.4380   21.7810   -6.3440 N.ar  260  HIS260     -0.2212
    111  N         51.2430   39.2100  -10.4590 N.3   310  ILE310     -0.1245
    112  CA        51.5160   37.8040  -10.7450 C.3   310  ILE310      0.1561
    113  C         50.3370   37.2700  -11.5450 C.2   310  ILE310      0.2260
    114  O         49.2040   37.2610  -11.0480 O.2   310  ILE310     -0.2867
    115  CB        51.7310   36.9710   -9.4690 C.3   310  ILE310      0.0252
    116  CG1       52.9200   37.5040   -8.6760 C.3   310  ILE310      0.0019
    117  CG2       51.9640   35.5130   -9.8180 C.3   310  ILE310      0.0019
    118  CD1       53.1600   36.7570   -7.3520 C.3   310  ILE310      0.0001
    119  N         52.2360   33.9480    0.6570 N.3   345  SER345     -0.1202
    120  CA        51.0130   33.1690    0.5160 C.3   345  SER345      0.2020
    121  C         51.3040   31.9960   -0.4090 C.2   345  SER345      0.2619
    122  O         52.3860   31.8930   -0.9890 O.2   345  SER345     -0.2717
    123  CB        49.8750   34.0380   -0.0180 C.3   345  SER345      0.2103
    124  OG        50.2990   34.6820   -1.2220 O.3   345  SER345     -0.2182
    125  N         50.3290   31.0890   -0.5370 N.am  346  GLY346     -0.1942
    126  CA        50.5220   29.9090   -1.3500 C.3   346  GLY346      0.2014
    127  C         49.3220   29.6070   -2.2270 C.2   346  GLY346      0.2638
    128  O         48.2110   30.1060   -2.0100 O.2   346  GLY346     -0.2714
    129  N         49.5690   28.7220   -3.1980 N.am  347  ALA347     -0.1977
    130  CA        48.6020   28.4290   -4.2510 C.3   347  ALA347      0.1597
    131  C         47.2980   27.8640   -3.7170 C.2   347  ALA347      0.2287
    132  O         46.2550   28.0000   -4.3670 O.2   347  ALA347     -0.2864
    133  CB        49.1990   27.4340   -5.2480 C.3   347  ALA347      0.0319
    134  N         42.7500   25.4220   -4.4540 N.3   369  LEU369     -0.1245
    135  CA        43.5790   25.8320   -5.5840 C.3   369  LEU369      0.1561
    136  C         42.7310   26.5920   -6.5940 C.2   369  LEU369      0.2260
    137  O         41.6420   26.1410   -6.9650 O.2   369  LEU369     -0.2867
    138  CB        44.2120   24.6140   -6.2520 C.3   369  LEU369      0.0270
    139  CG        45.2500   23.8600   -5.4310 C.3   369  LEU369      0.0019
    140  CD1       45.4800   22.4880   -6.0260 C.3   369  LEU369      0.0001
    141  CD2       46.5680   24.6330   -5.3640 C.3   369  LEU369      0.0001
@<TRIPOS>BOND
     1    22    21    2
     2    33    34    2
     3    33    32    1
     4    32    31    1
     5    32    35    1
     6    82    81    2
     7    21    20    1
     8    19    20    1
     9    81    80    1
    10    78    77    1
    11    20    23    1
    12    35    36    1
    13    76    75    2
    14    77    74    1
    15    75    74    1
    16    75    79   am
    17    80    79    1
    18    80    83    1
    19    23    24    1
    20    42    43    1
    21    36    38   ar
    22    36    37   ar
    23    74    73    1
    24    73    64   am
    25    38    40   ar
    26    86    84    1
    27    37    39   ar
    28    83    84    1
    29    53    52    2
    30    43    44    1
    31    43    46    1
    32    24    25   ar
    33    24    26   ar
    34    44    45    2
    35    46    47    1
    36    46    48    1
    37    47    49    1
    38   113   114    2
    39   113   112    1
    40    84    85    1
    41    25    27   ar
    42    64    63    1
    43    64    65    2
    44    40    41   ar
    45    63    62    1
    46    63    66    1
    47    50    51    1
    48    67    66    1
    49    67    68    1
    50    39    41   ar
    51    72    70    1
    52    69    70    2
    53    69    68    1
    54    52    51    1
    55   112   111    1
    56   112   115    1
    57    26    28   ar
    58    70    71    1
    59    51    54    1
    60    27    29   ar
    61   117   115    1
    62    54    55    1
    63   115   116    1
    64    28    29   ar
    65    29    30    1
    66    99    96    1
    67    99   100    1
    68   116   118    1
    69    90    89    2
    70    89    88    1
    71    95    96    1
    72    57    55   ar
    73    57    59   ar
    74    55    56   ar
    75    96    97    1
    76    88    87    1
    77    88    91    1
    78    59    60   ar
    79    56    58   ar
    80   137   136    2
    81    97    98    2
    82   109   110   ar
    83   109   107   ar
    84   136   135    1
    85   110   108   ar
    86    91    92    1
    87   138   135    1
    88   138   139    1
    89    60    58   ar
    90    60    61    1
    91   140   139    1
    92   107   106   ar
    93    94    92    1
    94   135   134    1
    95   139   141    1
    96    92    93    1
    97   108   106   ar
    98   133   130    1
    99   106   105    1
   100     9     7   ar
   101     9    11   ar
   102    12    11    1
   103   132   131    2
   104    18    17    1
   105   130   131    1
   106   130   129    1
   107     7     6   ar
   108   105   102    1
   109    11    10   ar
   110   101   102    1
   111   129   127   am
   112    17    14    1
   113     6     5    1
   114     6     8   ar
   115   102   103    1
   116    10     8   ar
   117     5     2    1
   118   103   104    2
   119   127   128    2
   120   127   126    1
   121    14    13    1
   122    14    15    1
   123    13     3   am
   124     2     3    1
   125     2     1    1
   126     3     4    2
   127   126   125    1
   128   124   123    1
   129   122   121    2
   130    15    16    2
   131   125   121   am
   132   121   120    1
   133   123   120    1
   134   120   119    1
