@<TRIPOS>MOLECULE
tmp/5zx5D05.pdb
 118 117 0 0 0
SMALL
GASTEIGER

@<TRIPOS>ATOM
      1  N        176.1460  125.1200  166.8170 N.3   404  TRP404     -0.1241
      2  CA       175.7720  125.1450  168.2150 C.3   404  TRP404      0.1605
      3  C        175.1350  123.8360  168.6220 C.2   404  TRP404      0.2264
      4  O        175.4040  123.3390  169.7110 O.2   404  TRP404     -0.2867
      5  CB       174.8400  126.3250  168.4460 C.3   404  TRP404      0.0550
      6  CG       174.4850  126.6170  169.8260 C.ar  404  TRP404      0.0003
      7  CD1      173.2660  126.5330  170.3770 C.ar  404  TRP404      0.0946
      8  CD2      175.3610  127.0680  170.8460 C.ar  404  TRP404      0.0152
      9  NE1      173.3160  126.9010  171.6870 N.ar  404  TRP404     -0.2442
     10  CE2      174.6040  127.2320  171.9960 C.ar  404  TRP404      0.0810
     11  CE3      176.7200  127.3420  170.8980 C.ar  404  TRP404      0.0012
     12  CZ2      175.1520  127.6530  173.1760 C.ar  404  TRP404      0.0191
     13  CZ3      177.2540  127.7600  172.0630 C.ar  404  TRP404      0.0001
     14  CH2      176.4800  127.9110  173.1860 C.ar  404  TRP404      0.0015
     15  N        164.4480  120.8490  174.2030 N.3   415  TRP415     -0.1241
     16  CA       165.4280  121.7230  174.8360 C.3   415  TRP415      0.1605
     17  C        165.7880  121.2420  176.2340 C.2   415  TRP415      0.2264
     18  O        166.9570  121.2560  176.6280 O.2   415  TRP415     -0.2867
     19  CB       164.8920  123.1450  174.8940 C.3   415  TRP415      0.0550
     20  CG       165.6660  123.9530  175.8270 C.ar  415  TRP415      0.0003
     21  CD1      166.9700  124.2910  175.7170 C.ar  415  TRP415      0.0946
     22  CD2      165.2090  124.4950  177.0680 C.ar  415  TRP415      0.0152
     23  NE1      167.3590  125.0390  176.8040 N.ar  415  TRP415     -0.2442
     24  CE2      166.2910  125.1690  177.6500 C.ar  415  TRP415      0.0810
     25  CE3      163.9840  124.4830  177.7410 C.ar  415  TRP415      0.0012
     26  CZ2      166.1860  125.8290  178.8630 C.ar  415  TRP415      0.0191
     27  CZ3      163.8860  125.1400  178.9520 C.ar  415  TRP415      0.0001
     28  CH2      164.9780  125.8010  179.4960 C.ar  415  TRP415      0.0015
     29  N        176.3010  123.0770  172.7770 N.3   461  ILE461     -0.1245
     30  CA       175.1840  123.1960  173.7040 C.3   461  ILE461      0.1561
     31  C        175.5240  122.5280  175.0150 C.2   461  ILE461      0.2260
     32  O        175.3490  123.1090  176.0830 O.2   461  ILE461     -0.2867
     33  CB       173.8960  122.6110  173.1100 C.3   461  ILE461      0.0252
     34  CG1      173.2770  123.5640  172.1390 C.3   461  ILE461      0.0019
     35  CG2      172.8760  122.4340  174.1550 C.3   461  ILE461      0.0019
     36  CD1      172.0630  123.0230  171.4760 C.3   461  ILE461      0.0001
     37  N        178.0350  124.2870  176.9490 N.3   464  PHE464     -0.1227
     38  CA       177.4800  125.5240  177.4780 C.3   464  PHE464      0.1736
     39  C        176.6080  125.2750  178.6900 C.2   464  PHE464      0.2595
     40  O        176.8500  125.8430  179.7520 O.2   464  PHE464     -0.2718
     41  CB       176.6800  126.2520  176.4190 C.3   464  PHE464      0.0547
     42  CG       176.0150  127.4590  176.9390 C.ar  464  PHE464     -0.0202
     43  CD1      176.7590  128.5290  177.3550 C.ar  464  PHE464     -0.0042
     44  CD2      174.6520  127.5320  177.0160 C.ar  464  PHE464     -0.0042
     45  CE1      176.1560  129.6400  177.8410 C.ar  464  PHE464     -0.0003
     46  CE2      174.0470  128.6430  177.5060 C.ar  464  PHE464     -0.0003
     47  CZ       174.8000  129.6930  177.9180 C.ar  464  PHE464     -0.0000
     48  N        175.5880  124.4290  178.5560 N.am  465  TRP465     -0.1976
     49  CA       174.6990  124.1440  179.6680 C.3   465  TRP465      0.1640
     50  C        175.3920  123.4260  180.7940 C.2   465  TRP465      0.2290
     51  O        175.0110  123.6040  181.9440 O.2   465  TRP465     -0.2864
     52  CB       173.5130  123.3080  179.2290 C.3   465  TRP465      0.0576
     53  CG       172.5250  124.0920  178.5270 C.ar  465  TRP465      0.0006
     54  CD1      172.2840  124.1040  177.2060 C.ar  465  TRP465      0.0946
     55  CD2      171.6500  125.0410  179.1090 C.ar  465  TRP465      0.0152
     56  NE1      171.2920  124.9880  176.9180 N.ar  465  TRP465     -0.2442
     57  CE2      170.8890  125.5820  178.0800 C.ar  465  TRP465      0.0810
     58  CE3      171.4320  125.4810  180.4130 C.ar  465  TRP465      0.0012
     59  CZ2      169.9240  126.5370  178.3040 C.ar  465  TRP465      0.0191
     60  CZ3      170.4830  126.4270  180.6350 C.ar  465  TRP465      0.0001
     61  CH2      169.7340  126.9480  179.5870 C.ar  465  TRP465      0.0015
     62  N        177.0670  126.3780  182.5440 N.3   468  THR468     -0.1218
     63  CA       176.2210  127.2830  183.3110 C.3   468  THR468      0.1862
     64  C        175.5360  126.5870  184.4630 C.2   468  THR468      0.2287
     65  O        175.2060  127.2480  185.4420 O.2   468  THR468     -0.2866
     66  CB       175.1550  127.9600  182.4730 C.3   468  THR468      0.1770
     67  OG1      174.1810  127.0080  182.0730 O.3   468  THR468     -0.2211
     68  CG2      175.7630  128.5750  181.2860 C.3   468  THR468      0.0375
     69  N        175.7820  128.2290  188.0750 N.3   472  LEU472     -0.1245
     70  CA       174.7070  128.4950  189.0140 C.3   472  LEU472      0.1561
     71  C        174.9250  127.7480  190.3110 C.2   472  LEU472      0.2260
     72  O        174.5280  128.2320  191.3710 O.2   472  LEU472     -0.2867
     73  CB       173.3640  128.1050  188.4210 C.3   472  LEU472      0.0270
     74  CG       172.9640  128.8210  187.1520 C.3   472  LEU472      0.0019
     75  CD1      171.6520  128.3120  186.6560 C.3   472  LEU472      0.0001
     76  CD2      172.9240  130.2750  187.3780 C.3   472  LEU472      0.0001
     77  N        176.7180  136.6320  185.0530 N.3   576  LEU576     -0.1245
     78  CA       175.5260  135.9370  184.5420 C.3   576  LEU576      0.1561
     79  C        174.8720  136.5920  183.3340 C.2   576  LEU576      0.2260
     80  O        174.0630  135.9430  182.6720 O.2   576  LEU576     -0.2867
     81  CB       174.4300  135.7990  185.5740 C.3   576  LEU576      0.0270
     82  CG       174.4220  134.6810  186.5760 C.3   576  LEU576      0.0019
     83  CD1      173.2430  134.8760  187.4560 C.3   576  LEU576      0.0001
     84  CD2      174.2760  133.4060  185.8400 C.3   576  LEU576      0.0001
     85  N        175.9120  134.8800  180.1890 N.3   579  PHE579     -0.1227
     86  CA       175.1560  133.6730  179.9110 C.3   579  PHE579      0.1736
     87  C        173.7590  133.9880  179.4430 C.2   579  PHE579      0.2595
     88  O        173.2550  133.3340  178.5370 O.2   579  PHE579     -0.2718
     89  CB       175.0610  132.8180  181.1590 C.3   579  PHE579      0.0547
     90  CG       176.3440  132.2230  181.5790 C.ar  579  PHE579     -0.0202
     91  CD1      177.3800  132.0740  180.6940 C.ar  579  PHE579     -0.0042
     92  CD2      176.5200  131.8270  182.8650 C.ar  579  PHE579     -0.0042
     93  CE1      178.5560  131.5260  181.0910 C.ar  579  PHE579     -0.0003
     94  CE2      177.6890  131.2880  183.2550 C.ar  579  PHE579     -0.0003
     95  CZ       178.7090  131.1350  182.3740 C.ar  579  PHE579     -0.0000
     96  N        173.1420  134.9990  180.0200 N.am  580  LEU580     -0.1980
     97  CA       171.7890  135.3960  179.6650 C.3   580  LEU580      0.1596
     98  C        171.7470  136.0760  178.3100 C.2   580  LEU580      0.2287
     99  O        170.6850  136.3590  177.7960 O.2   580  LEU580     -0.2864
    100  CB       171.2120  136.3050  180.7490 C.3   580  LEU580      0.0297
    101  CG       169.7660  136.7660  180.6550 C.3   580  LEU580      0.0022
    102  CD1      169.6820  138.1880  180.1490 C.3   580  LEU580      0.0001
    103  CD2      168.9510  135.8230  179.7960 C.3   580  LEU580      0.0001
    104  N        173.0320  134.8870  175.3590 N.3   582  VAL582     -0.1231
    105  CA       173.3330  133.9500  174.2850 C.3   582  VAL582      0.1692
    106  C        172.1000  133.4850  173.5410 C.2   582  VAL582      0.2592
    107  O        172.2440  132.7850  172.5270 O.2   582  VAL582     -0.2718
    108  CB       174.1210  132.7240  174.7840 C.3   582  VAL582      0.0266
    109  CG1      175.2080  133.1430  175.7100 C.3   582  VAL582      0.0020
    110  CG2      173.2350  131.7330  175.4180 C.3   582  VAL582      0.0020
    111  N        170.9040  133.8340  173.9880 N.am  583  ASN583     -0.1974
    112  CA       169.7330  133.4720  173.2140 C.3   583  ASN583      0.1688
    113  C        169.2650  134.6430  172.3750 C.2   583  ASN583      0.2292
    114  O        169.7050  135.7720  172.5550 O.2   583  ASN583     -0.2864
    115  CB       168.6090  132.9500  174.1030 C.3   583  ASN583      0.1181
    116  CG       168.2850  133.8630  175.2080 C.2   583  ASN583      0.2629
    117  OD1      168.9000  134.8980  175.3630 O.2   583  ASN583     -0.2716
    118  ND2      167.2900  133.5010  175.9880 N.am  583  ASN583     -0.0877
@<TRIPOS>BOND
     1     1     2    1
     2     2     5    1
     3     2     3    1
     4     5     6    1
     5     3     4    2
     6     6     7   ar
     7     6     8   ar
     8     7     9   ar
     9     8    11   ar
    10     8    10   ar
    11    11    13   ar
    12    36    34    1
    13     9    10   ar
    14    10    12   ar
    15    13    14   ar
    16    34    33    1
    17   113   114    2
    18   113   112    1
    19   107   106    2
    20    29    30    1
    21    33    30    1
    22    33    35    1
    23    12    14   ar
    24   112   111    1
    25   112   115    1
    26   106   111   am
    27   106   105    1
    28    30    31    1
    29   115   116    1
    30    15    16    1
    31   105   108    1
    32   105   104    1
    33   108   110    1
    34   108   109    1
    35    16    19    1
    36    16    17    1
    37    19    20    1
    38    31    32    2
    39   116   117    2
    40   116   118   am
    41    21    20   ar
    42    21    23   ar
    43    20    22   ar
    44    17    18    2
    45    41    42    1
    46    41    38    1
    47    23    24   ar
    48    56    54   ar
    49    56    57   ar
    50    42    44   ar
    51    42    43   ar
    52    37    38    1
    53    44    46   ar
    54    22    24   ar
    55    22    25   ar
    56    54    53   ar
    57    43    45   ar
    58    38    39    1
    59    46    47   ar
    60    24    26   ar
    61    25    27   ar
    62    99    98    2
    63    45    47   ar
    64    57    59   ar
    65    57    55   ar
    66    59    61   ar
    67    98    97    1
    68    53    55   ar
    69    53    52    1
    70    88    87    2
    71    48    39   am
    72    48    49    1
    73    39    40    2
    74    26    28   ar
    75    27    28   ar
    76    55    58   ar
    77    52    49    1
    78    87    86    1
    79    87    96   am
    80    61    60   ar
    81    97    96    1
    82    97   100    1
    83    49    50    1
    84   103   101    1
    85    86    85    1
    86    86    89    1
    87   102   101    1
    88    58    60   ar
    89   101   100    1
    90    91    93   ar
    91    91    90   ar
    92    50    51    2
    93    93    95   ar
    94    89    90    1
    95    68    66    1
    96    90    92   ar
    97    67    66    1
    98    95    94   ar
    99    66    63    1
   100    62    63    1
   101    80    79    2
   102    92    94   ar
   103    63    64    1
   104    79    78    1
   105    64    65    2
   106    78    77    1
   107    78    81    1
   108    81    82    1
   109    84    82    1
   110    82    83    1
   111    75    74    1
   112    74    76    1
   113    74    73    1
   114    69    70    1
   115    73    70    1
   116    70    71    1
   117    71    72    2
