@<TRIPOS>MOLECULE
tmp/5zx5D00.pdb
 89 84 0 0 0
SMALL
GASTEIGER

@<TRIPOS>ATOM
      1  N        174.2480  166.6320  183.4250 N.3   606  ILE606     -0.1245
      2  CA       173.3890  167.7770  183.7140 C.3   606  ILE606      0.1561
      3  C        172.5330  167.5130  184.9400 C.2   606  ILE606      0.2260
      4  O        172.3230  168.4080  185.7660 O.2   606  ILE606     -0.2867
      5  CB       172.5160  168.1120  182.5010 C.3   606  ILE606      0.0252
      6  CG1      173.3690  168.3560  181.2820 C.3   606  ILE606      0.0019
      7  CG2      171.7730  169.3680  182.7370 C.3   606  ILE606      0.0019
      8  CD1      172.5810  168.4970  180.0450 C.3   606  ILE606      0.0001
      9  N        172.5300  169.7910  188.4570 N.3   610  VAL610     -0.1245
     10  CA       171.3260  170.1980  189.1680 C.3   610  VAL610      0.1561
     11  C        171.3180  169.6100  190.5760 C.2   610  VAL610      0.2260
     12  O        170.9250  170.2730  191.5470 O.2   610  VAL610     -0.2867
     13  CB       170.0980  169.7850  188.3530 C.3   610  VAL610      0.0252
     14  CG1      168.8700  170.1440  189.0570 C.3   610  VAL610      0.0019
     15  CG2      170.1110  170.4730  187.0270 C.3   610  VAL610      0.0019
     16  N        173.7750  171.8020  192.5980 N.3   613  SER613     -0.1202
     17  CA       173.2970  173.1580  192.8030 C.3   613  SER613      0.2020
     18  C        172.0370  173.2290  193.6340 C.2   613  SER613      0.2618
     19  O        171.6270  174.3320  193.9890 O.2   613  SER613     -0.2717
     20  CB       173.0310  173.8470  191.4830 C.3   613  SER613      0.2103
     21  OG       171.9250  173.2760  190.8540 O.3   613  SER613     -0.2182
     22  N        171.4090  172.1020  193.9590 N.am  614  PHE614     -0.1975
     23  CA       170.5220  172.1020  195.1130 C.3   614  PHE614      0.1639
     24  C        171.1670  171.5750  196.3710 C.2   614  PHE614      0.2290
     25  O        170.8200  172.0300  197.4530 O.2   614  PHE614     -0.2864
     26  CB       169.2590  171.2940  194.8310 C.3   614  PHE614      0.0560
     27  CG       168.3870  171.0940  196.0200 C.ar  614  PHE614     -0.0200
     28  CD1      167.7580  172.1480  196.6100 C.ar  614  PHE614     -0.0042
     29  CD2      168.1810  169.8490  196.5310 C.ar  614  PHE614     -0.0042
     30  CE1      166.9640  171.9560  197.7040 C.ar  614  PHE614     -0.0003
     31  CE2      167.3930  169.6600  197.6090 C.ar  614  PHE614     -0.0003
     32  CZ       166.7950  170.6960  198.1880 C.ar  614  PHE614     -0.0000
     33  N        173.3560  174.7990  198.4900 N.3   617  PRO617     -0.2116
     34  CA       172.6610  175.7980  199.2990 C.3   617  PRO617      0.1372
     35  C        171.6370  175.2340  200.2530 C.2   617  PRO617      0.2244
     36  O        171.2130  175.9570  201.1500 O.2   617  PRO617     -0.2868
     37  CB       171.9960  176.6900  198.2590 C.3   617  PRO617      0.0268
     38  CG       171.8040  175.8780  197.1740 C.3   617  PRO617      0.0207
     39  CD       172.9480  174.9700  197.0890 C.3   617  PRO617      0.0892
     40  N        163.6090  176.0590  197.3360 N.3   676  LEU676     -0.1245
     41  CA       164.7020  175.4360  196.6050 C.3   676  LEU676      0.1561
     42  C        164.4020  173.9900  196.2870 C.2   676  LEU676      0.2260
     43  O        164.7440  173.5190  195.2040 O.2   676  LEU676     -0.2867
     44  CB       166.0010  175.5040  197.3930 C.3   676  LEU676      0.0270
     45  CG       166.5850  176.8530  197.7590 C.3   676  LEU676      0.0019
     46  CD1      167.8340  176.6030  198.5150 C.3   676  LEU676      0.0001
     47  CD2      166.8670  177.6530  196.5530 C.3   676  LEU676      0.0001
     48  N        161.8330  174.0050  193.3340 N.3   679  VAL679     -0.1231
     49  CA       162.4100  174.2170  192.0120 C.3   679  VAL679      0.1692
     50  C        163.3030  173.0520  191.6170 C.2   679  VAL679      0.2592
     51  O        163.3460  172.6610  190.4460 O.2   679  VAL679     -0.2718
     52  CB       163.1650  175.5490  191.9820 C.3   679  VAL679      0.0266
     53  CG1      163.7540  175.8080  190.6410 C.3   679  VAL679      0.0020
     54  CG2      162.2550  176.6560  192.3440 C.3   679  VAL679      0.0020
     55  N        163.9800  172.4410  192.5840 N.am  680  TYR680     -0.1976
     56  CA       164.8280  171.2930  192.2920 C.3   680  TYR680      0.1639
     57  C        164.0300  170.0870  191.8530 C.2   680  TYR680      0.2290
     58  O        164.4230  169.3980  190.9120 O.2   680  TYR680     -0.2864
     59  CB       165.6470  170.9270  193.5060 C.3   680  TYR680      0.0560
     60  CG       166.3210  169.5980  193.4090 C.ar  680  TYR680     -0.0198
     61  CD1      167.3720  169.3950  192.5610 C.ar  680  TYR680     -0.0009
     62  CD2      165.9150  168.5530  194.1990 C.ar  680  TYR680     -0.0009
     63  CE1      167.9910  168.2020  192.5040 C.ar  680  TYR680      0.0417
     64  CE2      166.5250  167.3550  194.1300 C.ar  680  TYR680      0.0417
     65  CZ       167.5580  167.1870  193.2780 C.ar  680  TYR680      0.1957
     66  OH       168.1680  165.9830  193.2160 O.3   680  TYR680     -0.2866
     67  N        162.6020  170.7750  188.2770 N.3   683  VAL683     -0.1245
     68  CA       163.5690  170.6800  187.1920 C.3   683  VAL683      0.1561
     69  C        164.0540  169.2630  187.0100 C.2   683  VAL683      0.2260
     70  O        164.0760  168.7430  185.8890 O.2   683  VAL683     -0.2867
     71  CB       164.7170  171.6430  187.4650 C.3   683  VAL683      0.0252
     72  CG1      165.8080  171.4090  186.5140 C.3   683  VAL683      0.0019
     73  CG2      164.1710  172.9810  187.2870 C.3   683  VAL683      0.0019
     74  N        161.7070  167.9230  184.2060 N.3   687  ILE687     -0.1231
     75  CA       162.4690  168.2050  183.0110 C.3   687  ILE687      0.1692
     76  C        163.5170  167.1470  182.7410 C.2   687  ILE687      0.2591
     77  O        163.6330  166.6620  181.6210 O.2   687  ILE687     -0.2718
     78  CB       163.0890  169.6060  183.0970 C.3   687  ILE687      0.0266
     79  CG1      161.9710  170.5850  183.3140 C.3   687  ILE687      0.0019
     80  CG2      163.7490  169.9390  181.8140 C.3   687  ILE687      0.0020
     81  CD1      162.4150  171.8630  183.8530 C.3   687  ILE687      0.0001
     82  N        164.3010  166.7620  183.7450 N.am  688  MET688     -0.1979
     83  CA       165.4870  165.9890  183.4140 C.3   688  MET688      0.1605
     84  C        165.1820  164.5100  183.2710 C.2   688  MET688      0.2287
     85  O        165.5510  163.8900  182.2680 O.2   688  MET688     -0.2864
     86  CB       166.5740  166.2180  184.4480 C.3   688  MET688      0.0413
     87  CG       167.0980  167.6230  184.4850 C.3   688  MET688      0.0598
     88  SD       167.6320  168.1420  182.8750 S.3   688  MET688     -0.1393
     89  CE       168.9370  166.9840  182.5830 C.3   688  MET688      0.0692
@<TRIPOS>BOND
     1     8     6    1
     2     6     5    1
     3    77    76    2
     4    80    78    1
     5    85    84    2
     6     5     7    1
     7     5     2    1
     8    89    88    1
     9    76    75    1
    10    76    82   am
    11    88    87    1
    12    75    78    1
    13    75    74    1
    14    78    79    1
    15    84    83    1
    16    79    81    1
    17    83    82    1
    18    83    86    1
    19     1     2    1
    20     2     3    1
    21    86    87    1
    22     3     4    2
    23    70    69    2
    24    72    71    1
    25    69    68    1
    26    15    13    1
    27    68    71    1
    28    68    67    1
    29    73    71    1
    30    13    14    1
    31    13    10    1
    32     9    10    1
    33    10    11    1
    34    51    50    2
    35    11    12    2
    36    53    52    1
    37    21    20    1
    38    58    57    2
    39    20    17    1
    40    50    49    1
    41    50    55   am
    42    57    56    1
    43    52    49    1
    44    52    54    1
    45    49    48    1
    46    56    55    1
    47    56    59    1
    48    63    61   ar
    49    63    65   ar
    50    61    60   ar
    51    16    17    1
    52    17    18    1
    53    66    65    1
    54    65    64   ar
    55    60    59    1
    56    60    62   ar
    57    18    22   am
    58    18    19    2
    59    22    23    1
    60    64    62   ar
    61    26    23    1
    62    26    27    1
    63    23    24    1
    64    43    42    2
    65    27    29   ar
    66    27    28   ar
    67    42    41    1
    68    24    25    2
    69    29    31   ar
    70    47    45    1
    71    41    40    1
    72    41    44    1
    73    28    30   ar
    74    39    38    1
    75    39    33    1
    76    38    37    1
    77    44    45    1
    78    31    32   ar
    79    30    32   ar
    80    45    46    1
    81    37    34    1
    82    33    34    1
    83    34    35    1
    84    35    36    2
