@<TRIPOS>MOLECULE
tmp/5zx5D03.pdb
 105 98 0 0 0
SMALL
GASTEIGER

@<TRIPOS>ATOM
      1  N        183.8770  143.4940  177.4590 N.3   523  TYR523     -0.1227
      2  CA       183.5770  144.0920  178.7500 C.3   523  TYR523      0.1736
      3  C        183.3570  143.0650  179.8460 C.2   523  TYR523      0.2595
      4  O        183.3120  143.4490  181.0170 O.2   523  TYR523     -0.2718
      5  CB       182.3490  144.9850  178.6400 C.3   523  TYR523      0.0548
      6  CG       181.9370  145.6300  179.9640 C.ar  523  TYR523     -0.0200
      7  CD1      182.6960  146.6600  180.5300 C.ar  523  TYR523     -0.0009
      8  CD2      180.7880  145.2070  180.6410 C.ar  523  TYR523     -0.0009
      9  CE1      182.3160  147.2690  181.7330 C.ar  523  TYR523      0.0417
     10  CE2      180.4030  145.7930  181.8540 C.ar  523  TYR523      0.0417
     11  CZ       181.1710  146.8230  182.3860 C.ar  523  TYR523      0.1957
     12  OH       180.7660  147.4220  183.5560 O.3   523  TYR523     -0.2866
     13  N        183.2000  141.7860  179.5030 N.am  524  PHE524     -0.1976
     14  CA       183.1120  140.7230  180.4960 C.3   524  PHE524      0.1639
     15  C        184.4240  139.9720  180.6410 C.2   524  PHE524      0.2290
     16  O        184.4400  138.8490  181.1490 O.2   524  PHE524     -0.2864
     17  CB       181.9900  139.7480  180.1560 C.3   524  PHE524      0.0560
     18  CG       180.6300  140.3500  180.2320 C.ar  524  PHE524     -0.0200
     19  CD1      180.0370  140.5890  181.4510 C.ar  524  PHE524     -0.0042
     20  CD2      179.9350  140.6600  179.0790 C.ar  524  PHE524     -0.0042
     21  CE1      178.7900  141.1410  181.5210 C.ar  524  PHE524     -0.0003
     22  CE2      178.6800  141.2110  179.1440 C.ar  524  PHE524     -0.0003
     23  CZ       178.1090  141.4540  180.3660 C.ar  524  PHE524     -0.0000
     24  N        179.0740  140.7310  193.2040 N.3   570  ILE570     -0.1245
     25  CA       178.5230  141.5860  192.1740 C.3   570  ILE570      0.1561
     26  C        179.1570  141.3010  190.8260 C.2   570  ILE570      0.2260
     27  O        178.4640  141.2660  189.8160 O.2   570  ILE570     -0.2867
     28  CB       178.7160  143.0400  192.5960 C.3   570  ILE570      0.0252
     29  CG1      178.0070  143.2840  193.8870 C.3   570  ILE570      0.0019
     30  CG2      178.1660  143.9390  191.5790 C.3   570  ILE570      0.0019
     31  CD1      178.3430  144.5640  194.4770 C.3   570  ILE570      0.0001
     32  N        177.1090  139.9260  187.5640 N.3   574  VAL574     -0.1245
     33  CA       177.1900  140.5890  186.2750 C.3   574  VAL574      0.1561
     34  C        177.6610  139.6120  185.2240 C.2   574  VAL574      0.2260
     35  O        177.1980  139.6500  184.0820 O.2   574  VAL574     -0.2867
     36  CB       178.1020  141.8110  186.3890 C.3   574  VAL574      0.0252
     37  CG1      178.3740  142.4420  185.0520 C.3   574  VAL574      0.0019
     38  CG2      177.4430  142.7800  187.2280 C.3   574  VAL574      0.0019
     39  N        175.1610  137.8490  183.0340 N.3   577  LEU577     -0.1245
     40  CA       174.6040  138.4280  181.8240 C.3   577  LEU577      0.1561
     41  C        175.3270  137.9520  180.5810 C.2   577  LEU577      0.2260
     42  O        174.7620  138.0110  179.4890 O.2   577  LEU577     -0.2867
     43  CB       174.6450  139.9400  181.9090 C.3   577  LEU577      0.0270
     44  CG       173.6610  140.4500  182.9420 C.3   577  LEU577      0.0019
     45  CD1      173.9200  141.8640  183.2430 C.3   577  LEU577      0.0001
     46  CD2      172.2990  140.3320  182.3930 C.3   577  LEU577      0.0001
     47  N        171.0270  142.9200  176.4870 N.3   590  VAL590     -0.1231
     48  CA       172.2610  143.0590  177.2400 C.3   590  VAL590      0.1692
     49  C        173.2930  143.8060  176.4190 C.2   590  VAL590      0.2591
     50  O        174.0520  144.6220  176.9460 O.2   590  VAL590     -0.2718
     51  CB       172.7610  141.6800  177.6700 C.3   590  VAL590      0.0266
     52  CG1      174.0020  141.7930  178.4710 C.3   590  VAL590      0.0020
     53  CG2      171.7360  141.0410  178.4680 C.3   590  VAL590      0.0020
     54  N        173.2970  143.6000  175.1050 N.am  591  MET591     -0.1979
     55  CA       174.1890  144.3740  174.2530 C.3   591  MET591      0.1605
     56  C        173.6970  145.7880  174.0460 C.2   591  MET591      0.2287
     57  O        174.4060  146.5860  173.4410 O.2   591  MET591     -0.2864
     58  CB       174.3600  143.7020  172.8930 C.3   591  MET591      0.0413
     59  CG       174.9910  142.3510  172.9570 C.3   591  MET591      0.0598
     60  SD       176.6550  142.3960  173.6040 S.3   591  MET591     -0.1393
     61  CE       176.9280  140.6570  173.8840 C.3   591  MET591      0.0692
     62  N        171.9420  147.6760  176.7400 N.3   593  ILE593     -0.1231
     63  CA       172.0590  148.4240  177.9860 C.3   593  ILE593      0.1692
     64  C        173.3620  149.1950  178.0360 C.2   593  ILE593      0.2593
     65  O        173.3650  150.3820  178.3440 O.2   593  ILE593     -0.2718
     66  CB       171.9230  147.4780  179.1850 C.3   593  ILE593      0.0266
     67  CG1      170.4920  147.0240  179.3250 C.3   593  ILE593      0.0019
     68  CG2      172.3640  148.1310  180.4480 C.3   593  ILE593      0.0020
     69  CD1      170.3680  145.8900  180.2420 C.3   593  ILE593      0.0001
     70  N        174.4750  148.5660  177.6860 N.am  594  GLY594     -0.1942
     71  CA       175.7340  149.2880  177.7020 C.3   594  GLY594      0.2014
     72  C        175.8310  150.3200  176.6090 C.2   594  GLY594      0.2638
     73  O        176.4480  151.3750  176.7900 O.2   594  GLY594     -0.2714
     74  N        175.1690  150.0700  175.4970 N.am  595  LYS595     -0.1977
     75  CA       175.1830  150.9890  174.3780 C.3   595  LYS595      0.1596
     76  C        174.2890  152.1810  174.6280 C.2   595  LYS595      0.2287
     77  O        174.3720  153.1690  173.8990 O.2   595  LYS595     -0.2864
     78  CB       174.7570  150.2420  173.1210 C.3   595  LYS595      0.0298
     79  CG       175.1130  150.8730  171.8180 C.3   595  LYS595      0.0038
     80  CD       174.8750  149.8880  170.7110 C.3   595  LYS595      0.0206
     81  CE       176.1580  149.1540  170.3640 C.3   595  LYS595      0.1093
     82  NZ       176.5230  148.0900  171.3290 N.3   595  LYS595     -0.1314
     83  N        173.7840  153.2310  178.1970 N.3   597  VAL597     -0.1245
     84  CA       174.5320  153.8500  179.2880 C.3   597  VAL597      0.1561
     85  C        175.6470  154.7160  178.7410 C.2   597  VAL597      0.2260
     86  O        175.8510  155.8450  179.1910 O.2   597  VAL597     -0.2867
     87  CB       175.1030  152.7820  180.2300 C.3   597  VAL597      0.0252
     88  CG1      176.0270  153.3950  181.2410 C.3   597  VAL597      0.0019
     89  CG2      174.0260  152.1120  180.9430 C.3   597  VAL597      0.0019
     90  N        175.2850  143.7240  166.4180 N.3   710  VAL710     -0.1245
     91  CA       176.4580  143.4730  167.2480 C.3   710  VAL710      0.1561
     92  C        176.3250  142.1580  167.9970 C.2   710  VAL710      0.2260
     93  O        177.3130  141.4350  168.1730 O.2   710  VAL710     -0.2867
     94  CB       176.6660  144.6640  168.1920 C.3   710  VAL710      0.0252
     95  CG1      177.7670  144.4210  169.1660 C.3   710  VAL710      0.0019
     96  CG2      177.0030  145.8570  167.3900 C.3   710  VAL710      0.0019
     97  N        178.8360  138.9540  167.4700 N.3   714  GLN714     -0.1245
     98  CA       179.6050  138.3620  168.5600 C.3   714  GLN714      0.1566
     99  C        179.1880  136.9440  168.8910 C.2   714  GLN714      0.2260
    100  O        179.8870  136.2720  169.6540 O.2   714  GLN714     -0.2867
    101  CB       179.5100  139.2290  169.7940 C.3   714  GLN714      0.0367
    102  CG       180.2480  140.5130  169.6070 C.3   714  GLN714      0.0905
    103  CD       180.1740  141.3910  170.8080 C.2   714  GLN714      0.2608
    104  OE1      179.4910  141.0710  171.7730 O.2   714  GLN714     -0.2717
    105  NE2      180.8830  142.5090  170.7680 N.am  714  GLN714     -0.0878
@<TRIPOS>BOND
     1    90    91    1
     2    91    92    1
     3    91    94    1
     4    96    94    1
     5    97    98    1
     6    92    93    2
     7    94    95    1
     8    98    99    1
     9    98   101    1
    10    99   100    2
    11   102   101    1
    12   102   103    1
    13    81    80    1
    14    81    82    1
    15    80    79    1
    16   105   103   am
    17   103   104    2
    18    79    78    1
    19    58    59    1
    20    58    55    1
    21    59    60    1
    22    78    75    1
    23    57    56    2
    24    60    61    1
    25    77    76    2
    26    56    55    1
    27    55    54    1
    28    75    76    1
    29    75    74    1
    30    54    49   am
    31    74    72   am
    32    49    50    2
    33    49    48    1
    34    47    48    1
    35    72    73    2
    36    72    71    1
    37    62    63    1
    38    48    51    1
    39     1     2    1
    40    51    53    1
    41    51    52    1
    42    70    71    1
    43    70    64   am
    44    63    64    1
    45    63    66    1
    46    64    65    2
    47    83    84    1
    48     5     2    1
    49     5     6    1
    50    85    86    2
    51    85    84    1
    52     2     3    1
    53    20    22   ar
    54    20    18   ar
    55    22    23   ar
    56    66    67    1
    57    66    68    1
    58    84    87    1
    59    67    69    1
    60    42    41    2
    61    13     3   am
    62    13    14    1
    63     3     4    2
    64     6     7   ar
    65     6     8   ar
    66    17    18    1
    67    17    14    1
    68    87    89    1
    69    87    88    1
    70    18    19   ar
    71    23    21   ar
    72    14    15    1
    73     7     9   ar
    74    41    40    1
    75     8    10   ar
    76    15    16    2
    77    19    21   ar
    78     9    11   ar
    79    40    43    1
    80    40    39    1
    81    10    11   ar
    82    43    44    1
    83    11    12    1
    84    46    44    1
    85    44    45    1
    86    35    34    2
    87    37    36    1
    88    34    33    1
    89    33    36    1
    90    33    32    1
    91    36    38    1
    92    27    26    2
    93    26    25    1
    94    30    28    1
    95    25    28    1
    96    25    24    1
    97    28    29    1
    98    29    31    1
