@<TRIPOS>MOLECULE
tmp/5zx5D01.pdb
 78 75 0 0 0
SMALL
GASTEIGER

@<TRIPOS>ATOM
      1  N        174.7830  168.2110  187.8840 N.3   609  LEU609     -0.1245
      2  CA       174.9420  169.6270  188.1960 C.3   609  LEU609      0.1561
      3  C        173.7220  170.1880  188.8960 C.2   609  LEU609      0.2260
      4  O        173.8470  171.0410  189.7780 O.2   609  LEU609     -0.2867
      5  CB       175.2010  170.4410  186.9490 C.3   609  LEU609      0.0270
      6  CG       176.6050  170.6480  186.4490 C.3   609  LEU609      0.0019
      7  CD1      177.1120  169.4950  185.7020 C.3   609  LEU609      0.0001
      8  CD2      176.5070  171.8010  185.5610 C.3   609  LEU609      0.0001
      9  N        174.0210  168.9920  192.4360 N.3   612  LEU612     -0.1245
     10  CA       174.9240  169.7680  193.2830 C.3   612  LEU612      0.1561
     11  C        174.3680  171.1430  193.5860 C.2   612  LEU612      0.2260
     12  O        174.4470  171.6050  194.7260 O.2   612  LEU612     -0.2867
     13  CB       176.2940  169.8890  192.6390 C.3   612  LEU612      0.0270
     14  CG       177.0810  168.6010  192.7360 C.3   612  LEU612      0.0019
     15  CD1      178.3310  168.7080  191.9470 C.3   612  LEU612      0.0001
     16  CD2      177.4070  168.3900  194.1730 C.3   612  LEU612      0.0001
     17  N        174.1690  172.0060  197.6410 N.3   616  VAL616     -0.1245
     18  CA       175.0420  172.9150  198.3780 C.3   616  VAL616      0.1561
     19  C        174.2780  174.0310  199.0970 C.2   616  VAL616      0.2260
     20  O        174.5160  174.2080  200.2990 O.2   616  VAL616     -0.2867
     21  CB       176.1410  173.4700  197.4660 C.3   616  VAL616      0.0252
     22  CG1      177.0140  174.3690  198.2270 C.3   616  VAL616      0.0019
     23  CG2      176.9360  172.3500  196.9040 C.3   616  VAL616      0.0019
     24  N        185.1120  171.8700  208.9050 N.3   628  PRO628     -0.2102
     25  CA       185.4390  171.1150  207.6920 C.3   628  PRO628      0.1504
     26  C        185.6250  169.6360  207.9770 C.2   628  PRO628      0.2576
     27  O        186.4420  169.2380  208.8060 O.2   628  PRO628     -0.2718
     28  CB       186.7410  171.7600  207.2150 C.3   628  PRO628      0.0282
     29  CG       186.7290  173.0810  207.7900 C.3   628  PRO628      0.0208
     30  CD       186.0770  172.9550  209.1190 C.3   628  PRO628      0.0893
     31  N        184.8300  168.8270  207.2940 N.am  629  SER629     -0.1938
     32  CA       184.8830  167.3880  207.4390 C.3   629  SER629      0.2055
     33  C        184.5280  166.7750  206.1030 C.2   629  SER629      0.2643
     34  O        184.0300  167.4480  205.2050 O.2   629  SER629     -0.2714
     35  CB       183.9300  166.9010  208.5240 C.3   629  SER629      0.2130
     36  OG       183.9390  165.4890  208.6030 O.3   629  SER629     -0.2179
     37  N        184.7800  165.4830  205.9750 N.am  630  TRP630     -0.1973
     38  CA       184.3820  164.7970  204.7610 C.3   630  TRP630      0.1640
     39  C        182.9290  164.3680  204.7840 C.2   630  TRP630      0.2290
     40  O        182.4500  163.8140  203.7940 O.2   630  TRP630     -0.2864
     41  CB       185.2850  163.5970  204.5240 C.3   630  TRP630      0.0576
     42  CG       186.6530  164.0260  204.2010 C.ar  630  TRP630      0.0006
     43  CD1      187.7020  164.1220  205.0580 C.ar  630  TRP630      0.0946
     44  CD2      187.1300  164.4580  202.9300 C.ar  630  TRP630      0.0152
     45  NE1      188.8120  164.5760  204.3970 N.ar  630  TRP630     -0.2442
     46  CE2      188.4830  164.7890  203.0850 C.ar  630  TRP630      0.0810
     47  CE3      186.5440  164.5920  201.6720 C.ar  630  TRP630      0.0012
     48  CZ2      189.2570  165.2420  202.0360 C.ar  630  TRP630      0.0191
     49  CZ3      187.3120  165.0420  200.6360 C.ar  630  TRP630      0.0001
     50  CH2      188.6540  165.3600  200.8200 C.ar  630  TRP630      0.0015
     51  N        180.7160  166.6290  204.8280 N.3   632  LEU632     -0.1231
     52  CA       180.0480  167.6610  204.0490 C.3   632  LEU632      0.1693
     53  C        179.7180  167.1600  202.6520 C.2   632  LEU632      0.2591
     54  O        178.6260  167.4180  202.1420 O.2   632  LEU632     -0.2718
     55  CB       180.8970  168.9210  203.9810 C.3   632  LEU632      0.0284
     56  CG       181.1000  169.6410  205.3030 C.3   632  LEU632      0.0019
     57  CD1      181.9490  170.8630  205.0900 C.3   632  LEU632      0.0001
     58  CD2      179.7790  170.0110  205.9100 C.3   632  LEU632      0.0001
     59  N        180.6470  166.4340  202.0230 N.am  633  ALA633     -0.1980
     60  CA       180.3910  165.8630  200.7030 C.3   633  ALA633      0.1597
     61  C        179.2560  164.8630  200.7380 C.2   633  ALA633      0.2287
     62  O        178.3830  164.8700  199.8570 O.2   633  ALA633     -0.2864
     63  CB       181.6290  165.1530  200.1790 C.3   633  ALA633      0.0319
     64  N        175.9370  166.7410  201.1240 N.3   636  ILE636     -0.1231
     65  CA       175.4390  167.5640  200.0260 C.3   636  ILE636      0.1692
     66  C        175.0100  166.6970  198.8560 C.2   636  ILE636      0.2591
     67  O        174.1300  167.0820  198.0880 O.2   636  ILE636     -0.2718
     68  CB       176.4420  168.6430  199.5810 C.3   636  ILE636      0.0266
     69  CG1      177.7170  168.0660  199.0030 C.3   636  ILE636      0.0019
     70  CG2      176.7310  169.6000  200.6920 C.3   636  ILE636      0.0020
     71  CD1      178.5180  169.0900  198.2730 C.3   636  ILE636      0.0001
     72  N        175.6410  165.5440  198.6570 N.am  637  VAL637     -0.1980
     73  CA       175.1860  164.6900  197.5670 C.3   637  VAL637      0.1595
     74  C        174.0500  163.7930  198.0330 C.2   637  VAL637      0.2287
     75  O        173.1220  163.5100  197.2760 O.2   637  VAL637     -0.2864
     76  CB       176.3690  163.8990  196.9940 C.3   637  VAL637      0.0276
     77  CG1      175.9390  162.9910  195.8840 C.3   637  VAL637      0.0022
     78  CG2      177.3830  164.8530  196.4650 C.3   637  VAL637      0.0022
@<TRIPOS>BOND
     1     8     6    1
     2     7     6    1
     3     6     5    1
     4     5     2    1
     5     1     2    1
     6     2     3    1
     7     3     4    2
     8    15    14    1
     9     9    10    1
    10    13    14    1
    11    13    10    1
    12    14    16    1
    13    10    11    1
    14    11    12    2
    15    77    76    1
    16    78    76    1
    17    23    21    1
    18    76    73    1
    19    75    74    2
    20    21    22    1
    21    21    18    1
    22    73    74    1
    23    73    72    1
    24    17    18    1
    25    67    66    2
    26    71    69    1
    27    18    19    1
    28    72    66   am
    29    66    65    1
    30    69    68    1
    31    19    20    2
    32    68    65    1
    33    68    70    1
    34    62    61    2
    35    65    64    1
    36    63    60    1
    37    49    50   ar
    38    49    47   ar
    39    60    61    1
    40    60    59    1
    41    50    48   ar
    42    47    44   ar
    43    59    53   am
    44    48    46   ar
    45    54    53    2
    46    53    52    1
    47    44    46   ar
    48    44    42   ar
    49    46    45   ar
    50    40    39    2
    51    55    52    1
    52    55    56    1
    53    52    51    1
    54    42    41    1
    55    42    43   ar
    56    45    43   ar
    57    41    38    1
    58    38    39    1
    59    38    37    1
    60    57    56    1
    61    34    33    2
    62    56    58    1
    63    37    33   am
    64    33    32    1
    65    28    25    1
    66    28    29    1
    67    31    32    1
    68    31    26   am
    69    32    35    1
    70    25    26    1
    71    25    24    1
    72    29    30    1
    73    26    27    2
    74    35    36    1
    75    24    30    1
