@<TRIPOS>MOLECULE
tmp/5zxdB01.pdb
 115 109 0 0 0
SMALL
GASTEIGER

@<TRIPOS>ATOM
      1  N         -7.0090   77.2620   47.0300 N.3   179  ASP179     -0.1239
      2  CA        -5.5650   77.2180   46.8770 C.3   179  ASP179      0.1674
      3  C         -4.9960   76.0240   47.6440 C.2   179  ASP179      0.2266
      4  O         -5.7040   75.3180   48.3660 O.2   179  ASP179     -0.2867
      5  CB        -4.9310   78.5190   47.3660 C.3   179  ASP179      0.1410
      6  CG        -5.4350   78.9310   48.7300 C.2   179  ASP179      0.3668
      7  OD1       -6.6270   79.2850   48.8390 O.co2 179  ASP179     -0.2456
      8  OD2       -4.6430   78.8930   49.6940 O.co2 179  ASP179     -0.2456
      9  N         -0.0800   96.1970   41.1410 N.3   274  TYR274     -0.1227
     10  CA        -1.2140   96.7560   40.4240 C.3   274  TYR274      0.1736
     11  C         -1.4300   98.2100   40.8400 C.2   274  TYR274      0.2595
     12  O         -0.7410   98.7460   41.7130 O.2   274  TYR274     -0.2718
     13  CB        -2.4570   95.9010   40.6570 C.3   274  TYR274      0.0548
     14  CG        -2.3410   94.5120   40.0700 C.ar  274  TYR274     -0.0200
     15  CD1       -2.4580   94.3030   38.7010 C.ar  274  TYR274     -0.0009
     16  CD2       -2.1010   93.4120   40.8810 C.ar  274  TYR274     -0.0009
     17  CE1       -2.3490   93.0360   38.1580 C.ar  274  TYR274      0.0417
     18  CE2       -1.9920   92.1420   40.3470 C.ar  274  TYR274      0.0417
     19  CZ        -2.1150   91.9600   38.9860 C.ar  274  TYR274      0.1957
     20  OH        -2.0040   90.6960   38.4530 O.3   274  TYR274     -0.2866
     21  N         -2.4020   98.8590   40.1990 N.am  275  GLN275     -0.1979
     22  CA        -2.6100  100.2890   40.3870 C.3   275  GLN275      0.1601
     23  C         -2.9850  100.6080   41.8290 C.2   275  GLN275      0.2287
     24  O         -3.9080  100.0120   42.3930 O.2   275  GLN275     -0.2864
     25  CB        -3.7010  100.7890   39.4400 C.3   275  GLN275      0.0394
     26  CG        -3.1830  101.3390   38.1200 C.3   275  GLN275      0.0908
     27  CD        -4.2640  102.0350   37.3160 C.2   275  GLN275      0.2608
     28  OE1       -5.3820  102.2280   37.7960 O.2   275  GLN275     -0.2717
     29  NE2       -3.9370  102.4160   36.0870 N.am  275  GLN275     -0.0878
     30  N         -1.7050   99.9380   44.6280 N.3   277  GLN277     -0.1245
     31  CA        -1.5340   98.8860   45.6150 C.3   277  GLN277      0.1566
     32  C         -0.0530   98.6560   45.8860 C.2   277  GLN277      0.2260
     33  O          0.8160   99.0540   45.1040 O.2   277  GLN277     -0.2867
     34  CB        -2.1920   97.5790   45.1510 C.3   277  GLN277      0.0367
     35  CG        -3.7060   97.6570   45.0290 C.3   277  GLN277      0.0905
     36  CD        -4.3350   96.3190   44.6850 C.2   277  GLN277      0.2608
     37  OE1       -3.6580   95.4030   44.2140 O.2   277  GLN277     -0.2717
     38  NE2       -5.6370   96.1990   44.9200 N.am  277  GLN277     -0.0878
     39  N          3.4980   93.5440   44.6690 N.3   280  LEU280     -0.1245
     40  CA         3.5000   92.1380   45.0550 C.3   280  LEU280      0.1561
     41  C          4.9020   91.5480   45.0010 C.2   280  LEU280      0.2260
     42  O          5.1970   90.5910   45.7260 O.2   280  LEU280     -0.2867
     43  CB         2.5540   91.3420   44.1570 C.3   280  LEU280      0.0270
     44  CG         1.1410   91.9000   43.9820 C.3   280  LEU280      0.0019
     45  CD1        0.4650   91.2660   42.7790 C.3   280  LEU280      0.0001
     46  CD2        0.3160   91.6830   45.2430 C.3   280  LEU280      0.0001
     47  N         -3.6040   82.2580   49.3420 N.3   299  ASN299     -0.1225
     48  CA        -4.4060   82.8310   48.2700 C.3   299  ASN299      0.1785
     49  C         -4.2770   84.3490   48.2540 C.2   299  ASN299      0.2598
     50  O         -4.2260   84.9990   49.3010 O.2   299  ASN299     -0.2718
     51  CB        -5.8720   82.4300   48.4240 C.3   299  ASN299      0.1169
     52  CG        -6.6270   82.4780   47.1110 C.2   299  ASN299      0.2627
     53  OD1       -6.6320   81.5110   46.3480 O.2   299  ASN299     -0.2716
     54  ND2       -7.2680   83.6090   46.8370 N.am  299  ASN299     -0.0877
     55  N         -4.2230   84.9120   47.0490 N.am  300  GLY300     -0.1942
     56  CA        -4.0560   86.3390   46.8820 C.3   300  GLY300      0.2014
     57  C         -2.6440   86.8440   47.0640 C.2   300  GLY300      0.2639
     58  O         -2.4410   88.0620   47.1130 O.2   300  GLY300     -0.2714
     59  N         -1.6580   85.9490   47.1640 N.am  301  VAL301     -0.1963
     60  CA        -0.2800   86.3760   47.3790 C.3   301  VAL301      0.1727
     61  C          0.4040   86.7990   46.0840 C.2   301  VAL301      0.2617
     62  O          1.3700   87.5720   46.1300 O.2   301  VAL301     -0.2715
     63  CB         0.5180   85.2610   48.0800 C.3   301  VAL301      0.0290
     64  CG1        1.0370   84.2430   47.0730 C.3   301  VAL301      0.0023
     65  CG2        1.6590   85.8490   48.9010 C.3   301  VAL301      0.0023
     66  N         -0.0650   86.3210   44.9320 N.am  302  GLY302     -0.1940
     67  CA         0.4980   86.7320   43.6600 C.3   302  GLY302      0.2014
     68  C          1.0630   85.6070   42.8150 C.2   302  GLY302      0.2639
     69  O          1.9550   85.8340   41.9920 O.2   302  GLY302     -0.2714
     70  N          0.5500   84.3890   43.0020 N.am  303  LYS303     -0.1963
     71  CA         1.0300   83.2510   42.2220 C.3   303  LYS303      0.1728
     72  C          0.6880   83.4190   40.7420 C.2   303  LYS303      0.2617
     73  O          1.5660   83.3330   39.8660 O.2   303  LYS303     -0.2715
     74  CB         0.4340   81.9570   42.7860 C.3   303  LYS303      0.0311
     75  CG         0.7720   81.7070   44.2610 C.3   303  LYS303      0.0038
     76  CD         0.2600   80.3550   44.7590 C.3   303  LYS303      0.0206
     77  CE        -1.2620   80.2870   44.7610 C.3   303  LYS303      0.1093
     78  NZ        -1.8620   81.2320   45.7470 N.3   303  LYS303     -0.1314
     79  N         -0.5920   83.6710   40.4470 N.am  304  SER304     -0.1936
     80  CA        -1.0130   83.9110   39.0690 C.3   304  SER304      0.2055
     81  C         -0.3030   85.1210   38.4770 C.2   304  SER304      0.2643
     82  O          0.0680   85.1160   37.2960 O.2   304  SER304     -0.2714
     83  CB        -2.5290   84.1040   39.0090 C.3   304  SER304      0.2130
     84  OG        -3.1960   82.8620   38.8790 O.3   304  SER304     -0.2179
     85  N         -0.1150   86.1710   39.2810 N.am  305  THR305     -0.1950
     86  CA         0.6090   87.3500   38.8140 C.3   305  THR305      0.1897
     87  C          2.0340   86.9930   38.4090 C.2   305  THR305      0.2313
     88  O          2.5490   87.4970   37.4040 O.2   305  THR305     -0.2863
     89  CB         0.6110   88.4240   39.9040 C.3   305  THR305      0.1794
     90  OG1       -0.7230   88.9060   40.1080 O.3   305  THR305     -0.2208
     91  CG2        1.5090   89.5860   39.5100 C.3   305  THR305      0.0378
     92  N         -1.6070   77.1470   35.3370 N.3   404  ASP404     -0.1225
     93  CA        -2.2510   77.6830   36.5300 C.3   404  ASP404      0.1805
     94  C         -3.4820   76.8350   36.8340 C.2   404  ASP404      0.2597
     95  O         -4.4760   76.8920   36.1020 O.2   404  ASP404     -0.2718
     96  CB        -2.6300   79.1480   36.3210 C.3   404  ASP404      0.1424
     97  CG        -2.7620   79.9110   37.6230 C.2   404  ASP404      0.3668
     98  OD1       -2.9500   79.2730   38.6810 O.co2 404  ASP404     -0.2456
     99  OD2       -2.6760   81.1550   37.5870 O.co2 404  ASP404     -0.2456
    100  N         -3.4090   76.0540   37.9090 N.am  405  GLU405     -0.1979
    101  CA        -4.4930   75.1760   38.3380 C.3   405  GLU405      0.1602
    102  C         -4.9700   74.2480   37.2160 C.2   405  GLU405      0.2287
    103  O         -6.1400   74.2940   36.8220 O.2   405  GLU405     -0.2864
    104  CB        -5.6540   75.9900   38.8920 C.3   405  GLU405      0.0415
    105  CG        -5.2470   77.0200   39.9340 C.3   405  GLU405      0.1163
    106  CD        -6.4330   77.7770   40.4980 C.2   405  GLU405      0.3649
    107  OE1       -7.5560   77.2310   40.4670 O.co2 405  GLU405     -0.2457
    108  OE2       -6.2440   78.9160   40.9740 O.co2 405  GLU405     -0.2457
    109  N          1.1620   76.1240   39.0960 N.3   432  VAL432     -0.1245
    110  CA         0.5020   76.4670   40.3500 C.3   432  VAL432      0.1561
    111  C         -0.6070   75.4430   40.5370 C.2   432  VAL432      0.2260
    112  O         -1.6350   75.4970   39.8510 O.2   432  VAL432     -0.2867
    113  CB        -0.0570   77.8960   40.3450 C.3   432  VAL432      0.0252
    114  CG1       -0.8580   78.1500   41.6160 C.3   432  VAL432      0.0019
    115  CG2        1.0670   78.9070   40.2100 C.3   432  VAL432      0.0019
@<TRIPOS>BOND
     1    92    93    1
     2    29    27   am
     3    95    94    2
     4    96    93    1
     5    96    97    1
     6    93    94    1
     7   103   102    2
     8    94   100   am
     9   102   101    1
    10    82    81    2
    11    27    28    2
    12    27    26    1
    13    88    87    2
    14    99    97   ar
    15    97    98   ar
    16   100   101    1
    17    26    25    1
    18    17    15   ar
    19    17    19   ar
    20   101   104    1
    21    87    86    1
    22    20    19    1
    23    81    80    1
    24    81    85   am
    25    15    14   ar
    26    86    85    1
    27    86    89    1
    28    84    83    1
    29   104   105    1
    30    19    18   ar
    31    83    80    1
    32    80    79    1
    33   109   110    1
    34    25    22    1
    35    91    89    1
    36   112   111    2
    37    73    72    2
    38    89    90    1
    39   105   106    1
    40    14    13    1
    41    14    16   ar
    42    21    22    1
    43    21    11   am
    44   115   113    1
    45   113   110    1
    46   113   114    1
    47    18    16   ar
    48   110   111    1
    49    22    23    1
    50    10    13    1
    51    10    11    1
    52    10     9    1
    53    79    72   am
    54   107   106   ar
    55   106   108   ar
    56    72    71    1
    57    11    12    2
    58    23    24    2
    59    69    68    2
    60    71    74    1
    61    71    70    1
    62    45    44    1
    63    74    75    1
    64    68    70   am
    65    68    67    1
    66    67    66    1
    67    44    43    1
    68    44    46    1
    69    43    40    1
    70    37    36    2
    71    75    76    1
    72    30    31    1
    73    39    40    1
    74    36    38   am
    75    36    35    1
    76    76    77    1
    77    77    78    1
    78    66    61   am
    79    41    40    1
    80    41    42    2
    81    35    34    1
    82    33    32    2
    83    34    31    1
    84    31    32    1
    85    61    62    2
    86    61    60    1
    87    53    52    2
    88    54    52   am
    89     2     1    1
    90     2     5    1
    91     2     3    1
    92    56    55    1
    93    56    57    1
    94    55    49   am
    95    57    58    2
    96    57    59   am
    97    64    63    1
    98    52    51    1
    99    59    60    1
   100     5     6    1
   101    60    63    1
   102     3     4    2
   103    63    65    1
   104    49    48    1
   105    49    50    2
   106    48    51    1
   107    48    47    1
   108     6     7   ar
   109     6     8   ar
