@<TRIPOS>MOLECULE
tmp/5zxdA00.pdb
 104 99 0 0 0
SMALL
GASTEIGER

@<TRIPOS>ATOM
      1  N        -39.2040   94.0190   25.2840 N.3    14  ALA14      -0.1231
      2  CA       -39.4150   95.4290   25.5730 C.3    14  ALA14       0.1694
      3  C        -40.0520   96.0990   24.3670 C.2    14  ALA14       0.2592
      4  O        -39.6980   95.7960   23.2230 O.2    14  ALA14      -0.2718
      5  CB       -38.1020   96.1310   25.9370 C.3    14  ALA14       0.0304
      6  N        -40.9910   97.0080   24.6360 N.am   15  HIS15      -0.1976
      7  CA       -41.6910   97.7620   23.5950 C.3    15  HIS15       0.1656
      8  C        -42.3640   96.8270   22.5920 C.2    15  HIS15       0.2291
      9  O        -42.3890   97.0910   21.3880 O.2    15  HIS15      -0.2864
     10  CB       -40.7460   98.7370   22.8890 C.3    15  HIS15       0.0771
     11  CG       -39.8370   99.4770   23.8210 C.ar   15  HIS15       0.0820
     12  ND1      -40.2680  100.5250   24.6060 N.ar   15  HIS15      -0.2267
     13  CD2      -38.5200   99.3210   24.0930 C.ar   15  HIS15       0.1154
     14  CE1      -39.2560  100.9820   25.3210 C.ar   15  HIS15       0.1986
     15  NE2      -38.1840  100.2690   25.0290 N.ar   15  HIS15      -0.2212
     16  N        -41.4140   93.8650   21.6320 N.3    17  LYS17      -0.1245
     17  CA       -40.4620   93.1450   20.7990 C.3    17  LYS17       0.1561
     18  C        -39.7240   92.1080   21.6300 C.2    17  LYS17       0.2260
     19  O        -39.3530   92.3690   22.7780 O.2    17  LYS17      -0.2867
     20  CB       -39.4490   94.1000   20.1520 C.3    17  LYS17       0.0271
     21  CG       -40.0010   94.9090   18.9910 C.3    17  LYS17       0.0035
     22  CD       -39.2610   94.5930   17.6990 C.3    17  LYS17       0.0206
     23  CE       -39.3840   93.1210   17.3340 C.3    17  LYS17       0.1093
     24  NZ       -38.6600   92.7940   16.0740 N.3    17  LYS17      -0.1314
     25  N        -36.5840   90.9540   22.1740 N.3    19  LEU19      -0.1245
     26  CA       -35.2200   91.3780   21.8830 C.3    19  LEU19       0.1561
     27  C        -34.2070   90.2810   22.1900 C.2    19  LEU19       0.2260
     28  O        -33.2800   90.0560   21.4030 O.2    19  LEU19      -0.2867
     29  CB       -34.8880   92.6510   22.6610 C.3    19  LEU19       0.0270
     30  CG       -35.7650   93.8650   22.3410 C.3    19  LEU19       0.0019
     31  CD1      -35.3480   95.0680   23.1720 C.3    19  LEU19       0.0001
     32  CD2      -35.7080   94.1910   20.8570 C.3    19  LEU19       0.0001
     33  N        -28.9950   98.1980   14.0590 N.3    39  ASN39      -0.1225
     34  CA       -29.7680   99.2210   14.7480 C.3    39  ASN39       0.1785
     35  C        -31.1390   98.6840   15.1400 C.2    39  ASN39       0.2598
     36  O        -31.7890   97.9690   14.3710 O.2    39  ASN39      -0.2718
     37  CB       -29.9160  100.4540   13.8560 C.3    39  ASN39       0.1169
     38  CG       -30.5300  101.6340   14.5850 C.2    39  ASN39       0.2627
     39  OD1      -29.8750  102.2830   15.4020 O.2    39  ASN39      -0.2716
     40  ND2      -31.7920  101.9240   14.2860 N.am   39  ASN39      -0.0877
     41  N        -31.5730   99.0270   16.3510 N.am   40  GLY40      -0.1942
     42  CA       -32.8840   98.6470   16.8340 C.3    40  GLY40       0.2014
     43  C        -33.0150   97.2260   17.3280 C.2    40  GLY40       0.2639
     44  O        -34.1430   96.7440   17.4770 O.2    40  GLY40      -0.2714
     45  N        -31.9080   96.5350   17.5920 N.am   41  LYS41      -0.1963
     46  CA       -31.9630   95.1380   17.9970 C.3    41  LYS41       0.1728
     47  C        -31.9110   94.9380   19.5070 C.2    41  LYS41       0.2617
     48  O        -32.1510   93.8190   19.9720 O.2    41  LYS41      -0.2715
     49  CB       -30.8290   94.3490   17.3300 C.3    41  LYS41       0.0311
     50  CG       -31.0260   94.1350   15.8340 C.3    41  LYS41       0.0038
     51  CD       -32.3200   93.3890   15.5410 C.3    41  LYS41       0.0206
     52  CE       -32.4490   93.0670   14.0600 C.3    41  LYS41       0.1093
     53  NZ       -33.6540   92.2430   13.7740 N.3    41  LYS41      -0.1314
     54  N        -31.6020   95.9780   20.2810 N.am   42  GLY42      -0.1940
     55  CA       -31.7030   95.8820   21.7260 C.3    42  GLY42       0.2014
     56  C        -30.4270   96.1260   22.5080 C.2    42  GLY42       0.2639
     57  O        -30.3040   95.6700   23.6490 O.2    42  GLY42      -0.2714
     58  N        -29.4750   96.8530   21.9210 N.am   43  LYS43      -0.1963
     59  CA       -28.2180   97.1260   22.6150 C.3    43  LYS43       0.1728
     60  C        -28.4380   98.0640   23.8000 C.2    43  LYS43       0.2617
     61  O        -28.0630   97.7480   24.9410 O.2    43  LYS43      -0.2715
     62  CB       -27.2020   97.7080   21.6290 C.3    43  LYS43       0.0311
     63  CG       -26.8990   96.7910   20.4440 C.3    43  LYS43       0.0038
     64  CD       -25.8150   97.3610   19.5320 C.3    43  LYS43       0.0206
     65  CE       -26.2650   98.6410   18.8360 C.3    43  LYS43       0.1093
     66  NZ       -27.4430   98.4240   17.9530 N.3    43  LYS43      -0.1314
     67  N        -29.0550   99.2230   23.5470 N.am   44  THR44      -0.1937
     68  CA       -29.3400  100.1690   24.6220 C.3    44  THR44       0.2028
     69  C        -30.2760   99.5610   25.6590 C.2    44  THR44       0.2642
     70  O        -30.1130   99.7900   26.8630 O.2    44  THR44      -0.2714
     71  CB       -29.9350  101.4550   24.0440 C.3    44  THR44       0.1808
     72  OG1      -28.8920  102.2380   23.4540 O.3    44  THR44      -0.2208
     73  CG2      -30.6160  102.2830   25.1250 C.3    44  THR44       0.0379
     74  N        -31.2640   98.7810   25.2100 N.am   45  THR45      -0.1950
     75  CA       -32.1670   98.1220   26.1480 C.3    45  THR45       0.1897
     76  C        -31.4100   97.1570   27.0520 C.2    45  THR45       0.2313
     77  O        -31.6670   97.0940   28.2610 O.2    45  THR45      -0.2863
     78  CB       -33.2740   97.3880   25.3880 C.3    45  THR45       0.1794
     79  OG1      -34.0280   98.3270   24.6130 O.3    45  THR45      -0.2208
     80  CG2      -34.2090   96.6800   26.3590 C.3    45  THR45       0.0378
     81  N        -22.6460  103.9210   25.8010 N.3   131  ASP131     -0.1225
     82  CA       -23.5580  103.6960   24.6810 C.3   131  ASP131      0.1805
     83  C        -23.1770  104.6510   23.5550 C.2   131  ASP131      0.2597
     84  O        -23.5410  105.8300   23.5750 O.2   131  ASP131     -0.2718
     85  CB       -25.0060  103.8920   25.1200 C.3   131  ASP131      0.1424
     86  CG       -25.9950  103.2390   24.1760 C.2   131  ASP131      0.3668
     87  OD1      -25.5660  102.6990   23.1340 O.co2 131  ASP131     -0.2456
     88  OD2      -27.2060  103.2630   24.4800 O.co2 131  ASP131     -0.2456
     89  N        -22.4450  104.1320   22.5730 N.am  132  GLU132     -0.1979
     90  CA       -21.9900  104.8980   21.4170 C.3   132  GLU132      0.1602
     91  C        -21.2790  106.1920   21.8260 C.2   132  GLU132      0.2287
     92  O        -21.6970  107.2860   21.4330 O.2   132  GLU132     -0.2864
     93  CB       -23.1560  105.1890   20.4820 C.3   132  GLU132      0.0415
     94  CG       -23.8810  103.9270   20.0280 C.3   132  GLU132      0.1163
     95  CD       -24.9460  104.1950   18.9820 C.2   132  GLU132      0.3649
     96  OE1      -25.0990  105.3640   18.5730 O.co2 132  GLU132     -0.2457
     97  OE2      -25.6290  103.2330   18.5690 O.co2 132  GLU132     -0.2457
     98  N        -21.0300   99.9320   23.5390 N.3   159  VAL159     -0.1245
     99  CA       -21.7490   99.8140   22.2770 C.3   159  VAL159      0.1561
    100  C        -21.1680  100.8320   21.3060 C.2   159  VAL159      0.2260
    101  O        -20.9780  102.0010   21.6620 O.2   159  VAL159     -0.2867
    102  CB       -23.2550  100.0360   22.4830 C.3   159  VAL159      0.0252
    103  CG1      -23.9650  100.1390   21.1450 C.3   159  VAL159      0.0019
    104  CG2      -23.8470   98.9150   23.3180 C.3   159  VAL159      0.0019
@<TRIPOS>BOND
     1    53    52    1
     2    37    38    1
     3    37    34    1
     4    33    34    1
     5    52    51    1
     6    40    38   am
     7    36    35    2
     8    38    39    2
     9    34    35    1
    10    35    41   am
    11    51    50    1
    12    50    49    1
    13    24    23    1
    14    41    42    1
    15    42    43    1
    16    43    44    2
    17    43    45   am
    18    49    46    1
    19    23    22    1
    20    45    46    1
    21    22    21    1
    22    66    65    1
    23    46    47    1
    24    97    95   ar
    25    96    95   ar
    26    65    64    1
    27    95    94    1
    28    21    20    1
    29    47    48    2
    30    47    54   am
    31    64    63    1
    32    94    93    1
    33    20    17    1
    34    54    55    1
    35    63    62    1
    36    93    90    1
    37    17    18    1
    38    17    16    1
    39    32    30    1
    40   103   102    1
    41   100   101    2
    42   100    99    1
    43     9     8    2
    44    28    27    2
    45    90    91    1
    46    90    89    1
    47    92    91    2
    48    62    59    1
    49    18    19    2
    50    55    56    1
    51    26    25    1
    52    26    27    1
    53    26    29    1
    54    58    56   am
    55    58    59    1
    56    99   102    1
    57    99    98    1
    58    30    29    1
    59    30    31    1
    60   102   104    1
    61    56    57    2
    62    89    83   am
    63     8     7    1
    64    59    60    1
    65    10     7    1
    66    10    11    1
    67    87    86   ar
    68     4     3    2
    69    72    71    1
    70    67    60   am
    71    67    68    1
    72    83    84    2
    73    83    82    1
    74     7     6    1
    75    60    61    2
    76    11    13   ar
    77    11    12   ar
    78    71    68    1
    79    71    73    1
    80    13    15   ar
    81    86    88   ar
    82    86    85    1
    83     3     6   am
    84     3     2    1
    85    12    14   ar
    86    79    78    1
    87    68    69    1
    88    82    85    1
    89    82    81    1
    90    15    14   ar
    91    74    69   am
    92    74    75    1
    93     1     2    1
    94    78    75    1
    95    78    80    1
    96     2     5    1
    97    69    70    2
    98    75    76    1
    99    76    77    2
