@<TRIPOS>MOLECULE
tmp/5zxdA01.pdb
 107 102 0 0 0
SMALL
GASTEIGER

@<TRIPOS>ATOM
      1  N        -22.3590  134.6960   11.4830 N.3   252  TYR252     -0.1227
      2  CA       -23.7990  134.7970   11.6500 C.3   252  TYR252      0.1736
      3  C        -24.1530  136.1270   12.3010 C.2   252  TYR252      0.2595
      4  O        -23.3470  136.7170   13.0250 O.2   252  TYR252     -0.2718
      5  CB       -24.3320  133.6300   12.4800 C.3   252  TYR252      0.0548
      6  CG       -24.2040  132.2970   11.7810 C.ar  252  TYR252     -0.0200
      7  CD1      -25.0710  131.9450   10.7540 C.ar  252  TYR252     -0.0009
      8  CD2      -23.2120  131.3940   12.1400 C.ar  252  TYR252     -0.0009
      9  CE1      -24.9600  130.7300   10.1080 C.ar  252  TYR252      0.0417
     10  CE2      -23.0930  130.1760   11.5010 C.ar  252  TYR252      0.0417
     11  CZ       -23.9690  129.8490   10.4860 C.ar  252  TYR252      0.1957
     12  OH       -23.8520  128.6360    9.8460 O.3   252  TYR252     -0.2866
     13  N        -25.3670  136.5980   12.0170 N.am  253  GLN253     -0.1979
     14  CA       -25.8190  137.9090   12.4700 C.3   253  GLN253      0.1601
     15  C        -25.5780  138.0930   13.9620 C.2   253  GLN253      0.2287
     16  O        -25.9360  137.2370   14.7730 O.2   253  GLN253     -0.2864
     17  CB       -27.3050  138.0800   12.1520 C.3   253  GLN253      0.0394
     18  CG       -27.7260  139.5090   11.8590 C.3   253  GLN253      0.0908
     19  CD       -27.5080  139.8960   10.4100 C.2   253  GLN253      0.2608
     20  OE1      -28.1020  139.3110    9.5040 O.2   253  GLN253     -0.2717
     21  NE2      -26.6580  140.8920   10.1840 N.am  253  GLN253     -0.0878
     22  N        -22.7950  138.0200   15.6440 N.3   255  GLN255     -0.1245
     23  CA       -21.7500  137.1890   16.2230 C.3   255  GLN255      0.1566
     24  C        -20.4230  137.4530   15.5260 C.2   255  GLN255      0.2260
     25  O        -20.3800  137.8430   14.3560 O.2   255  GLN255     -0.2867
     26  CB       -22.0980  135.6950   16.1370 C.3   255  GLN255      0.0367
     27  CG       -22.9670  135.1990   17.2820 C.3   255  GLN255      0.0905
     28  CD       -22.9950  133.6860   17.3850 C.2   255  GLN255      0.2608
     29  OE1      -23.1380  132.9850   16.3830 O.2   255  GLN255     -0.2717
     30  NE2      -22.8570  133.1740   18.6040 N.am  255  GLN255     -0.0878
     31  N        -16.8250  133.6610   11.9030 N.3   258  LEU258     -0.1245
     32  CA       -16.1840  132.3580   12.0320 C.3   258  LEU258      0.1561
     33  C        -14.9790  132.2210   11.1130 C.2   258  LEU258      0.2260
     34  O        -14.0550  131.4600   11.4180 O.2   258  LEU258     -0.2867
     35  CB       -17.1910  131.2460   11.7370 C.3   258  LEU258      0.0270
     36  CG       -18.3180  131.0630   12.7540 C.3   258  LEU258      0.0019
     37  CD1      -19.4370  130.2150   12.1690 C.3   258  LEU258      0.0001
     38  CD2      -17.7810  130.4410   14.0310 C.3   258  LEU258      0.0001
     39  N        -16.0820  120.7090   17.9500 N.3   277  ASN277     -0.1225
     40  CA       -17.4390  121.0750   17.5680 C.3   277  ASN277      0.1785
     41  C        -17.7550  122.4940   18.0230 C.2   277  ASN277      0.2598
     42  O        -17.3480  122.9240   19.1050 O.2   277  ASN277     -0.2718
     43  CB       -18.4440  120.0870   18.1610 C.3   277  ASN277      0.1169
     44  CG       -18.6040  118.8400   17.3120 C.2   277  ASN277      0.2627
     45  OD1      -17.9840  118.7090   16.2560 O.2   277  ASN277     -0.2716
     46  ND2      -19.4430  117.9180   17.7690 N.am  277  ASN277     -0.0877
     47  N        -18.4730  123.2270   17.1770 N.am  278  GLY278     -0.1942
     48  CA       -18.7390  124.6270   17.4180 C.3   278  GLY278      0.2014
     49  C        -17.7320  125.5830   16.8150 C.2   278  GLY278      0.2639
     50  O        -17.9180  126.8010   16.9280 O.2   278  GLY278     -0.2714
     51  N        -16.6730  125.0750   16.1780 N.am  279  VAL279     -0.1963
     52  CA       -15.6690  125.9420   15.5670 C.3   279  VAL279      0.1727
     53  C        -16.0540  126.3880   14.1580 C.2   279  VAL279      0.2617
     54  O        -15.5330  127.4060   13.6790 O.2   279  VAL279     -0.2715
     55  CB       -14.2910  125.2510   15.5460 C.3   279  VAL279      0.0290
     56  CG1      -14.1780  124.2830   14.3700 C.3   279  VAL279      0.0023
     57  CG2      -13.1650  126.2800   15.5200 C.3   279  VAL279      0.0023
     58  N        -16.9450  125.6630   13.4820 N.am  280  GLY280     -0.1940
     59  CA       -17.4310  126.0910   12.1830 C.3   280  GLY280      0.2014
     60  C        -17.1390  125.1500   11.0300 C.2   280  GLY280      0.2639
     61  O        -17.0410  125.5890    9.8800 O.2   280  GLY280     -0.2714
     62  N        -17.0040  123.8540   11.3170 N.am  281  LYS281     -0.1963
     63  CA       -16.7190  122.8890   10.2580 C.3   281  LYS281      0.1728
     64  C        -17.8990  122.7670    9.2950 C.2   281  LYS281      0.2617
     65  O        -17.7290  122.8320    8.0660 O.2   281  LYS281     -0.2715
     66  CB       -16.3710  121.5320   10.8770 C.3   281  LYS281      0.0311
     67  CG       -15.1940  121.5710   11.8570 C.3   281  LYS281      0.0038
     68  CD       -14.8600  120.1840   12.4010 C.3   281  LYS281      0.0206
     69  CE       -16.0250  119.5820   13.1740 C.3   281  LYS281      0.1093
     70  NZ       -16.3520  120.3650   14.3950 N.3   281  LYS281     -0.1314
     71  N        -19.1070  122.6030    9.8410 N.am  282  SER282     -0.1936
     72  CA       -20.3040  122.5270    9.0080 C.3   282  SER282      0.2055
     73  C        -20.5250  123.8230    8.2390 C.2   282  SER282      0.2643
     74  O        -20.9350  123.7980    7.0730 O.2   282  SER282     -0.2714
     75  CB       -21.5240  122.2070    9.8710 C.3   282  SER282      0.2130
     76  OG       -21.6620  120.8120   10.0660 O.3   282  SER282     -0.2179
     77  N        -20.2780  124.9660    8.8860 N.am  283  THR283     -0.1950
     78  CA       -20.3670  126.2480    8.1940 C.3   283  THR283      0.1897
     79  C        -19.4150  126.2960    7.0060 C.2   283  THR283      0.2313
     80  O        -19.7750  126.7890    5.9300 O.2   283  THR283     -0.2863
     81  CB       -20.0610  127.3880    9.1660 C.3   283  THR283      0.1794
     82  OG1      -20.9800  127.3470   10.2630 O.3   283  THR283     -0.2208
     83  CG2      -20.1730  128.7310    8.4670 C.3   283  THR283      0.0378
     84  N        -20.6690  115.6550    5.6580 N.3   382  ASP382     -0.1225
     85  CA       -20.6280  116.1140    7.0410 C.3   382  ASP382      0.1805
     86  C        -21.1170  114.9830    7.9400 C.2   382  ASP382      0.2597
     87  O        -22.3130  114.6750    7.9600 O.2   382  ASP382     -0.2718
     88  CB       -21.4880  117.3630    7.2140 C.3   382  ASP382      0.1424
     89  CG       -21.1130  118.1670    8.4390 C.2   382  ASP382      0.3668
     90  OD1      -20.2660  117.7030    9.2310 O.co2 382  ASP382     -0.2456
     91  OD2      -21.6670  119.2710    8.6070 O.co2 382  ASP382     -0.2456
     92  N        -20.1930  114.3730    8.6770 N.am  383  GLU383     -0.1979
     93  CA       -20.4880  113.2670    9.5810 C.3   383  GLU383      0.1602
     94  C        -21.2440  112.1310    8.8830 C.2   383  GLU383      0.2287
     95  O        -22.3670  111.7970    9.2700 O.2   383  GLU383     -0.2864
     96  CB       -21.2640  113.7590   10.7950 C.3   383  GLU383      0.0415
     97  CG       -20.6300  114.9470   11.4980 C.3   383  GLU383      0.1163
     98  CD       -21.2670  115.2310   12.8450 C.2   383  GLU383      0.3649
     99  OE1      -21.4290  114.2790   13.6390 O.co2 383  GLU383     -0.2457
    100  OE2      -21.6060  116.4040   13.1100 O.co2 383  GLU383     -0.2457
    101  N        -16.0810  115.7610    6.9970 N.3   410  VAL410     -0.1245
    102  CA       -15.9590  115.9780    8.4320 C.3   410  VAL410      0.1561
    103  C        -16.3740  114.6800    9.1060 C.2   410  VAL410      0.2260
    104  O        -17.5090  114.2220    8.9300 O.2   410  VAL410     -0.2867
    105  CB       -16.8260  117.1510    8.9140 C.3   410  VAL410      0.0252
    106  CG1      -16.8140  117.2180   10.4340 C.3   410  VAL410      0.0019
    107  CG2      -16.3440  118.4590    8.3100 C.3   410  VAL410      0.0019
@<TRIPOS>BOND
     1    84    85    1
     2    80    79    2
     3   101   102    1
     4    79    78    1
     5    85    88    1
     6    85    86    1
     7    74    73    2
     8    88    89    1
     9    86    87    2
    10    86    92   am
    11    65    64    2
    12    78    77    1
    13    78    81    1
    14    73    77   am
    15    73    72    1
    16   107   105    1
    17   102   105    1
    18   102   103    1
    19    89    91   ar
    20    89    90   ar
    21    83    81    1
    22    92    93    1
    23    94    95    2
    24    94    93    1
    25   105   106    1
    26   104   103    2
    27    72    71    1
    28    72    75    1
    29    81    82    1
    30    64    71   am
    31    64    63    1
    32    20    19    2
    33    93    96    1
    34    12    11    1
    35    75    76    1
    36    61    60    2
    37     9    11   ar
    38     9     7   ar
    39    21    19   am
    40    63    66    1
    41    63    62    1
    42    19    18    1
    43    11    10   ar
    44     7     6   ar
    45    96    97    1
    46    66    67    1
    47    60    62   am
    48    60    59    1
    49    33    34    2
    50    33    32    1
    51     1     2    1
    52    97    98    1
    53    10     8   ar
    54     2     3    1
    55     2     5    1
    56    35    32    1
    57    35    36    1
    58     6     8   ar
    59     6     5    1
    60    67    68    1
    61    18    17    1
    62    31    32    1
    63    13     3   am
    64    13    14    1
    65    17    14    1
    66    37    36    1
    67    59    58    1
    68     3     4    2
    69    68    69    1
    70    14    15    1
    71    36    38    1
    72    98   100   ar
    73    98    99   ar
    74    69    70    1
    75    58    53   am
    76    54    53    2
    77    15    16    2
    78    53    52    1
    79    25    24    2
    80    56    55    1
    81    57    55    1
    82    24    23    1
    83    55    52    1
    84    52    51    1
    85    22    23    1
    86    26    23    1
    87    26    27    1
    88    51    49   am
    89    45    44    2
    90    29    28    2
    91    49    50    2
    92    49    48    1
    93    47    48    1
    94    47    41   am
    95    27    28    1
    96    44    46   am
    97    44    43    1
    98    28    30   am
    99    40    39    1
   100    40    41    1
   101    40    43    1
   102    41    42    2
