@<TRIPOS>MOLECULE
tmp/5zxdB00.pdb
 119 112 0 0 0
SMALL
GASTEIGER

@<TRIPOS>ATOM
      1  N        -31.2710   63.3840   32.7570 N.3    13  ALA13      -0.1231
      2  CA       -31.2450   64.8380   32.7400 C.3    13  ALA13       0.1694
      3  C        -30.5610   65.3220   31.4720 C.2    13  ALA13       0.2592
      4  O        -29.5660   64.7380   31.0340 O.2    13  ALA13      -0.2718
      5  CB       -30.5250   65.4010   33.9720 C.3    13  ALA13       0.0304
      6  N        -31.1090   66.3910   30.8890 N.am   14  HIS14      -0.1976
      7  CA       -30.5340   67.0320   29.7040 C.3    14  HIS14       0.1656
      8  C        -30.3470   66.0330   28.5660 C.2    14  HIS14       0.2291
      9  O        -29.3400   66.0450   27.8540 O.2    14  HIS14      -0.2864
     10  CB       -29.2170   67.7270   30.0530 C.3    14  HIS14       0.0771
     11  CG       -29.3110   68.6230   31.2490 C.ar   14  HIS14       0.0820
     12  ND1      -28.2350   68.8870   32.0670 N.ar   14  HIS14      -0.2267
     13  CD2      -30.3490   69.3290   31.7560 C.ar   14  HIS14       0.1154
     14  CE1      -28.6050   69.7090   33.0320 C.ar   14  HIS14       0.1986
     15  NE2      -29.8850   69.9920   32.8670 N.ar   14  HIS14      -0.2212
     16  N        -29.8330   62.7760   28.6180 N.3    16  LYS16      -0.1245
     17  CA       -28.8550   61.7200   28.8190 C.3    16  LYS16       0.1561
     18  C        -29.3170   60.8330   29.9600 C.2    16  LYS16       0.2260
     19  O        -29.9250   61.3050   30.9260 O.2    16  LYS16      -0.2867
     20  CB       -27.4580   62.2800   29.1150 C.3    16  LYS16       0.0271
     21  CG       -26.5700   62.3950   27.8840 C.3    16  LYS16       0.0035
     22  CD       -25.2280   61.7100   28.0910 C.3    16  LYS16       0.0206
     23  CE       -24.4020   62.4600   29.1220 C.3    16  LYS16       0.1093
     24  NZ       -22.9630   62.0720   29.1370 N.3    16  LYS16      -0.1314
     25  N        -28.3900   59.1400   32.9590 N.3    18  LEU18      -0.1245
     26  CA       -27.2890   59.2390   33.9080 C.3    18  LEU18       0.1561
     27  C        -27.2500   58.0420   34.8490 C.2    18  LEU18       0.2260
     28  O        -26.1870   57.4540   35.0700 O.2    18  LEU18      -0.2867
     29  CB       -27.4010   60.5430   34.7020 C.3    18  LEU18       0.0270
     30  CG       -27.5250   61.7950   33.8320 C.3    18  LEU18       0.0019
     31  CD1      -27.7010   63.0410   34.6860 C.3    18  LEU18       0.0001
     32  CD2      -26.3190   61.9260   32.9130 C.3    18  LEU18       0.0001
     33  N        -16.0860   62.9490   34.0550 N.3    38  ASN38      -0.1225
     34  CA       -16.8680   64.1720   33.9690 C.3    38  ASN38       0.1785
     35  C        -18.1290   63.9500   33.1430 C.2    38  ASN38       0.2598
     36  O        -18.1530   63.1530   32.2010 O.2    38  ASN38      -0.2718
     37  CB       -16.0370   65.2990   33.3550 C.3    38  ASN38       0.1169
     38  CG       -14.8090   65.6320   34.1770 C.2    38  ASN38       0.2627
     39  OD1      -14.7980   65.4610   35.3950 O.2    38  ASN38      -0.2716
     40  ND2      -13.7660   66.1150   33.5110 N.am   38  ASN38      -0.0877
     41  N        -19.1880   64.6670   33.5100 N.am   39  GLY39      -0.1942
     42  CA       -20.4230   64.6000   32.7560 C.3    39  GLY39       0.2014
     43  C        -21.2140   63.3260   32.9280 C.2    39  GLY39       0.2639
     44  O        -22.0840   63.0340   32.1050 O.2    39  GLY39      -0.2714
     45  N        -20.9390   62.5520   33.9730 N.am   40  LYS40      -0.1963
     46  CA       -21.6540   61.3050   34.1980 C.3    40  LYS40       0.1728
     47  C        -22.8080   61.4460   35.1830 C.2    40  LYS40       0.2617
     48  O        -23.5610   60.4840   35.3690 O.2    40  LYS40      -0.2715
     49  CB       -20.6860   60.2210   34.6860 C.3    40  LYS40       0.0311
     50  CG       -19.6640   59.7980   33.6430 C.3    40  LYS40       0.0038
     51  CD       -20.3450   59.2740   32.3870 C.3    40  LYS40       0.0206
     52  CE       -19.3310   58.9250   31.3080 C.3    40  LYS40       0.1093
     53  NZ       -19.9920   58.3750   30.0900 N.3    40  LYS40      -0.1314
     54  N        -22.9650   62.6020   35.8100 N.am   41  GLY41      -0.1940
     55  CA       -24.0950   62.8750   36.6670 C.3    41  GLY41       0.2014
     56  C        -23.8240   62.9570   38.1640 C.2    41  GLY41       0.2639
     57  O        -24.7650   62.7840   38.9510 O.2    41  GLY41      -0.2714
     58  N        -22.5830   63.2180   38.5780 N.am   42  LYS42      -0.1963
     59  CA       -22.2750   63.3010   40.0030 C.3    42  LYS42       0.1728
     60  C        -22.9870   64.4890   40.6480 C.2    42  LYS42       0.2617
     61  O        -23.7000   64.3410   41.6550 O.2    42  LYS42      -0.2715
     62  CB       -20.7570   63.3950   40.1840 C.3    42  LYS42       0.0311
     63  CG       -19.9940   62.2310   39.5420 C.3    42  LYS42       0.0038
     64  CD       -18.4880   62.2930   39.8000 C.3    42  LYS42       0.0206
     65  CE       -17.8200   63.4380   39.0490 C.3    42  LYS42       0.1093
     66  NZ       -17.9210   63.2790   37.5720 N.3    42  LYS42      -0.1314
     67  N        -22.8090   65.6790   40.0660 N.am   43  THR43      -0.1937
     68  CA       -23.4970   66.8690   40.5560 C.3    43  THR43       0.2028
     69  C        -25.0090   66.6800   40.5340 C.2    43  THR43       0.2642
     70  O        -25.7070   67.0880   41.4710 O.2    43  THR43      -0.2714
     71  CB       -23.0960   68.0850   39.7170 C.3    43  THR43       0.1808
     72  OG1      -21.8350   68.5880   40.1740 O.3    43  THR43      -0.2208
     73  CG2      -24.1370   69.1920   39.8190 C.3    43  THR43       0.0379
     74  N        -25.5320   66.0610   39.4720 N.am   44  THR44      -0.1950
     75  CA       -26.9700   65.8300   39.3800 C.3    44  THR44       0.1897
     76  C        -27.4590   64.9360   40.5130 C.2    44  THR44       0.2313
     77  O        -28.5270   65.1780   41.0870 O.2    44  THR44      -0.2863
     78  CB       -27.3170   65.2130   38.0240 C.3    44  THR44       0.1794
     79  OG1      -26.8410   66.0640   36.9730 O.3    44  THR44      -0.2208
     80  CG2      -28.8230   65.0410   37.8860 C.3    44  THR44       0.0378
     81  N        -19.2170   68.9690   46.6590 N.3   172  ASP172     -0.1225
     82  CA       -19.0800   68.7010   45.2290 C.3   172  ASP172      0.1805
     83  C        -17.7990   69.3650   44.7320 C.2   172  ASP172      0.2597
     84  O        -17.7800   70.5690   44.4590 O.2   172  ASP172     -0.2718
     85  CB       -20.3020   69.2010   44.4630 C.3   172  ASP172      0.1424
     86  CG       -20.3510   68.6800   43.0360 C.2   172  ASP172      0.3668
     87  OD1      -19.4490   67.9090   42.6440 O.co2 172  ASP172     -0.2456
     88  OD2      -21.2970   69.0410   42.3050 O.co2 172  ASP172     -0.2456
     89  N        -16.7370   68.5640   44.5990 N.am  173  GLU173     -0.1979
     90  CA       -15.4130   69.0050   44.1700 C.3   173  GLU173      0.1602
     91  C        -14.9920   70.2630   44.9230 C.2   173  GLU173      0.2287
     92  O        -14.8510   71.3340   44.3170 O.2   173  GLU173     -0.2864
     93  CB       -15.3890   69.2320   42.6580 C.3   173  GLU173      0.0415
     94  CG       -15.3800   67.9350   41.8540 C.3   173  GLU173      0.1163
     95  CD       -15.6290   68.1510   40.3740 C.2   173  GLU173      0.3649
     96  OE1      -16.7960   68.3900   39.9960 O.co2 173  GLU173     -0.2457
     97  OE2      -14.6620   68.0750   39.5870 O.co2 173  GLU173     -0.2457
     98  N        -17.6830   64.4280   46.2340 N.3   200  VAL200     -0.1245
     99  CA       -17.2450   64.2250   44.8610 C.3   200  VAL200      0.1561
    100  C        -15.8920   64.9010   44.7040 C.2   200  VAL200      0.2260
    101  O        -15.7440   66.0850   45.0230 O.2   200  VAL200     -0.2867
    102  CB       -18.2670   64.7980   43.8650 C.3   200  VAL200      0.0252
    103  CG1      -17.7120   64.7560   42.4500 C.3   200  VAL200      0.0019
    104  CG2      -19.5810   64.0430   43.9550 C.3   200  VAL200      0.0019
    105  N        -21.0470   75.1150   23.3760 N.3   379  LYS379     -0.1245
    106  CA       -21.9350   74.1890   24.0670 C.3   379  LYS379      0.1561
    107  C        -21.1890   73.1660   24.9140 C.2   379  LYS379      0.2260
    108  O        -21.8330   72.3510   25.5830 O.2   379  LYS379     -0.2867
    109  CB       -22.8360   73.4630   23.0590 C.3   379  LYS379      0.0271
    110  CG       -23.9860   74.3110   22.5320 C.3   379  LYS379      0.0035
    111  CD       -24.7410   73.6000   21.4180 C.3   379  LYS379      0.0206
    112  CE       -26.0090   74.3540   21.0430 C.3   379  LYS379      0.1093
    113  NZ       -27.2390   73.5520   21.2990 N.3   379  LYS379     -0.1314
    114  N        -18.7600   71.6530   28.0070 N.3   381  SER381     -0.1217
    115  CA       -18.6230   71.8780   29.4370 C.3   381  SER381      0.1889
    116  C        -17.2360   72.4360   29.7500 C.2   381  SER381      0.2288
    117  O        -16.3860   72.5920   28.8700 O.2   381  SER381     -0.2866
    118  CB       -18.8800   70.5820   30.2050 C.3   381  SER381      0.2089
    119  OG       -17.8630   69.6280   29.9500 O.3   381  SER381     -0.2183
@<TRIPOS>BOND
     1   112   113    1
     2   112   111    1
     3   111   110    1
     4   110   109    1
     5   109   106    1
     6   105   106    1
     7   106   107    1
     8   107   108    2
     9     9     8    2
    10    21    22    1
    11    21    20    1
    12   114   115    1
    13    22    23    1
    14     8     7    1
    15    16    17    1
    16    17    20    1
    17    17    18    1
    18   117   116    2
    19    23    24    1
    20   115   116    1
    21   115   118    1
    22     7    10    1
    23     7     6    1
    24   119   118    1
    25    18    19    2
    26    10    11    1
    27    53    52    1
    28     6     3   am
    29     4     3    2
    30    11    13   ar
    31    11    12   ar
    32    52    51    1
    33     3     2    1
    34    13    15   ar
    35    12    14   ar
    36    44    43    2
    37    36    35    2
    38    51    50    1
    39     2     1    1
    40     2     5    1
    41    42    43    1
    42    42    41    1
    43    15    14   ar
    44    32    30    1
    45    43    45   am
    46    25    26    1
    47    35    41   am
    48    35    34    1
    49    37    34    1
    50    37    38    1
    51    40    38   am
    52    50    49    1
    53    30    31    1
    54    30    29    1
    55    26    29    1
    56    26    27    1
    57    34    33    1
    58    45    46    1
    59    38    39    2
    60    46    49    1
    61    46    47    1
    62    27    28    2
    63    47    48    2
    64    47    54   am
    65    54    55    1
    66    55    56    1
    67    79    78    1
    68    66    65    1
    69    80    78    1
    70    78    75    1
    71    56    58   am
    72    56    57    2
    73    58    59    1
    74    65    64    1
    75    75    74    1
    76    75    76    1
    77    74    69   am
    78    63    64    1
    79    63    62    1
    80    97    95   ar
    81    71    73    1
    82    71    72    1
    83    71    68    1
    84    96    95   ar
    85    59    62    1
    86    59    60    1
    87    67    68    1
    88    67    60   am
    89    95    94    1
    90    76    77    2
    91    69    68    1
    92    69    70    2
    93    60    61    2
    94    94    93    1
    95    88    86   ar
    96   103   102    1
    97    87    86   ar
    98    93    90    1
    99    86    85    1
   100   102   104    1
   101   102    99    1
   102    90    89    1
   103    90    91    1
   104    92    91    2
   105    84    83    2
   106    85    82    1
   107    89    83   am
   108   100    99    1
   109   100   101    2
   110    83    82    1
   111    99    98    1
   112    82    81    1
