@<TRIPOS>MOLECULE
tmp/5zygA00.pdb
 207 193 0 0 0
SMALL
GASTEIGER

@<TRIPOS>ATOM
      1  N        -16.9690    5.7920   -3.3570 N.3    71  PHE71      -0.1241
      2  CA       -18.3590    5.9740   -3.7490 C.3    71  PHE71       0.1605
      3  C        -18.4540    6.6710   -5.1040 C.2    71  PHE71       0.2264
      4  O        -19.3730    6.4020   -5.8790 O.2    71  PHE71      -0.2867
      5  CB       -19.1250    6.7780   -2.6940 C.3    71  PHE71       0.0534
      6  CG       -20.6240    6.8140   -2.9170 C.ar   71  PHE71      -0.0203
      7  CD1      -21.3960    5.6440   -2.8390 C.ar   71  PHE71      -0.0042
      8  CD2      -21.2750    8.0100   -3.0960 C.ar   71  PHE71      -0.0042
      9  CE1      -22.7790    5.6770   -3.0380 C.ar   71  PHE71      -0.0003
     10  CE2      -22.6570    8.0530   -3.2850 C.ar   71  PHE71      -0.0003
     11  CZ       -23.4150    6.9040   -3.2220 C.ar   71  PHE71      -0.0000
     12  N        -21.5260   -2.0850   -6.4230 N.3    81  GLU81      -0.1245
     13  CA       -22.8730   -1.6830   -6.7900 C.3    81  GLU81       0.1567
     14  C        -23.6240   -2.9440   -7.2270 C.2    81  GLU81       0.2260
     15  O        -23.0610   -3.7660   -7.9280 O.2    81  GLU81      -0.2867
     16  CB       -22.8140   -0.6130   -7.8900 C.3    81  GLU81       0.0388
     17  CG       -24.1310   -0.4080   -8.6060 C.3    81  GLU81       0.1160
     18  CD       -25.0730    0.4910   -7.8230 C.2    81  GLU81       0.3649
     19  OE1      -24.8550    1.7300   -7.8370 O.co2  81  GLU81      -0.2457
     20  OE2      -26.0280   -0.0510   -7.2190 O.co2  81  GLU81      -0.2457
     21  N        -27.2330   -2.6450   -7.9680 N.3    83  THR83      -0.1218
     22  CA       -28.5790   -2.3410   -8.4340 C.3    83  THR83       0.1862
     23  C        -28.5990   -1.9280   -9.9020 C.2    83  THR83       0.2287
     24  O        -29.6760   -1.7080  -10.4270 O.2    83  THR83      -0.2866
     25  CB       -29.2480   -1.1730   -7.6850 C.3    83  THR83       0.1770
     26  OG1      -28.6420    0.0970   -7.9630 O.3    83  THR83      -0.2211
     27  CG2      -29.3950   -1.4210   -6.1950 C.3    83  THR83       0.0375
     28  N        -27.4620    5.7550  -16.2490 N.3   102  GLN102     -0.1245
     29  CA       -27.4530    4.3640  -15.8130 C.3   102  GLN102      0.1566
     30  C        -28.8950    3.8280  -15.8510 C.2   102  GLN102      0.2260
     31  O        -29.8630    4.5860  -15.7690 O.2   102  GLN102     -0.2867
     32  CB       -26.7740    4.1830  -14.4450 C.3   102  GLN102      0.0367
     33  CG       -27.5350    4.8030  -13.2770 C.3   102  GLN102      0.0905
     34  CD       -26.7740    4.7930  -11.9640 C.2   102  GLN102      0.2608
     35  OE1      -25.5390    4.8760  -11.9450 O.2   102  GLN102     -0.2717
     36  NE2      -27.5090    4.7630  -10.8490 N.am  102  GLN102     -0.0878
     37  N        -31.2070    0.7010  -14.0530 N.3   104  HIS104     -0.1226
     38  CA       -31.3020   -0.1170  -12.8680 C.3   104  HIS104      0.1752
     39  C        -31.9920   -1.4360  -13.2120 C.2   104  HIS104      0.2595
     40  O        -32.8250   -1.5110  -14.1250 O.2   104  HIS104     -0.2718
     41  CB       -32.0810    0.6400  -11.7700 C.3   104  HIS104      0.0759
     42  CG       -31.2520    1.7270  -11.1570 C.ar  104  HIS104      0.0818
     43  ND1      -30.3080    1.4660  -10.1780 N.ar  104  HIS104     -0.2268
     44  CD2      -31.1650    3.0500  -11.4210 C.ar  104  HIS104      0.1154
     45  CE1      -29.6680    2.5790   -9.8750 C.ar  104  HIS104      0.1986
     46  NE2      -30.1770    3.5660  -10.6010 N.ar  104  HIS104     -0.2212
     47  N        -31.6800   -2.4350  -12.3970 N.am  105  LYS105     -0.1980
     48  CA       -32.4500   -3.6620  -12.3240 C.3   105  LYS105      0.1596
     49  C        -33.9180   -3.3450  -12.0490 C.2   105  LYS105      0.2287
     50  O        -34.2250   -2.4160  -11.3130 O.2   105  LYS105     -0.2864
     51  CB       -31.8350   -4.5870  -11.2860 C.3   105  LYS105      0.0298
     52  CG       -30.4740   -5.1190  -11.7390 C.3   105  LYS105      0.0038
     53  CD       -29.6990   -5.8320  -10.6880 C.3   105  LYS105      0.0206
     54  CE       -28.3070   -6.2190  -11.1490 C.3   105  LYS105      0.1093
     55  NZ       -27.6630   -7.0260  -10.0880 N.3   105  LYS105     -0.1314
     56  N        -37.6450   -3.3120  -10.6420 N.3   107  VAL107     -0.1245
     57  CA       -38.2810   -3.6530   -9.3610 C.3   107  VAL107      0.1561
     58  C        -39.7130   -4.0700   -9.7140 C.2   107  VAL107      0.2260
     59  O        -40.5460   -3.2040   -9.9320 O.2   107  VAL107     -0.2867
     60  CB       -38.2780   -2.4400   -8.4020 C.3   107  VAL107      0.0252
     61  CG1      -38.9950   -2.7490   -7.0750 C.3   107  VAL107      0.0019
     62  CG2      -36.8370   -1.9870   -8.1040 C.3   107  VAL107      0.0019
     63  N        -43.1170   -2.7850  -11.3940 N.3   110  ALA110     -0.1231
     64  CA       -42.9280   -1.4920  -12.0470 C.3   110  ALA110      0.1694
     65  C        -42.0000   -1.6260  -13.2620 C.2   110  ALA110      0.2592
     66  O        -41.1790   -2.5290  -13.3290 O.2   110  ALA110     -0.2718
     67  CB       -42.3440   -0.4880  -11.0850 C.3   110  ALA110      0.0304
     68  N        -42.1100   -0.6790  -14.2010 N.am  111  SER111     -0.1952
     69  CA       -41.1680   -0.6150  -15.3160 C.3   111  SER111      0.1924
     70  C        -39.7370   -0.4470  -14.8020 C.2   111  SER111      0.2314
     71  O        -39.4820    0.1230  -13.7380 O.2   111  SER111     -0.2863
     72  CB       -41.5390    0.5770  -16.1730 C.3   111  SER111      0.2116
     73  OG       -40.5500    0.8300  -17.1490 O.3   111  SER111     -0.2180
     74  N        -36.2560    1.4330  -14.5340 N.3   113  ARG113     -0.1245
     75  CA       -35.9660    2.8580  -14.5030 C.3   113  ARG113      0.1563
     76  C        -34.5400    3.1050  -15.0500 C.2   113  ARG113      0.2260
     77  O        -33.6110    2.2900  -14.8410 O.2   113  ARG113     -0.2867
     78  CB       -35.9850    3.3180  -13.0140 C.3   113  ARG113      0.0307
     79  CG       -37.2510    4.0770  -12.6410 C.3   113  ARG113      0.0489
     80  CD       -38.4970    3.2600  -12.8820 C.3   113  ARG113      0.2205
     81  NE       -39.6770    4.0210  -12.3970 N.pl3 113  ARG113     -0.0865
     82  CZ       -40.9390    3.6290  -12.5400 C.cat 113  ARG113      0.5346
     83  NH1      -41.2160    2.4160  -13.0060 N.pl3 113  ARG113      0.1354
     84  NH2      -41.9220    4.4540  -12.2040 N.pl3 113  ARG113      0.1354
     85  N        -27.5300   11.7980  -14.0710 N.3   117  TYR117     -0.1241
     86  CA       -27.2630   12.6420  -12.9350 C.3   117  TYR117      0.1605
     87  C        -25.8370   13.1730  -12.9970 C.2   117  TYR117      0.2264
     88  O        -24.9350   12.5370  -13.5260 O.2   117  TYR117     -0.2867
     89  CB       -27.4950   11.8680  -11.6190 C.3   117  TYR117      0.0534
     90  CG       -26.6760   10.6030  -11.4020 C.ar  117  TYR117     -0.0201
     91  CD1      -27.0510    9.3940  -11.9670 C.ar  117  TYR117     -0.0009
     92  CD2      -25.5110   10.6170  -10.6370 C.ar  117  TYR117     -0.0009
     93  CE1      -26.3350    8.2160  -11.7080 C.ar  117  TYR117      0.0417
     94  CE2      -24.7580    9.4690  -10.4080 C.ar  117  TYR117      0.0417
     95  CZ       -25.2000    8.2620  -10.9210 C.ar  117  TYR117      0.1957
     96  OH       -24.4830    7.1270  -10.7740 O.3   117  TYR117     -0.2866
     97  N        -24.9880   13.1060   -5.8450 N.3   139  ASN139     -0.1240
     98  CA       -25.4380   12.5860   -7.1220 C.3   139  ASN139      0.1653
     99  C        -26.8290   13.1980   -7.2960 C.2   139  ASN139      0.2266
    100  O        -27.7370   12.9170   -6.4870 O.2   139  ASN139     -0.2867
    101  CB       -25.6250   11.0640   -7.0380 C.3   139  ASN139      0.1155
    102  CG       -24.2670   10.3990   -6.9720 C.2   139  ASN139      0.2627
    103  OD1      -23.2730   10.9920   -7.3880 O.2   139  ASN139     -0.2716
    104  ND2      -24.1950    9.1760   -6.4940 N.am  139  ASN139     -0.0877
    105  N        -36.2270    8.0970  -13.7080 N.3   156  ALA156     -0.1245
    106  CA       -36.2950    8.4740  -12.3050 C.3   156  ALA156      0.1562
    107  C        -35.4500    9.7270  -12.1030 C.2   156  ALA156      0.2260
    108  O        -34.5820   10.0210  -12.9220 O.2   156  ALA156     -0.2867
    109  CB       -35.7410    7.3530  -11.4560 C.3   156  ALA156      0.0290
    110  N        -33.0270   11.6830   -8.9870 N.3   158  ILE158     -0.1245
    111  CA       -32.4280   11.3700   -7.6800 C.3   158  ILE158      0.1561
    112  C        -31.7410   12.6080   -7.1180 C.2   158  ILE158      0.2260
    113  O        -31.4050   13.5570   -7.8410 O.2   158  ILE158     -0.2867
    114  CB       -31.4490   10.1880   -7.7240 C.3   158  ILE158      0.0252
    115  CG1      -30.1830   10.5540   -8.5340 C.3   158  ILE158      0.0019
    116  CG2      -32.1600    8.9350   -8.2730 C.3   158  ILE158      0.0019
    117  CD1      -28.9810    9.6040   -8.3640 C.3   158  ILE158      0.0001
    118  N        -28.9510   12.3550   -4.0700 N.3   160  VAL160     -0.1245
    119  CA       -28.3060   11.4930   -3.0850 C.3   160  VAL160      0.1561
    120  C        -27.0470   12.1980   -2.6000 C.2   160  VAL160      0.2260
    121  O        -26.3150   12.8160   -3.4000 O.2   160  VAL160     -0.2867
    122  CB       -27.9520   10.1240   -3.7050 C.3   160  VAL160      0.0252
    123  CG1      -27.0540    9.2840   -2.7910 C.3   160  VAL160      0.0019
    124  CG2      -29.2290    9.3430   -4.0890 C.3   160  VAL160      0.0019
    125  N        -25.9270    9.4930    5.1220 N.3   188  TYR188     -0.1241
    126  CA       -26.2360    9.1740    3.7340 C.3   188  TYR188      0.1605
    127  C        -27.7040    9.5260    3.5320 C.2   188  TYR188      0.2264
    128  O        -28.5670    9.0660    4.2930 O.2   188  TYR188     -0.2867
    129  CB       -26.0950    7.6650    3.5240 C.3   188  TYR188      0.0534
    130  CG       -26.6070    7.1760    2.1910 C.ar  188  TYR188     -0.0201
    131  CD1      -25.8570    7.3220    1.0200 C.ar  188  TYR188     -0.0009
    132  CD2      -27.9000    6.6530    2.0870 C.ar  188  TYR188     -0.0009
    133  CE1      -26.3560    6.8880   -0.2190 C.ar  188  TYR188      0.0417
    134  CE2      -28.4150    6.2430    0.8490 C.ar  188  TYR188      0.0417
    135  CZ       -27.6500    6.3670   -0.2960 C.ar  188  TYR188      0.1957
    136  OH       -28.1910    5.9470   -1.4830 O.3   188  TYR188     -0.2866
    137  N        -35.3710    9.7280   -3.9180 N.3   192  VAL192     -0.1245
    138  CA       -35.5220    9.1390   -5.2460 C.3   192  VAL192      0.1561
    139  C        -36.9530    9.3310   -5.7180 C.2   192  VAL192      0.2260
    140  O        -37.9220    8.9310   -5.0620 O.2   192  VAL192     -0.2867
    141  CB       -35.1520    7.6460   -5.2010 C.3   192  VAL192      0.0252
    142  CG1      -35.3820    6.8920   -6.5110 C.3   192  VAL192      0.0019
    143  CG2      -33.7160    7.4590   -4.7450 C.3   192  VAL192      0.0019
    144  N        -39.4540    8.0630   -8.4400 N.3   194  PRO194     -0.2116
    145  CA       -39.5610    6.9930   -9.4160 C.3   194  PRO194      0.1372
    146  C        -39.9630    7.5200  -10.7940 C.2   194  PRO194      0.2244
    147  O        -39.8070    6.7720  -11.7680 O.2   194  PRO194     -0.2868
    148  CB       -40.7260    6.1340   -8.9230 C.3   194  PRO194      0.0268
    149  CG       -40.5750    6.3040   -7.3960 C.3   194  PRO194      0.0207
    150  CD       -40.2900    7.8010   -7.2250 C.3   194  PRO194      0.0892
    151  N        -45.4900    3.3880   -9.5250 N.3   198  ALA198     -0.1245
    152  CA       -44.8600    2.2140   -8.9590 C.3   198  ALA198      0.1562
    153  C        -45.6480    1.9230   -7.6920 C.2   198  ALA198      0.2260
    154  O        -46.1140    2.8550   -7.0630 O.2   198  ALA198     -0.2867
    155  CB       -43.3900    2.4840   -8.6170 C.3   198  ALA198      0.0290
    156  N        -42.1200   -0.5060   -3.1980 N.3   203  LEU203     -0.1245
    157  CA       -40.9830    0.4140   -3.0590 C.3   203  LEU203      0.1561
    158  C        -40.5070    0.4510   -1.6120 C.2   203  LEU203      0.2260
    159  O        -39.3150    0.5370   -1.3270 O.2   203  LEU203     -0.2867
    160  CB       -41.4450    1.8140   -3.4530 C.3   203  LEU203      0.0270
    161  CG       -41.6690    1.9760   -4.9480 C.3   203  LEU203      0.0019
    162  CD1      -41.7890    3.4560   -5.3520 C.3   203  LEU203      0.0001
    163  CD2      -40.5530    1.2590   -5.6870 C.3   203  LEU203      0.0001
    164  N        -38.7380   -2.6940   -0.5490 N.3   206  VAL206     -0.1231
    165  CA       -37.4350   -2.7860   -1.1750 C.3   206  VAL206      0.1692
    166  C        -36.4610   -1.8120   -0.5160 C.2   206  VAL206      0.2591
    167  O        -35.3370   -2.2070   -0.2010 O.2   206  VAL206     -0.2718
    168  CB       -37.5450   -2.5370   -2.6900 C.3   206  VAL206      0.0266
    169  CG1      -36.1740   -2.2390   -3.2820 C.3   206  VAL206      0.0020
    170  CG2      -38.2100   -3.7280   -3.3520 C.3   206  VAL206      0.0020
    171  N        -36.8970   -0.5640   -0.2820 N.am  207  ALA207     -0.1980
    172  CA       -36.0270    0.3940    0.3980 C.3   207  ALA207      0.1597
    173  C        -35.6010   -0.1740    1.7540 C.2   207  ALA207      0.2287
    174  O        -34.4300   -0.0990    2.1500 O.2   207  ALA207     -0.2864
    175  CB       -36.7780    1.7100    0.6150 C.3   207  ALA207      0.0319
    176  N        -33.0790   -3.0120    1.1670 N.3   210  GLU210     -0.1231
    177  CA       -31.9060   -2.8310    0.3420 C.3   210  GLU210      0.1699
    178  C        -31.0040   -1.6940    0.8210 C.2   210  GLU210      0.2592
    179  O        -29.8050   -1.7050    0.5290 O.2   210  GLU210     -0.2718
    180  CB       -32.3170   -2.5140   -1.0890 C.3   210  GLU210      0.0402
    181  CG       -32.9110   -3.7150   -1.8190 C.3   210  GLU210      0.1161
    182  CD       -32.0610   -4.9730   -1.7960 C.2   210  GLU210      0.3649
    183  OE1      -30.8670   -4.8810   -2.1200 O.co2 210  GLU210     -0.2457
    184  OE2      -32.5970   -6.0360   -1.4260 O.co2 210  GLU210     -0.2457
    185  N        -31.5740   -0.6370    1.4090 N.am  211  TYR211     -0.1976
    186  CA       -30.6690    0.4230    1.8400 C.3   211  TYR211      0.1639
    187  C        -29.6810   -0.0810    2.8970 C.2   211  TYR211      0.2290
    188  O        -28.4880    0.2340    2.8730 O.2   211  TYR211     -0.2864
    189  CB       -31.4300    1.6640    2.2840 C.3   211  TYR211      0.0560
    190  CG       -31.8450    2.5750    1.1570 C.ar  211  TYR211     -0.0198
    191  CD1      -30.9090    3.2350    0.3770 C.ar  211  TYR211     -0.0009
    192  CD2      -33.1770    2.7920    0.8820 C.ar  211  TYR211     -0.0009
    193  CE1      -31.3020    4.1080   -0.6300 C.ar  211  TYR211      0.0417
    194  CE2      -33.6000    3.6110   -0.1640 C.ar  211  TYR211      0.0417
    195  CZ       -32.6470    4.2770   -0.9160 C.ar  211  TYR211      0.1957
    196  OH       -33.0430    5.1210   -1.9080 O.3   211  TYR211     -0.2866
    197  N        -27.1040   -2.2080    1.2380 N.3   214  PHE214     -0.1241
    198  CA       -26.1610   -1.3780    0.4930 C.3   214  PHE214      0.1605
    199  C        -25.1270   -0.7530    1.4410 C.2   214  PHE214      0.2264
    200  O        -23.9180   -0.8310    1.1990 O.2   214  PHE214     -0.2867
    201  CB       -26.8680   -0.3520   -0.4100 C.3   214  PHE214      0.0534
    202  CG       -26.0880    0.9430   -0.5380 C.ar  214  PHE214     -0.0203
    203  CD1      -24.8260    0.9800   -1.0950 C.ar  214  PHE214     -0.0042
    204  CD2      -26.5740    2.1170    0.0120 C.ar  214  PHE214     -0.0042
    205  CE1      -24.0890    2.1570   -1.1270 C.ar  214  PHE214     -0.0003
    206  CE2      -25.8410    3.2980   -0.0200 C.ar  214  PHE214     -0.0003
    207  CZ       -24.5930    3.3140   -0.5950 C.ar  214  PHE214     -0.0000
@<TRIPOS>BOND
     1    73    72    1
     2    28    29    1
     3    72    69    1
     4    30    29    1
     5    30    31    2
     6    29    32    1
     7    69    70    1
     8    69    68    1
     9    76    77    2
    10    76    75    1
    11    70    71    2
    12    74    75    1
    13    75    78    1
    14    32    33    1
    15    68    65   am
    16    40    39    2
    17    85    86    1
    18    37    38    1
    19   105   106    1
    20    88    87    2
    21    66    65    2
    22    33    34    1
    23    65    64    1
    24    39    38    1
    25    39    47   am
    26    78    79    1
    27    83    82    1
    28    87    86    1
    29    86    89    1
    30   108   107    2
    31    80    79    1
    32    80    81    1
    33    38    41    1
    34    82    81    2
    35    82    84    1
    36    47    48    1
    37    48    49    1
    38    48    51    1
    39   106   107    1
    40   106   109    1
    41    49    50    2
    42    64    63    1
    43    64    67    1
    44    91    93   ar
    45    91    90   ar
    46    34    35    2
    47    34    36   am
    48    41    42    1
    49   147   146    2
    50    52    51    1
    51    52    53    1
    52    93    95   ar
    53    89    90    1
    54    44    42   ar
    55    44    46   ar
    56    90    92   ar
    57    42    43   ar
    58    54    53    1
    59    54    55    1
    60    95    96    1
    61    95    94   ar
    62   146   145    1
    63    56    57    1
    64    92    94   ar
    65    46    45   ar
    66    24    23    2
    67    43    45   ar
    68    59    58    2
    69    23    22    1
    70    58    57    1
    71   151   152    1
    72   145   148    1
    73   145   144    1
    74    57    60    1
    75   110   111    1
    76   152   155    1
    77   152   153    1
    78   148   149    1
    79    17    16    1
    80    17    18    1
    81   115   117    1
    82   115   114    1
    83   144   150    1
    84    22    21    1
    85    22    25    1
    86    60    62    1
    87    60    61    1
    88   116   114    1
    89    26    25    1
    90    15    14    2
    91    16    13    1
    92   113   112    2
    93    19    18   ar
    94    18    20   ar
    95   114   111    1
    96   153   154    2
    97    25    27    1
    98   111   112    1
    99   149   150    1
   100   103   102    2
   101    99    98    1
   102    99   100    2
   103    14    13    1
   104    98   101    1
   105    98    97    1
   106   101   102    1
   107   102   104   am
   108    13    12    1
   109   142   141    1
   110     4     3    2
   111   139   138    1
   112   139   140    2
   113   163   161    1
   114   162   161    1
   115   138   141    1
   116   138   137    1
   117   141   143    1
   118     3     2    1
   119   161   160    1
   120   124   122    1
   121   118   119    1
   122     2     1    1
   123     2     5    1
   124   122   119    1
   125   122   123    1
   126   160   157    1
   127   121   120    2
   128   170   168    1
   129    10    11   ar
   130    10     8   ar
   131   169   168    1
   132    11     9   ar
   133   156   157    1
   134     8     6   ar
   135   119   120    1
   136   157   158    1
   137     9     7   ar
   138     6     7   ar
   139     6     5    1
   140   168   165    1
   141   183   182   ar
   142   196   195    1
   143   181   182    1
   144   181   180    1
   145   182   184   ar
   146   158   159    2
   147   136   135    1
   148   165   164    1
   149   165   166    1
   150   205   203   ar
   151   205   207   ar
   152   203   202   ar
   153   180   177    1
   154   195   193   ar
   155   195   194   ar
   156   193   191   ar
   157   207   206   ar
   158   202   201    1
   159   202   204   ar
   160   166   171   am
   161   166   167    2
   162   201   198    1
   163   135   133   ar
   164   135   134   ar
   165   171   172    1
   166   133   131   ar
   167   194   192   ar
   168   206   204   ar
   169   177   178    1
   170   177   176    1
   171   191   190   ar
   172   172   175    1
   173   172   173    1
   174   198   197    1
   175   198   199    1
   176   179   178    2
   177   178   185   am
   178   134   132   ar
   179   192   190   ar
   180   131   130   ar
   181   190   189    1
   182   200   199    2
   183   185   186    1
   184   173   174    2
   185   186   189    1
   186   186   187    1
   187   132   130   ar
   188   130   129    1
   189   188   187    2
   190   129   126    1
   191   127   126    1
   192   127   128    2
   193   126   125    1
