@<TRIPOS>MOLECULE
tmp/5zylA00.pdb
 247 233 0 0 0
SMALL
GASTEIGER

@<TRIPOS>ATOM
      1  N        -16.9170    5.7850   -3.2380 N.3    73  PHE73      -0.1241
      2  CA       -18.3030    5.9810   -3.6490 C.3    73  PHE73       0.1605
      3  C        -18.3710    6.6930   -5.0100 C.2    73  PHE73       0.2264
      4  O        -19.3020    6.4890   -5.7910 O.2    73  PHE73      -0.2867
      5  CB       -19.0310    6.7800   -2.5620 C.3    73  PHE73       0.0534
      6  CG       -20.5260    6.9060   -2.7980 C.ar   73  PHE73      -0.0203
      7  CD1      -21.3680    5.7910   -2.7650 C.ar   73  PHE73      -0.0042
      8  CD2      -21.0960    8.1400   -3.0030 C.ar   73  PHE73      -0.0042
      9  CE1      -22.7370    5.9120   -2.9940 C.ar   73  PHE73      -0.0003
     10  CE2      -22.4750    8.2710   -3.1750 C.ar   73  PHE73      -0.0003
     11  CZ       -23.2920    7.1600   -3.1790 C.ar   73  PHE73      -0.0000
     12  N        -17.2600    0.8170   -9.2590 N.3    79  ARG79      -0.1245
     13  CA       -18.6940    0.7770   -9.0490 C.3    79  ARG79       0.1563
     14  C        -19.1580   -0.6790   -8.9920 C.2    79  ARG79       0.2260
     15  O        -19.9380   -1.0350   -8.1210 O.2    79  ARG79      -0.2867
     16  CB       -19.4090    1.5900  -10.1370 C.3    79  ARG79       0.0307
     17  CG       -20.8400    1.9930   -9.7970 C.3    79  ARG79       0.0489
     18  CD       -20.9030    3.0670   -8.7180 C.3    79  ARG79       0.2205
     19  NE       -21.4860    4.2860   -9.2630 N.pl3  79  ARG79      -0.0865
     20  CZ       -20.9430    5.4720   -9.2050 C.cat  79  ARG79       0.5346
     21  NH1      -21.5890    6.4870   -9.7550 N.pl3  79  ARG79       0.1354
     22  NH2      -19.7840    5.6470   -8.5720 N.pl3  79  ARG79       0.1354
     23  N        -19.1690   -3.0010   -5.7720 N.3    82  TRP82      -0.1227
     24  CA       -20.0790   -2.9040   -4.6360 C.3    82  TRP82       0.1737
     25  C        -21.5460   -2.7200   -5.0440 C.2    82  TRP82       0.2595
     26  O        -22.4140   -3.0790   -4.2520 O.2    82  TRP82      -0.2718
     27  CB       -19.6550   -1.8150   -3.6210 C.3    82  TRP82       0.0564
     28  CG       -19.5840   -0.4340   -4.2040 C.ar   82  TRP82       0.0003
     29  CD1      -18.4630    0.1890   -4.6840 C.ar   82  TRP82       0.0946
     30  CD2      -20.6530    0.5170   -4.3350 C.ar   82  TRP82       0.0152
     31  NE1      -18.7640    1.4550   -5.1210 N.ar   82  TRP82      -0.2442
     32  CE2      -20.1030    1.6800   -4.9210 C.ar   82  TRP82       0.0810
     33  CE3      -22.0280    0.4850   -4.0450 C.ar   82  TRP82       0.0012
     34  CZ2      -20.8800    2.8050   -5.2070 C.ar   82  TRP82       0.0191
     35  CZ3      -22.8010    1.5800   -4.3550 C.ar   82  TRP82       0.0001
     36  CH2      -22.2320    2.7310   -4.9080 C.ar   82  TRP82       0.0015
     37  N        -21.8350   -2.1480   -6.2350 N.am   83  GLU83      -0.1979
     38  CA       -23.2240   -1.9690   -6.6830 C.3    83  GLU83       0.1602
     39  C        -23.8520   -3.3180   -6.9820 C.2    83  GLU83       0.2287
     40  O        -23.2000   -4.1620   -7.6150 O.2    83  GLU83      -0.2864
     41  CB       -23.2440   -1.2850   -8.0540 C.3    83  GLU83       0.0415
     42  CG       -22.9950    0.2020   -8.0150 C.3    83  GLU83       0.1163
     43  CD       -24.2070    1.0690   -7.7380 C.2    83  GLU83       0.3649
     44  OE1      -24.2470    2.1940   -8.2340 O.co2  83  GLU83      -0.2457
     45  OE2      -25.0880    0.6230   -6.9990 O.co2  83  GLU83      -0.2457
     46  N        -27.5020   -3.2590   -7.9020 N.3    85  THR85      -0.1203
     47  CA       -28.8030   -3.0380   -8.5220 C.3    85  THR85       0.1994
     48  C        -28.7100   -2.3750   -9.9080 C.2    85  THR85       0.2617
     49  O        -29.7500   -2.1160  -10.5010 O.2    85  THR85      -0.2717
     50  CB       -29.7480   -2.2190   -7.6180 C.3    85  THR85       0.1784
     51  OG1      -29.2690   -0.8740   -7.5930 O.3    85  THR85      -0.2211
     52  CG2      -29.8380   -2.7270   -6.1910 C.3    85  THR85       0.0376
     53  N        -27.4980   -2.1140  -10.4100 N.am   86  ILE86      -0.1979
     54  CA       -27.2650   -1.4570  -11.6950 C.3    86  ILE86       0.1595
     55  C        -27.2350   -2.5050  -12.7890 C.2    86  ILE86       0.2287
     56  O        -26.6500   -3.5700  -12.6270 O.2    86  ILE86      -0.2864
     57  CB       -25.9360   -0.6710  -11.6660 C.3    86  ILE86       0.0276
     58  CG1      -25.9940    0.3580  -10.5520 C.3    86  ILE86       0.0022
     59  CG2      -25.6330    0.0100  -12.9950 C.3    86  ILE86       0.0022
     60  CD1      -26.9230    1.4290  -10.8320 C.3    86  ILE86       0.0001
     61  N        -27.5010    5.7070  -15.9300 N.3   104  GLN104     -0.1245
     62  CA       -27.5010    4.2960  -15.5140 C.3   104  GLN104      0.1566
     63  C        -28.9280    3.7580  -15.5430 C.2   104  GLN104      0.2260
     64  O        -29.8870    4.5290  -15.4850 O.2   104  GLN104     -0.2867
     65  CB       -26.8890    4.0790  -14.1270 C.3   104  GLN104      0.0367
     66  CG       -27.6220    4.8090  -12.9960 C.3   104  GLN104      0.0905
     67  CD       -26.8180    4.7840  -11.7160 C.2   104  GLN104      0.2608
     68  OE1      -25.5940    4.9620  -11.7290 O.2   104  GLN104     -0.2717
     69  NE2      -27.5120    4.6830  -10.5850 N.am  104  GLN104     -0.0878
     70  N        -31.3910    0.7280  -13.5620 N.3   106  HIS106     -0.1226
     71  CA       -31.4580   -0.1620  -12.4140 C.3   106  HIS106      0.1752
     72  C        -32.2250   -1.4110  -12.7970 C.2   106  HIS106      0.2595
     73  O        -33.1040   -1.4040  -13.6710 O.2   106  HIS106     -0.2718
     74  CB       -32.1670    0.5390  -11.2520 C.3   106  HIS106      0.0759
     75  CG       -31.2790    1.5540  -10.6200 C.ar  106  HIS106      0.0818
     76  ND1      -30.4440    1.2640   -9.5370 N.ar  106  HIS106     -0.2268
     77  CD2      -31.0060    2.8210  -11.0020 C.ar  106  HIS106      0.1154
     78  CE1      -29.7510    2.3470   -9.2350 C.ar  106  HIS106      0.1986
     79  NE2      -30.0620    3.3030  -10.1390 N.ar  106  HIS106     -0.2212
     80  N        -31.9070   -2.4900  -12.0940 N.am  107  LYS107     -0.1980
     81  CA       -32.6720   -3.6910  -12.3230 C.3   107  LYS107      0.1596
     82  C        -34.1460   -3.4340  -12.0900 C.2   107  LYS107      0.2287
     83  O        -34.5400   -2.7200  -11.1690 O.2   107  LYS107     -0.2864
     84  CB       -32.1520   -4.7980  -11.4120 C.3   107  LYS107      0.0298
     85  CG       -30.7070   -5.1690  -11.7410 C.3   107  LYS107      0.0038
     86  CD       -30.0560   -6.1440  -10.7660 C.3   107  LYS107      0.0206
     87  CE       -28.7100   -6.6440  -11.2580 C.3   107  LYS107      0.1093
     88  NZ       -28.0590   -7.4510  -10.1990 N.3   107  LYS107     -0.1314
     89  N        -37.7480   -3.5310  -10.8100 N.3   109  VAL109     -0.1245
     90  CA       -38.4600   -3.9140   -9.6040 C.3   109  VAL109      0.1561
     91  C        -39.9100   -4.2020   -9.9840 C.2   109  VAL109      0.2260
     92  O        -40.6600   -3.2830  -10.2800 O.2   109  VAL109     -0.2867
     93  CB       -38.3770   -2.8180   -8.5300 C.3   109  VAL109      0.0252
     94  CG1      -39.2490   -3.1440   -7.3290 C.3   109  VAL109      0.0019
     95  CG2      -36.9160   -2.5600   -8.1040 C.3   109  VAL109      0.0019
     96  N        -43.4000   -2.7510  -11.5310 N.3   112  ALA112     -0.1231
     97  CA       -43.2350   -1.4420  -12.1530 C.3   112  ALA112      0.1694
     98  C        -42.2260   -1.5370  -13.3020 C.2   112  ALA112      0.2592
     99  O        -41.4180   -2.4650  -13.3720 O.2   112  ALA112     -0.2718
    100  CB       -42.6820   -0.4840  -11.1210 C.3   112  ALA112      0.0304
    101  N        -42.2750   -0.5580  -14.1940 N.am  113  SER113     -0.1952
    102  CA       -41.3460   -0.4920  -15.3090 C.3   113  SER113      0.1924
    103  C        -39.9380   -0.3260  -14.7600 C.2   113  SER113      0.2314
    104  O        -39.7240    0.2660  -13.7010 O.2   113  SER113     -0.2863
    105  CB       -41.7190    0.7370  -16.1180 C.3   113  SER113      0.2116
    106  OG       -40.7800    1.0180  -17.1330 O.3   113  SER113     -0.2180
    107  N        -36.4020    1.4820  -14.2340 N.3   115  ARG115     -0.1245
    108  CA       -36.0670    2.8990  -14.1320 C.3   115  ARG115      0.1563
    109  C        -34.6590    3.1400  -14.7040 C.2   115  ARG115      0.2260
    110  O        -33.7500    2.3300  -14.4940 O.2   115  ARG115     -0.2867
    111  CB       -36.0930    3.3710  -12.6560 C.3   115  ARG115      0.0307
    112  CG       -37.3490    4.1480  -12.2640 C.3   115  ARG115      0.0489
    113  CD       -38.6340    3.4040  -12.6090 C.3   115  ARG115      0.2205
    114  NE       -39.8190    4.1840  -12.2350 N.pl3 115  ARG115     -0.0865
    115  CZ       -41.0750    3.7790  -12.4060 C.cat 115  ARG115      0.5346
    116  NH1      -41.3180    2.5560  -12.8710 N.pl3 115  ARG115      0.1354
    117  NH2      -42.0740    4.6010  -12.1280 N.pl3 115  ARG115      0.1354
    118  N        -31.6780    6.7040  -14.8610 N.3   117  VAL117     -0.1245
    119  CA       -31.3240    7.9000  -14.1050 C.3   117  VAL117      0.1561
    120  C        -30.2150    8.6120  -14.8640 C.2   117  VAL117      0.2260
    121  O        -29.3950    7.9690  -15.5020 O.2   117  VAL117     -0.2867
    122  CB       -30.7760    7.5800  -12.7060 C.3   117  VAL117      0.0252
    123  CG1      -30.9310    8.8050  -11.7950 C.3   117  VAL117      0.0019
    124  CG2      -31.4980    6.3590  -12.1200 C.3   117  VAL117      0.0019
    125  N        -27.5920   11.7500  -13.9810 N.3   119  TYR119     -0.1241
    126  CA       -27.2590   12.5980  -12.8530 C.3   119  TYR119      0.1605
    127  C        -25.8290   13.1270  -12.9270 C.2   119  TYR119      0.2264
    128  O        -24.9380   12.5060  -13.4920 O.2   119  TYR119     -0.2867
    129  CB       -27.4430   11.8850  -11.5020 C.3   119  TYR119      0.0534
    130  CG       -26.6590   10.5890  -11.3050 C.ar  119  TYR119     -0.0201
    131  CD1      -27.0530    9.3770  -11.8760 C.ar  119  TYR119     -0.0009
    132  CD2      -25.5170   10.5790  -10.5250 C.ar  119  TYR119     -0.0009
    133  CE1      -26.3600    8.1910  -11.6500 C.ar  119  TYR119      0.0417
    134  CE2      -24.7810    9.4130  -10.3130 C.ar  119  TYR119      0.0417
    135  CZ       -25.2000    8.2270  -10.8760 C.ar  119  TYR119      0.1957
    136  OH       -24.4840    7.0890  -10.6480 O.3   119  TYR119     -0.2866
    137  N        -24.9510   13.2920   -5.7130 N.3   141  ASN141     -0.1240
    138  CA       -25.4000   12.7970   -7.0060 C.3   141  ASN141      0.1653
    139  C        -26.8060   13.3500   -7.2180 C.2   141  ASN141      0.2266
    140  O        -27.7270   13.0280   -6.4570 O.2   141  ASN141     -0.2867
    141  CB       -25.5130   11.2630   -7.0200 C.3   141  ASN141      0.1155
    142  CG       -24.1620   10.5680   -6.9140 C.2   141  ASN141      0.2627
    143  OD1      -23.1420   11.1020   -7.3520 O.2   141  ASN141     -0.2716
    144  ND2      -24.1300    9.3600   -6.3540 N.am  141  ASN141     -0.0877
    145  N        -36.2600    8.0980  -13.4920 N.3   158  ALA158     -0.1245
    146  CA       -36.3050    8.5460  -12.1000 C.3   158  ALA158      0.1562
    147  C        -35.4480    9.7970  -11.9670 C.2   158  ALA158      0.2260
    148  O        -34.5440   10.0180  -12.7880 O.2   158  ALA158     -0.2867
    149  CB       -35.7670    7.4430  -11.2160 C.3   158  ALA158      0.0290
    150  N        -33.0690   11.8890   -8.8970 N.3   160  ILE160     -0.1245
    151  CA       -32.4860   11.6080   -7.5840 C.3   160  ILE160      0.1561
    152  C        -31.8030   12.8500   -7.0290 C.2   160  ILE160      0.2260
    153  O        -31.4420   13.7550   -7.7530 O.2   160  ILE160     -0.2867
    154  CB       -31.5020   10.4100   -7.6080 C.3   160  ILE160      0.0252
    155  CG1      -30.2500   10.7160   -8.4480 C.3   160  ILE160      0.0019
    156  CG2      -32.2110    9.1560   -8.1160 C.3   160  ILE160      0.0019
    157  CD1      -29.1140    9.6560   -8.3440 C.3   160  ILE160      0.0001
    158  N        -29.0040   12.6370   -3.9370 N.3   162  VAL162     -0.1245
    159  CA       -28.3450   11.7800   -2.9730 C.3   162  VAL162      0.1561
    160  C        -27.0720   12.4890   -2.5030 C.2   162  VAL162      0.2260
    161  O        -26.3640   13.1130   -3.3100 O.2   162  VAL162     -0.2867
    162  CB       -27.9770   10.4440   -3.6400 C.3   162  VAL162      0.0252
    163  CG1      -27.0060    9.6430   -2.7750 C.3   162  VAL162      0.0019
    164  CG2      -29.2150    9.6050   -3.9770 C.3   162  VAL162      0.0019
    165  N        -25.9620    9.6310    5.1190 N.3   190  TYR190     -0.1241
    166  CA       -26.3140    9.3040    3.7510 C.3   190  TYR190      0.1605
    167  C        -27.7870    9.6920    3.6000 C.2   190  TYR190      0.2264
    168  O        -28.6630    9.2400    4.3510 O.2   190  TYR190     -0.2867
    169  CB       -26.1590    7.8010    3.5030 C.3   190  TYR190      0.0534
    170  CG       -26.7010    7.3730    2.1620 C.ar  190  TYR190     -0.0201
    171  CD1      -25.9390    7.5100    1.0100 C.ar  190  TYR190     -0.0009
    172  CD2      -27.9450    6.7840    2.0500 C.ar  190  TYR190     -0.0009
    173  CE1      -26.4320    7.1080   -0.2300 C.ar  190  TYR190      0.0417
    174  CE2      -28.4810    6.4530    0.8070 C.ar  190  TYR190      0.0417
    175  CZ       -27.7060    6.5690   -0.3400 C.ar  190  TYR190      0.1957
    176  OH       -28.2180    6.1610   -1.5600 O.3   190  TYR190     -0.2866
    177  N        -35.4330   10.0660   -3.8480 N.3   194  VAL194     -0.1245
    178  CA       -35.6530    9.4410   -5.1460 C.3   194  VAL194      0.1561
    179  C        -37.0920    9.6580   -5.5590 C.2   194  VAL194      0.2260
    180  O        -38.0170    9.3510   -4.8100 O.2   194  VAL194     -0.2867
    181  CB       -35.3540    7.9340   -5.0890 C.3   194  VAL194      0.0252
    182  CG1      -35.5560    7.2400   -6.4520 C.3   194  VAL194      0.0019
    183  CG2      -33.9400    7.7130   -4.6190 C.3   194  VAL194      0.0019
    184  N        -39.4820    8.2250   -8.3440 N.3   196  PRO196     -0.2116
    185  CA       -39.5300    7.1370   -9.3180 C.3   196  PRO196      0.1372
    186  C        -40.0070    7.6050  -10.6960 C.2   196  PRO196      0.2244
    187  O        -39.9260    6.8310  -11.6480 O.2   196  PRO196     -0.2868
    188  CB       -40.5890    6.2010   -8.7270 C.3   196  PRO196      0.0268
    189  CG       -40.5160    6.4360   -7.2160 C.3   196  PRO196      0.0207
    190  CD       -40.3210    7.9500   -7.1490 C.3   196  PRO196      0.0892
    191  N        -45.6640    3.4540   -9.4980 N.3   200  ALA200     -0.1245
    192  CA       -45.1030    2.2500   -8.9070 C.3   200  ALA200      0.1562
    193  C        -45.9310    1.9520   -7.6690 C.2   200  ALA200      0.2260
    194  O        -46.4100    2.8650   -7.0030 O.2   200  ALA200     -0.2867
    195  CB       -43.6460    2.4750   -8.5240 C.3   200  ALA200      0.0290
    196  N        -42.3450   -0.5140   -3.3910 N.3   205  LEU205     -0.1245
    197  CA       -41.1840    0.3730   -3.2920 C.3   205  LEU205      0.1561
    198  C        -40.6970    0.5060   -1.8460 C.2   205  LEU205      0.2260
    199  O        -39.5010    0.6200   -1.5840 O.2   205  LEU205     -0.2867
    200  CB       -41.5600    1.7520   -3.8490 C.3   205  LEU205      0.0270
    201  CG       -41.5080    1.8660   -5.3620 C.3   205  LEU205      0.0019
    202  CD1      -41.7870    3.3130   -5.7980 C.3   205  LEU205      0.0001
    203  CD2      -40.1760    1.3640   -5.8940 C.3   205  LEU205      0.0001
    204  N        -38.8320   -2.5360   -0.8090 N.3   208  VAL208     -0.1231
    205  CA       -37.5360   -2.6060   -1.4790 C.3   208  VAL208      0.1692
    206  C        -36.5430   -1.6320   -0.8350 C.2   208  VAL208      0.2591
    207  O        -35.3830   -2.0050   -0.6010 O.2   208  VAL208     -0.2718
    208  CB       -37.6510   -2.3760   -2.9950 C.3   208  VAL208      0.0266
    209  CG1      -36.2970   -2.0590   -3.6020 C.3   208  VAL208      0.0020
    210  CG2      -38.3140   -3.5590   -3.6860 C.3   208  VAL208      0.0020
    211  N        -37.0010   -0.4060   -0.5120 N.am  209  ALA209     -0.1980
    212  CA       -36.1330    0.5710    0.1310 C.3   209  ALA209      0.1597
    213  C        -35.6610    0.0130    1.4750 C.2   209  ALA209      0.2287
    214  O        -34.4890    0.1100    1.8510 O.2   209  ALA209     -0.2864
    215  CB       -36.8840    1.8790    0.3420 C.3   209  ALA209      0.0319
    216  N        -33.0670   -2.7000    0.6810 N.3   212  GLU212     -0.1231
    217  CA       -31.8810   -2.4440   -0.1360 C.3   212  GLU212      0.1699
    218  C        -31.0030   -1.3280    0.4580 C.2   212  GLU212      0.2592
    219  O        -29.7900   -1.3330    0.2530 O.2   212  GLU212     -0.2718
    220  CB       -32.2470   -2.0210   -1.5650 C.3   212  GLU212      0.0402
    221  CG       -32.8560   -3.1740   -2.3860 C.3   212  GLU212      0.1161
    222  CD       -31.9460   -4.3820   -2.6220 C.2   212  GLU212      0.3649
    223  OE1      -30.7200   -4.2020   -2.7380 O.co2 212  GLU212     -0.2457
    224  OE2      -32.4750   -5.5260   -2.6700 O.co2 212  GLU212     -0.2457
    225  N        -31.5830   -0.3080    1.0950 N.am  213  TYR213     -0.1976
    226  CA       -30.6860    0.7360    1.6070 C.3   213  TYR213      0.1639
    227  C        -29.7340    0.1630    2.6760 C.2   213  TYR213      0.2290
    228  O        -28.5250    0.4520    2.6740 O.2   213  TYR213     -0.2864
    229  CB       -31.4600    1.9620    2.0990 C.3   213  TYR213      0.0560
    230  CG       -31.9230    2.8430    0.9730 C.ar  213  TYR213     -0.0198
    231  CD1      -30.9980    3.5550    0.2260 C.ar  213  TYR213     -0.0009
    232  CD2      -33.2590    2.9990    0.6730 C.ar  213  TYR213     -0.0009
    233  CE1      -31.3830    4.3860   -0.8220 C.ar  213  TYR213      0.0417
    234  CE2      -33.6600    3.8190   -0.3750 C.ar  213  TYR213      0.0417
    235  CZ       -32.7270    4.5190   -1.1280 C.ar  213  TYR213      0.1957
    236  OH       -33.1390    5.3680   -2.1250 O.3   213  TYR213     -0.2866
    237  N        -27.0880   -2.0150    0.9720 N.3   216  PHE216     -0.1241
    238  CA       -26.1230   -1.1220    0.3230 C.3   216  PHE216      0.1605
    239  C        -25.1300   -0.5630    1.3370 C.2   216  PHE216      0.2264
    240  O        -23.9310   -0.6300    1.1070 O.2   216  PHE216     -0.2867
    241  CB       -26.8190   -0.0000   -0.4590 C.3   216  PHE216      0.0534
    242  CG       -26.0240    1.2910   -0.5570 C.ar  216  PHE216     -0.0203
    243  CD1      -24.7920    1.3250   -1.1930 C.ar  216  PHE216     -0.0042
    244  CD2      -26.4790    2.4540    0.0650 C.ar  216  PHE216     -0.0042
    245  CE1      -24.0570    2.5090   -1.2620 C.ar  216  PHE216     -0.0003
    246  CE2      -25.7290    3.6240    0.0300 C.ar  216  PHE216     -0.0003
    247  CZ       -24.5170    3.6430   -0.6260 C.ar  216  PHE216     -0.0000
@<TRIPOS>BOND
     1   106   105    1
     2   105   102    1
     3    61    62    1
     4    63    62    1
     5    63    64    2
     6    62    65    1
     7   121   120    2
     8   102   103    1
     9   102   101    1
    10   120   119    1
    11   118   119    1
    12   103   104    2
    13   109   110    2
    14   109   108    1
    15   107   108    1
    16   101    98   am
    17   108   111    1
    18    65    66    1
    19   119   122    1
    20   125   126    1
    21    73    72    2
    22    70    71    1
    23   145   146    1
    24   128   127    2
    25    99    98    2
    26    98    97    1
    27    66    67    1
    28    59    57    1
    29   127   126    1
    30   116   115    1
    31   126   129    1
    32    72    71    1
    33    72    80   am
    34    55    56    2
    35    55    54    1
    36   148   147    2
    37   122   124    1
    38   122   123    1
    39   111   112    1
    40   113   112    1
    41   113   114    1
    42    71    74    1
    43   115   114    2
    44   115   117    1
    45    81    80    1
    46    81    82    1
    47    81    84    1
    48    97    96    1
    49    97   100    1
    50   146   147    1
    51   146   149    1
    52    82    83    2
    53   131   133   ar
    54   131   130   ar
    55    85    84    1
    56    85    86    1
    57    68    67    2
    58    67    69   am
    59    54    57    1
    60    54    53    1
    61    57    58    1
    62   133   135   ar
    63   187   186    2
    64   129   130    1
    65   130   132   ar
    66    87    86    1
    67    87    88    1
    68    74    75    1
    69    77    75   ar
    70    77    79   ar
    71   135   136    1
    72   135   134   ar
    73    60    58    1
    74    89    90    1
    75   186   185    1
    76    75    76   ar
    77   132   134   ar
    78    49    48    2
    79    53    48   am
    80    92    91    2
    81    79    78   ar
    82    16    17    1
    83    16    13    1
    84    91    90    1
    85    48    47    1
    86    17    18    1
    87    21    20    1
    88    90    93    1
    89    76    78   ar
    90   191   192    1
    91   185   188    1
    92   185   184    1
    93    19    20    2
    94    19    18    1
    95    12    13    1
    96    20    22    1
    97    13    14    1
    98    14    15    2
    99   192   195    1
   100   192   193    1
   101   150   151    1
   102   188   189    1
   103    93    95    1
   104    93    94    1
   105    47    46    1
   106    47    50    1
   107   155   157    1
   108   155   154    1
   109   184   190    1
   110    44    43   ar
   111   156   154    1
   112    41    42    1
   113    41    38    1
   114    42    43    1
   115   153   152    2
   116    43    45   ar
   117   193   194    2
   118    50    51    1
   119    50    52    1
   120    40    39    2
   121   154   151    1
   122   151   152    1
   123   143   142    2
   124   139   138    1
   125   139   140    2
   126   189   190    1
   127   141   138    1
   128   141   142    1
   129   138   137    1
   130    39    38    1
   131   142   144   am
   132    38    37    1
   133   182   181    1
   134    37    25   am
   135   203   201    1
   136   202   201    1
   137     4     3    2
   138    23    24    1
   139   179   178    1
   140   179   180    2
   141   201   200    1
   142    34    32   ar
   143    34    36   ar
   144   178   181    1
   145   178   177    1
   146    31    32   ar
   147    31    29   ar
   148   181   183    1
   149    25    24    1
   150    25    26    2
   151     3     2    1
   152    32    30   ar
   153    36    35   ar
   154    29    28   ar
   155    24    27    1
   156    35    33   ar
   157    30    28   ar
   158    30    33   ar
   159    28    27    1
   160   164   162    1
   161   158   159    1
   162   200   197    1
   163   210   208    1
   164     2     1    1
   165     2     5    1
   166   162   159    1
   167   162   163    1
   168   209   208    1
   169   196   197    1
   170   161   160    2
   171   197   198    1
   172    11    10   ar
   173    11     9   ar
   174    10     8   ar
   175     8     6   ar
   176   208   205    1
   177     9     7   ar
   178   159   160    1
   179     6     7   ar
   180     6     5    1
   181   223   222   ar
   182   224   222   ar
   183   222   221    1
   184   221   220    1
   185   236   235    1
   186   198   199    2
   187   220   217    1
   188   176   175    1
   189   205   206    1
   190   205   204    1
   191   245   243   ar
   192   245   247   ar
   193   243   242   ar
   194   235   233   ar
   195   235   234   ar
   196   206   207    2
   197   206   211   am
   198   233   231   ar
   199   247   246   ar
   200   242   241    1
   201   242   244   ar
   202   211   212    1
   203   241   238    1
   204   234   232   ar
   205   175   173   ar
   206   175   174   ar
   207   173   171   ar
   208   217   218    1
   209   217   216    1
   210   246   244   ar
   211   212   215    1
   212   212   213    1
   213   231   230   ar
   214   219   218    2
   215   238   237    1
   216   238   239    1
   217   218   225   am
   218   232   230   ar
   219   174   172   ar
   220   230   229    1
   221   171   170   ar
   222   225   226    1
   223   240   239    2
   224   213   214    2
   225   226   229    1
   226   226   227    1
   227   172   170   ar
   228   170   169    1
   229   228   227    2
   230   169   166    1
   231   167   166    1
   232   167   168    2
   233   166   165    1
