@<TRIPOS>MOLECULE
tmp/5zynA01.pdb
 147 144 0 0 0
SMALL
GASTEIGER

@<TRIPOS>ATOM
      1  N          4.8510   30.3800    6.6410 N.3    45  ILE45      -0.1231
      2  CA         3.9800   30.2890    7.8040 C.3    45  ILE45       0.1692
      3  C          3.9860   28.8690    8.3620 C.2    45  ILE45       0.2591
      4  O          3.5640   28.6320    9.4910 O.2    45  ILE45      -0.2718
      5  CB         2.5570   30.7440    7.4700 C.3    45  ILE45       0.0266
      6  CG1        1.7590   31.0280    8.7540 C.3    45  ILE45       0.0019
      7  CG2        1.8210   29.7290    6.5640 C.3    45  ILE45       0.0020
      8  CD1        0.3940   31.6020    8.5050 C.3    45  ILE45       0.0001
      9  N          4.5350   27.9310    7.5960 N.am   46  LYS46      -0.1980
     10  CA         4.5720   26.5330    8.0330 C.3    46  LYS46       0.1596
     11  C          5.9210   26.1240    8.6380 C.2    46  LYS46       0.2287
     12  O          6.0880   24.9920    9.0960 O.2    46  LYS46      -0.2864
     13  CB         4.2200   25.6220    6.8560 C.3    46  LYS46       0.0298
     14  CG         2.8690   25.9340    6.2290 C.3    46  LYS46       0.0038
     15  CD         1.7230   25.6900    7.2070 C.3    46  LYS46       0.0206
     16  CE         0.4080   26.2890    6.7200 C.3    46  LYS46       0.1093
     17  NZ         0.1990   26.0740    5.2660 N.3    46  LYS46      -0.1314
     18  N          9.0470   25.4660   11.0400 N.3    48  SER48      -0.1217
     19  CA         9.0770   25.0860   12.4500 C.3    48  SER48       0.1889
     20  C         10.4220   25.1230   13.2070 C.2    48  SER48       0.2288
     21  O         10.4000   25.0250   14.4160 O.2    48  SER48      -0.2866
     22  CB         8.4650   23.6700   12.6060 C.3    48  SER48       0.2089
     23  OG         8.9230   22.7740   11.5960 O.3    48  SER48      -0.2183
     24  N          3.7010   28.4390   22.5450 N.3   130  LYS130     -0.1245
     25  CA         2.9430   27.5160   21.7000 C.3   130  LYS130      0.1561
     26  C          3.1560   27.7370   20.2120 C.2   130  LYS130      0.2260
     27  O          2.8300   26.8710   19.4020 O.2   130  LYS130     -0.2867
     28  CB         1.4450   27.6430   22.0110 C.3   130  LYS130      0.0271
     29  CG         0.9430   29.0790   21.9540 C.3   130  LYS130      0.0035
     30  CD        -0.5360   29.2070   21.5850 C.3   130  LYS130      0.0206
     31  CE        -1.0940   30.5600   22.0330 C.3   130  LYS130      0.1093
     32  NZ        -0.0530   31.6330   22.0720 N.3   130  LYS130     -0.1314
     33  N          5.1330   28.1070   16.7600 N.3   132  PRO132     -0.2116
     34  CA         6.3770   27.8330   16.0550 C.3   132  PRO132      0.1372
     35  C          6.8230   29.0940   15.2980 C.2   132  PRO132      0.2244
     36  O          5.9940   29.9800   15.0480 O.2   132  PRO132     -0.2868
     37  CB         6.0040   26.6730   15.1180 C.3   132  PRO132      0.0268
     38  CG         4.5340   26.8620   14.8710 C.3   132  PRO132      0.0207
     39  CD         3.9780   27.4050   16.1570 C.3   132  PRO132      0.0892
     40  N          5.0310   30.6340   11.9110 N.3   135  PHE135     -0.1241
     41  CA         3.7370   31.2260   12.1800 C.3   135  PHE135      0.1605
     42  C          3.8470   32.4590   13.0800 C.2   135  PHE135      0.2264
     43  O          3.1450   33.4390   12.8570 O.2   135  PHE135     -0.2867
     44  CB         2.7970   30.2050   12.8170 C.3   135  PHE135      0.0534
     45  CG         1.4640   30.7830   13.1920 C.ar  135  PHE135     -0.0203
     46  CD1        0.5210   31.0640   12.2200 C.ar  135  PHE135     -0.0042
     47  CD2        1.1680   31.0770   14.5070 C.ar  135  PHE135     -0.0042
     48  CE1       -0.7020   31.6120   12.5570 C.ar  135  PHE135     -0.0003
     49  CE2       -0.0590   31.6260   14.8550 C.ar  135  PHE135     -0.0003
     50  CZ        -0.9930   31.8910   13.8800 C.ar  135  PHE135     -0.0000
     51  N          7.5500   18.7550    1.1100 N.3   222  THR222     -0.1218
     52  CA         6.9540   19.4710    2.2390 C.3   222  THR222      0.1862
     53  C          6.2300   20.7230    1.7450 C.2   222  THR222      0.2287
     54  O          5.4990   21.3720    2.4950 O.2   222  THR222     -0.2866
     55  CB         7.9990   19.8940    3.2800 C.3   222  THR222      0.1770
     56  OG1        8.9370   20.7870    2.6670 O.3   222  THR222     -0.2211
     57  CG2        8.7410   18.7020    3.8240 C.3   222  THR222      0.0375
     58  N          2.3860   14.9560   -0.1770 N.3   265  TRP265     -0.1227
     59  CA         2.7450   16.0270    0.7550 C.3   265  TRP265      0.1737
     60  C          2.9900   15.4720    2.1520 C.2   265  TRP265      0.2595
     61  O          2.2170   14.6380    2.6400 O.2   265  TRP265     -0.2718
     62  CB         1.6480   17.1100    0.8090 C.3   265  TRP265      0.0564
     63  CG         1.8880   18.1190    1.9000 C.ar  265  TRP265      0.0003
     64  CD1        2.6170   19.2730    1.8070 C.ar  265  TRP265      0.0946
     65  CD2        1.4200   18.0500    3.2590 C.ar  265  TRP265      0.0152
     66  NE1        2.6260   19.9230    3.0170 N.ar  265  TRP265     -0.2442
     67  CE2        1.9030   19.1900    3.9260 C.ar  265  TRP265      0.0810
     68  CE3        0.6390   17.1240    3.9690 C.ar  265  TRP265      0.0012
     69  CZ2        1.6230   19.4430    5.2730 C.ar  265  TRP265      0.0191
     70  CZ3        0.3710   17.3670    5.3020 C.ar  265  TRP265      0.0001
     71  CH2        0.8600   18.5220    5.9430 C.ar  265  TRP265      0.0015
     72  N          4.0530   15.9510    2.7970 N.am  266  LYS266     -0.1966
     73  CA         4.3800   15.5570    4.1700 C.3   266  LYS266      0.1728
     74  C          4.4630   16.7450    5.1210 C.2   266  LYS266      0.2616
     75  O          4.9500   17.8170    4.7410 O.2   266  LYS266     -0.2715
     76  CB         5.7250   14.8260    4.2310 C.3   266  LYS266      0.0311
     77  CG         5.9140   13.7400    3.2200 C.3   266  LYS266      0.0038
     78  CD         4.8760   12.6530    3.3700 C.3   266  LYS266      0.0206
     79  CE         5.3280   11.3950    2.6360 C.3   266  LYS266      0.1093
     80  NZ         4.2070   10.4320    2.4360 N.3   266  LYS266     -0.1314
     81  N          4.0080   16.5520    6.3570 N.am  267  PHE267     -0.1960
     82  CA         4.4490   17.4060    7.4610 C.3   267  PHE267      0.1771
     83  C          5.9650   17.2590    7.5770 C.2   267  PHE267      0.2619
     84  O          6.4880   16.1640    7.4010 O.2   267  PHE267     -0.2715
     85  CB         3.8210   16.9990    8.8010 C.3   267  PHE267      0.0574
     86  CG         2.3710   17.3530    8.9660 C.ar  267  PHE267     -0.0200
     87  CD1        1.3830   16.4260    8.6850 C.ar  267  PHE267     -0.0042
     88  CD2        1.9990   18.5850    9.4930 C.ar  267  PHE267     -0.0042
     89  CE1        0.0500   16.7340    8.8800 C.ar  267  PHE267     -0.0003
     90  CE2        0.6710   18.9040    9.6810 C.ar  267  PHE267     -0.0003
     91  CZ        -0.3080   17.9780    9.3810 C.ar  267  PHE267     -0.0000
     92  N          6.6750   18.3310    7.9070 N.am  268  LEU268     -0.1977
     93  CA         8.1080   18.2280    8.1730 C.3   268  LEU268      0.1596
     94  C          8.4200   17.8110    9.6170 C.2   268  LEU268      0.2287
     95  O          7.8230   18.3390   10.5650 O.2   268  LEU268     -0.2864
     96  CB         8.7940   19.5720    7.8670 C.3   268  LEU268      0.0297
     97  CG        10.3150   19.6290    7.9830 C.3   268  LEU268      0.0022
     98  CD1       10.9900   18.6060    7.0710 C.3   268  LEU268      0.0001
     99  CD2       10.7820   21.0250    7.6220 C.3   268  LEU268      0.0001
    100  N          5.6510   21.6990   23.3130 N.3   328  ASN328     -0.1225
    101  CA         4.5320   22.1130   22.4860 C.3   328  ASN328      0.1785
    102  C          4.6180   21.5630   21.0600 C.2   328  ASN328      0.2597
    103  O          3.6220   21.1060   20.5040 O.2   328  ASN328     -0.2718
    104  CB         4.4380   23.6400   22.4800 C.3   328  ASN328      0.1169
    105  CG         4.1610   24.2050   23.8710 C.2   328  ASN328      0.2627
    106  OD1        4.8350   25.1310   24.3340 O.2   328  ASN328     -0.2716
    107  ND2        3.1710   23.6380   24.5460 N.am  328  ASN328     -0.0877
    108  N          5.8080   21.5840   20.4750 N.am  329  ASN329     -0.1974
    109  CA         5.9620   21.0770   19.1220 C.3   329  ASN329      0.1688
    110  C          5.6280   19.5850   19.0530 C.2   329  ASN329      0.2292
    111  O          4.8540   19.1540   18.2030 O.2   329  ASN329     -0.2864
    112  CB         7.3810   21.3280   18.6090 C.3   329  ASN329      0.1181
    113  CG         7.6310   22.7920   18.2840 C.2   329  ASN329      0.2629
    114  OD1        7.8190   23.1630   17.1240 O.2   329  ASN329     -0.2716
    115  ND2        7.6260   23.6300   19.3100 N.am  329  ASN329     -0.0877
    116  N          2.0590   18.8070   19.3270 N.3   332  PHE332     -0.1227
    117  CA         1.3910   18.9790   18.0500 C.3   332  PHE332      0.1736
    118  C          1.5780   17.7710   17.1410 C.2   332  PHE332      0.2595
    119  O          0.6100   17.2660   16.5750 O.2   332  PHE332     -0.2718
    120  CB         1.8870   20.2310   17.3200 C.3   332  PHE332      0.0547
    121  CG         1.3530   20.3440   15.9250 C.ar  332  PHE332     -0.0202
    122  CD1        0.0310   20.7260   15.7050 C.ar  332  PHE332     -0.0042
    123  CD2        2.1480   20.0370   14.8330 C.ar  332  PHE332     -0.0042
    124  CE1       -0.4700   20.8210   14.4250 C.ar  332  PHE332     -0.0003
    125  CE2        1.6450   20.1190   13.5450 C.ar  332  PHE332     -0.0003
    126  CZ         0.3370   20.5110   13.3410 C.ar  332  PHE332     -0.0000
    127  N          2.8220   17.3240   16.9850 N.am  333  TYR333     -0.1976
    128  CA         3.1040   16.1790   16.1200 C.3   333  TYR333      0.1639
    129  C          2.3300   14.9500   16.6000 C.2   333  TYR333      0.2290
    130  O          1.7920   14.1860   15.8010 O.2   333  TYR333     -0.2864
    131  CB         4.5960   15.8790   16.0910 C.3   333  TYR333      0.0560
    132  CG         5.4510   16.9450   15.4260 C.ar  333  TYR333     -0.0198
    133  CD1        5.0230   17.6080   14.2860 C.ar  333  TYR333     -0.0009
    134  CD2        6.6920   17.2650   15.9520 C.ar  333  TYR333     -0.0009
    135  CE1        5.8300   18.5830   13.6780 C.ar  333  TYR333      0.0417
    136  CE2        7.4940   18.2230   15.3760 C.ar  333  TYR333      0.0417
    137  CZ         7.0630   18.8780   14.2360 C.ar  333  TYR333      0.1957
    138  OH         7.9030   19.8150   13.6620 O.3   333  TYR333     -0.2866
    139  N         -1.2800   14.8750   15.5050 N.3   336  LYS336     -0.1245
    140  CA        -1.4790   14.4330   14.1220 C.3   336  LYS336      0.1561
    141  C         -0.9810   13.0050   13.8630 C.2   336  LYS336      0.2260
    142  O         -0.7920   12.6150   12.7070 O.2   336  LYS336     -0.2867
    143  CB        -0.7900   15.3970   13.1530 C.3   336  LYS336      0.0271
    144  CG        -1.2540   16.8470   13.2850 C.3   336  LYS336      0.0035
    145  CD        -2.7640   16.9780   13.2590 C.3   336  LYS336      0.0206
    146  CE        -3.1680   18.4490   13.2940 C.3   336  LYS336      0.1093
    147  NZ        -4.6250   18.6290   13.5260 N.3   336  LYS336     -0.1314
@<TRIPOS>BOND
     1    58    59    1
     2    59    62    1
     3    59    60    1
     4    62    63    1
     5    51    52    1
     6    53    52    1
     7    53    54    2
     8    64    63   ar
     9    64    66   ar
    10    63    65   ar
    11    60    61    2
    12    60    72   am
    13    52    55    1
    14    80    79    1
    15    79    78    1
    16    56    55    1
    17    72    73    1
    18    66    67   ar
    19    77    78    1
    20    77    76    1
    21    65    67   ar
    22    65    68   ar
    23    55    57    1
    24    67    69   ar
    25    68    70   ar
    26    73    76    1
    27    73    74    1
    28    75    74    2
    29    74    81   am
    30    17    16    1
    31    69    71   ar
    32    70    71   ar
    33    14    13    1
    34    14    15    1
    35    81    82    1
    36     7     5    1
    37     1     2    1
    38    16    15    1
    39    13    10    1
    40    98    97    1
    41    84    83    2
    42    82    83    1
    43    82    85    1
    44     5     2    1
    45     5     6    1
    46    83    92   am
    47     9    10    1
    48     9     3   am
    49    99    97    1
    50     2     3    1
    51    96    97    1
    52    96    93    1
    53    92    93    1
    54    10    11    1
    55    93    94    1
    56     3     4    2
    57     8     6    1
    58    11    12    2
    59    87    89   ar
    60    87    86   ar
    61    85    86    1
    62    89    91   ar
    63    86    88   ar
    64    91    90   ar
    65    88    90   ar
    66    94    95    2
    67    18    19    1
    68    23    22    1
    69    40    41    1
    70    41    44    1
    71    41    42    1
    72    46    48   ar
    73    46    45   ar
    74    19    22    1
    75    19    20    1
    76    48    50   ar
    77   142   141    2
    78    44    45    1
    79    43    42    2
    80   143   144    1
    81   143   140    1
    82    45    47   ar
    83    20    21    2
    84   145   144    1
    85   145   146    1
    86   146   147    1
    87   126   125   ar
    88   126   124   ar
    89   125   123   ar
    90   138   137    1
    91   135   137   ar
    92   135   133   ar
    93   141   140    1
    94    50    49   ar
    95   140   139    1
    96   137   136   ar
    97   133   132   ar
    98   124   122   ar
    99    47    49   ar
   100   123   121   ar
   101    38    37    1
   102    38    39    1
   103    36    35    2
   104    37    34    1
   105    35    34    1
   106   136   134   ar
   107   132   134   ar
   108   132   131    1
   109   122   121   ar
   110   130   129    2
   111   121   120    1
   112    34    33    1
   113   131   128    1
   114   128   129    1
   115   128   127    1
   116    39    33    1
   117   119   118    2
   118   127   118   am
   119   114   113    2
   120   118   117    1
   121   120   117    1
   122   117   116    1
   123   111   110    2
   124   113   112    1
   125   113   115   am
   126   112   109    1
   127   110   109    1
   128   109   108    1
   129    27    26    2
   130    26    25    1
   131   108   102   am
   132   103   102    2
   133   102   101    1
   134    30    29    1
   135    30    31    1
   136    25    28    1
   137    25    24    1
   138    29    28    1
   139    31    32    1
   140   104   101    1
   141   104   105    1
   142   101   100    1
   143   105   106    2
   144   105   107   am
