@<TRIPOS>MOLECULE
tmp/5zynA00.pdb
 107 99 0 0 0
SMALL
GASTEIGER

@<TRIPOS>ATOM
      1  N          6.8730   27.0520    8.6600 N.3    47  ALA47      -0.1231
      2  CA         8.2300   26.7980    9.1540 C.3    47  ALA47       0.1694
      3  C          8.3420   26.5310   10.6590 C.2    47  ALA47       0.2593
      4  O          7.8360   27.2930   11.4730 O.2    47  ALA47      -0.2718
      5  CB         9.1340   27.9800    8.7770 C.3    47  ALA47       0.0304
      6  N          9.0470   25.4660   11.0400 N.am   48  SER48      -0.1938
      7  CA         9.0770   25.0860   12.4500 C.3    48  SER48       0.2055
      8  C         10.4220   25.1230   13.2070 C.2    48  SER48       0.2644
      9  O         10.4000   25.0250   14.4160 O.2    48  SER48      -0.2714
     10  CB         8.4650   23.6700   12.6060 C.3    48  SER48       0.2130
     11  OG         8.9230   22.7740   11.5960 O.3    48  SER48      -0.2179
     12  N         11.5890   25.2650   12.5730 N.am   49  SER49      -0.1935
     13  CA        12.8130   25.1940   13.4080 C.3    49  SER49       0.2055
     14  C         13.3600   26.5450   13.9020 C.2    49  SER49       0.2643
     15  O         13.8190   26.6480   15.0480 O.2    49  SER49      -0.2714
     16  CB        13.9370   24.4320   12.6900 C.3    49  SER49       0.2130
     17  OG        13.9650   23.0520   13.0520 O.3    49  SER49      -0.2179
     18  N         13.3290   27.5660   13.0560 N.am   50  GLY50      -0.1954
     19  CA        13.6800   28.9020   13.4890 C.3    50  GLY50       0.1869
     20  C         14.5020   29.7200   12.5130 C.2    50  GLY50       0.2309
     21  O         14.6630   29.3550   11.3660 O.2    50  GLY50      -0.2863
     22  N         21.4760   23.3040   14.3620 N.3   116  LEU116     -0.1245
     23  CA        21.0300   22.4470   13.2710 C.3   116  LEU116      0.1561
     24  C         22.2240   21.8650   12.5290 C.2   116  LEU116      0.2260
     25  O         23.3730   22.1380   12.8790 O.2   116  LEU116     -0.2867
     26  CB        20.1040   23.2190   12.3270 C.3   116  LEU116      0.0270
     27  CG        18.8310   23.7090   13.0240 C.3   116  LEU116      0.0019
     28  CD1       17.8320   24.2790   12.0010 C.3   116  LEU116      0.0001
     29  CD2       18.1640   22.6290   13.8630 C.3   116  LEU116      0.0001
     30  N         15.2630   17.3690    2.0890 N.3   251  HIS251     -0.1241
     31  CA        15.3330   17.3420    3.5480 C.3   251  HIS251      0.1621
     32  C         15.2080   15.8800    3.9710 C.2   251  HIS251      0.2264
     33  O         14.3550   15.1650    3.4440 O.2   251  HIS251     -0.2867
     34  CB        14.2130   18.1910    4.1400 C.3   251  HIS251      0.0745
     35  CG        14.3600   18.5010    5.6020 C.ar  251  HIS251      0.0817
     36  ND1       14.4330   17.5230    6.5730 N.ar  251  HIS251     -0.2268
     37  CD2       14.3870   19.6880    6.2620 C.ar  251  HIS251      0.1154
     38  CE1       14.5240   18.0920    7.7630 C.ar  251  HIS251      0.1986
     39  NE2       14.4900   19.4060    7.6040 N.ar  251  HIS251     -0.2212
     40  N          6.6750   18.3310    7.9070 N.3   268  LEU268     -0.1245
     41  CA         8.1080   18.2280    8.1730 C.3   268  LEU268      0.1561
     42  C          8.4200   17.8110    9.6170 C.2   268  LEU268      0.2260
     43  O          7.8230   18.3390   10.5650 O.2   268  LEU268     -0.2867
     44  CB         8.7940   19.5720    7.8670 C.3   268  LEU268      0.0270
     45  CG        10.3150   19.6290    7.9830 C.3   268  LEU268      0.0019
     46  CD1       10.9900   18.6060    7.0710 C.3   268  LEU268      0.0001
     47  CD2       10.7820   21.0250    7.6220 C.3   268  LEU268      0.0001
     48  N         10.7390   18.6690   12.0400 N.3   270  ALA270     -0.1231
     49  CA        11.6790   19.7700   12.2380 C.3   270  ALA270      0.1694
     50  C         13.0750   19.2520   12.5590 C.2   270  ALA270      0.2591
     51  O         13.2460   18.3210   13.3600 O.2   270  ALA270     -0.2718
     52  CB        11.1910   20.6850   13.3370 C.3   270  ALA270      0.0304
     53  N         14.0800   19.8370   11.9200 N.am  271  GLU271     -0.1979
     54  CA        15.4560   19.4060   12.1700 C.3   271  GLU271      0.1602
     55  C         15.8480   19.6030   13.6330 C.2   271  GLU271      0.2287
     56  O         16.7050   18.8940   14.1530 O.2   271  GLU271     -0.2864
     57  CB        16.4110   20.1620   11.2400 C.3   271  GLU271      0.0415
     58  CG        17.8430   19.6850   11.2840 C.3   271  GLU271      0.1163
     59  CD        18.5400   19.8860    9.9570 C.2   271  GLU271      0.3649
     60  OE1       18.0960   19.2640    8.9650 O.co2 271  GLU271     -0.2457
     61  OE2       19.5090   20.6720    9.9000 O.co2 271  GLU271     -0.2457
     62  N         22.0140   18.5940    5.1240 N.3   296  ARG296     -0.1245
     63  CA        20.8630   17.8350    4.6340 C.3   296  ARG296      0.1563
     64  C         21.1700   16.9370    3.4440 C.2   296  ARG296      0.2260
     65  O         20.5790   15.8650    3.3110 O.2   296  ARG296     -0.2867
     66  CB        19.7230   18.7890    4.2870 C.3   296  ARG296      0.0307
     67  CG        19.0210   19.2370    5.5390 C.3   296  ARG296      0.0489
     68  CD        18.1010   20.4100    5.3290 C.3   296  ARG296      0.2205
     69  NE        17.6600   20.8730    6.6380 N.pl3 296  ARG296     -0.0865
     70  CZ        16.8660   21.9120    6.8550 C.cat 296  ARG296      0.5346
     71  NH1       16.3860   22.6480    5.8490 N.pl3 296  ARG296      0.1354
     72  NH2       16.5630   22.2130    8.1050 N.pl3 296  ARG296      0.1354
     73  N         12.2400   19.8880   -0.4800 N.3   405  HIS405     -0.1241
     74  CA        11.9820   20.8920    0.5580 C.3   405  HIS405      0.1621
     75  C         12.2570   22.3330    0.1280 C.2   405  HIS405      0.2264
     76  O         11.5130   23.2520    0.4870 O.2   405  HIS405     -0.2867
     77  CB        12.8260   20.5690    1.7990 C.3   405  HIS405      0.0745
     78  CG        12.5940   21.4870    2.9630 C.ar  405  HIS405      0.0817
     79  ND1       11.3470   21.6900    3.5130 N.ar  405  HIS405     -0.2268
     80  CD2       13.4540   22.2430    3.6870 C.ar  405  HIS405      0.1154
     81  CE1       11.4460   22.5390    4.5240 C.ar  405  HIS405      0.1986
     82  NE2       12.7160   22.8820    4.6550 N.ar  405  HIS405     -0.2212
     83  N         21.3840   24.5060    1.5100 N.3   447  ARG447     -0.1245
     84  CA        21.0200   25.5300    2.4500 C.3   447  ARG447      0.1563
     85  C         21.0890   25.0230    3.8870 C.2   447  ARG447      0.2260
     86  O         20.5500   23.9660    4.2060 O.2   447  ARG447     -0.2867
     87  CB        19.6200   26.0650    2.1580 C.3   447  ARG447      0.0307
     88  CG        19.2220   27.0400    3.2210 C.3   447  ARG447      0.0489
     89  CD        17.9830   27.7600    2.8820 C.3   447  ARG447      0.2205
     90  NE        16.7740   26.9460    2.9430 N.pl3 447  ARG447     -0.0865
     91  CZ        16.2210   26.4730    4.0540 C.cat 447  ARG447      0.5346
     92  NH1       16.7960   26.6710    5.2380 N.pl3 447  ARG447      0.1354
     93  NH2       15.0820   25.7900    3.9720 N.pl3 447  ARG447      0.1354
     94  N         19.8860   24.7960    7.5720 N.3   449  GLY449     -0.1210
     95  CA        18.6420   25.0030    8.2980 C.3   449  GLY449      0.1956
     96  C         18.6380   26.3200    9.0660 C.2   449  GLY449      0.2612
     97  O         19.6210   26.6970    9.6920 O.2   449  GLY449     -0.2717
     98  N         17.5280   27.0400    8.9870 N.am  450  GLY450     -0.1956
     99  CA        17.3880   28.3080    9.6870 C.3   450  GLY450      0.1869
    100  C         17.7160   29.5360    8.8420 C.2   450  GLY450      0.2309
    101  O         17.4330   30.6550    9.2460 O.2   450  GLY450     -0.2863
    102  N         16.7370   30.2080    5.6410 N.3   452  SER452     -0.1217
    103  CA        15.7990   30.6990    4.6410 C.3   452  SER452      0.1889
    104  C         14.8830   31.7660    5.2400 C.2   452  SER452      0.2288
    105  O         14.6680   32.7810    4.5880 O.2   452  SER452     -0.2866
    106  CB        14.9920   29.5820    4.0230 C.3   452  SER452      0.2089
    107  OG        14.1400   29.0420    4.9750 O.3   452  SER452     -0.2183
@<TRIPOS>BOND
     1    73    74    1
     2    75    76    2
     3    75    74    1
     4    74    77    1
     5    83    84    1
     6    77    78    1
     7    30    31    1
     8    87    84    1
     9    87    88    1
    10    84    85    1
    11    89    90    1
    12    89    88    1
    13    90    91    2
    14    78    79   ar
    15    78    80   ar
    16    65    64    2
    17    33    32    2
    18    64    63    1
    19    79    81   ar
    20    31    32    1
    21    31    34    1
    22    80    82   ar
    23    85    86    2
    24    93    91    1
    25   106   103    1
    26   106   107    1
    27    91    92    1
    28    34    35    1
    29    66    63    1
    30    66    67    1
    31    81    82   ar
    32   105   104    2
    33    63    62    1
    34   103   104    1
    35   103   102    1
    36    68    67    1
    37    68    69    1
    38    35    37   ar
    39    35    36   ar
    40    71    70    1
    41    37    39   ar
    42    36    38   ar
    43    69    70    2
    44    70    72    1
    45    46    45    1
    46    94    95    1
    47    39    38   ar
    48    47    45    1
    49    44    45    1
    50    44    41    1
    51    40    41    1
    52    41    42    1
    53    95    96    1
    54     1     2    1
    55     5     2    1
    56   100   101    2
    57   100    99    1
    58    60    59   ar
    59    98    96   am
    60    98    99    1
    61    96    97    2
    62     2     3    1
    63    42    43    2
    64    61    59   ar
    65    59    58    1
    66     3     6   am
    67     3     4    2
    68     6     7    1
    69    57    58    1
    70    57    54    1
    71    21    20    2
    72    11    10    1
    73    53    54    1
    74    53    50   am
    75    28    27    1
    76    48    49    1
    77    54    55    1
    78    49    50    1
    79    49    52    1
    80    26    27    1
    81    26    23    1
    82     7    10    1
    83     7     8    1
    84    20    19    1
    85    24    25    2
    86    24    23    1
    87    50    51    2
    88    12     8   am
    89    12    13    1
    90    16    17    1
    91    16    13    1
    92    27    29    1
    93    18    19    1
    94    18    14   am
    95     8     9    2
    96    23    22    1
    97    13    14    1
    98    55    56    2
    99    14    15    2
