@<TRIPOS>MOLECULE
tmp/5zywA00.pdb
 99 95 0 0 0
SMALL
GASTEIGER

@<TRIPOS>ATOM
      1  N          1.4060   24.9560   -9.6700 N.3    32  THR32      -0.1218
      2  CA         2.0570   24.6000   -8.4000 C.3    32  THR32       0.1862
      3  C          3.5140   25.0480   -8.3140 C.2    32  THR32       0.2287
      4  O          3.9830   25.3680   -7.2270 O.2    32  THR32      -0.2866
      5  CB         1.9700   23.0940   -8.1050 C.3    32  THR32       0.1770
      6  OG1        2.4430   22.3500   -9.2300 O.3    32  THR32      -0.2211
      7  CG2        0.5360   22.6930   -7.8030 C.3    32  THR32       0.0375
      8  N         -6.0270   10.4840   -4.9890 N.3    78  HIS78      -0.1241
      9  CA        -6.3580   11.1140   -6.2660 C.3    78  HIS78       0.1621
     10  C         -6.6310   10.1180   -7.3710 C.2    78  HIS78       0.2264
     11  O         -7.5460   10.3260   -8.1590 O.2    78  HIS78      -0.2867
     12  CB        -5.2700   12.1040   -6.6910 C.3    78  HIS78       0.0745
     13  CG        -5.3670   13.4110   -5.9760 C.ar   78  HIS78       0.0817
     14  ND1       -4.9740   13.5750   -4.6670 N.ar   78  HIS78      -0.2268
     15  CD2       -5.8640   14.6030   -6.3730 C.ar   78  HIS78       0.1154
     16  CE1       -5.2010   14.8210   -4.2980 C.ar   78  HIS78       0.1986
     17  NE2       -5.7390   15.4630   -5.3150 N.ar   78  HIS78      -0.2212
     18  N         -7.8770   18.6810  -10.9650 N.3   127  ASP127     -0.1239
     19  CA        -8.3610   17.3790  -10.5190 C.3   127  ASP127      0.1674
     20  C         -9.6570   16.9980  -11.2050 C.2   127  ASP127      0.2266
     21  O         -9.7970   15.8720  -11.6930 O.2   127  ASP127     -0.2867
     22  CB        -8.6070   17.3530   -9.0070 C.3   127  ASP127      0.1410
     23  CG        -7.3370   17.3070   -8.1900 C.2   127  ASP127      0.3668
     24  OD1       -6.2510   16.9980   -8.7220 O.co2 127  ASP127     -0.2456
     25  OD2       -7.4490   17.5630   -6.9770 O.co2 127  ASP127     -0.2456
     26  N        -10.8010   20.7890   -6.4080 N.3   140  ASP140     -0.1225
     27  CA        -9.5060   20.2100   -6.0640 C.3   140  ASP140      0.1805
     28  C         -9.5840   19.4880   -4.7260 C.2   140  ASP140      0.2598
     29  O         -9.8650   20.0890   -3.6830 O.2   140  ASP140     -0.2718
     30  CB        -8.3850   21.2520   -6.0600 C.3   140  ASP140      0.1424
     31  CG        -7.0100   20.6210   -6.2750 C.2   140  ASP140      0.3668
     32  OD1       -6.5290   19.9170   -5.3700 O.co2 140  ASP140     -0.2456
     33  OD2       -6.4150   20.8020   -7.3550 O.co2 140  ASP140     -0.2456
     34  N         -9.3030   18.1910   -4.7820 N.am  141  TRP141     -0.1962
     35  CA        -9.3500   17.3200   -3.6220 C.3   141  TRP141      0.1771
     36  C         -8.0570   17.5540   -2.8540 C.2   141  TRP141      0.2619
     37  O         -6.9930   17.7120   -3.4620 O.2   141  TRP141     -0.2715
     38  CB        -9.4700   15.8450   -4.0360 C.3   141  TRP141      0.0590
     39  CG       -10.4500   15.6030   -5.1530 C.ar  141  TRP141      0.0006
     40  CD1      -10.1530   15.3450   -6.4620 C.ar  141  TRP141      0.0946
     41  CD2      -11.8740   15.6110   -5.0590 C.ar  141  TRP141      0.0152
     42  NE1      -11.3070   15.1930   -7.1920 N.ar  141  TRP141     -0.2442
     43  CE2      -12.3800   15.3470   -6.3540 C.ar  141  TRP141      0.0810
     44  CE3      -12.7760   15.8120   -4.0070 C.ar  141  TRP141      0.0012
     45  CZ2      -13.7540   15.2820   -6.6260 C.ar  141  TRP141      0.0191
     46  CZ3      -14.1470   15.7440   -4.2790 C.ar  141  TRP141      0.0001
     47  CH2      -14.6170   15.4840   -5.5800 C.ar  141  TRP141      0.0015
     48  N         -8.1670   17.5960   -1.5290 N.am  142  LYS142     -0.1977
     49  CA        -7.0210   17.7240   -0.6430 C.3   142  LYS142      0.1596
     50  C         -7.1030   16.6910    0.4660 C.2   142  LYS142      0.2287
     51  O         -8.1890   16.3600    0.9260 O.2   142  LYS142     -0.2864
     52  CB        -6.9570   19.1290   -0.0350 C.3   142  LYS142      0.0298
     53  CG        -6.7800   20.2590   -1.0410 C.3   142  LYS142      0.0038
     54  CD        -5.4350   20.1970   -1.7450 C.3   142  LYS142      0.0206
     55  CE        -5.2950   21.2890   -2.7940 C.3   142  LYS142      0.1093
     56  NZ        -4.1470   21.0110   -3.7010 N.3   142  LYS142     -0.1314
     57  N          0.4320   16.2060    1.2270 N.3   147  PRO147     -0.2102
     58  CA         1.3180   15.2730    0.5370 C.3   147  PRO147      0.1504
     59  C          2.7630   15.7720    0.3310 C.2   147  PRO147      0.2575
     60  O          3.6760   14.9420    0.2490 O.2   147  PRO147     -0.2718
     61  CB         0.6160   15.0550   -0.8060 C.3   147  PRO147      0.0282
     62  CG        -0.1600   16.3030   -1.0290 C.3   147  PRO147      0.0208
     63  CD        -0.5940   16.7640    0.3250 C.3   147  PRO147      0.0893
     64  N          2.9580   17.0910    0.2270 N.am  148  LYS148     -0.1980
     65  CA         4.2960   17.6980    0.1560 C.3   148  LYS148      0.1596
     66  C          4.3600   18.8140    1.2100 C.2   148  LYS148      0.2287
     67  O          4.3570   20.0060    0.8850 O.2   148  LYS148     -0.2864
     68  CB         4.6030   18.1950   -1.2620 C.3   148  LYS148      0.0298
     69  CG         4.7450   17.0520   -2.2590 C.3   148  LYS148      0.0038
     70  CD         5.1150   17.5130   -3.6610 C.3   148  LYS148      0.0206
     71  CE         3.9060   17.9700   -4.4600 C.3   148  LYS148      0.1093
     72  NZ         4.3170   18.5440   -5.7720 N.3   148  LYS148     -0.1314
     73  N          4.4430   23.2670    0.5190 N.3   152  GLN152     -0.1245
     74  CA         3.0560   23.6060    0.1950 C.3   152  GLN152      0.1566
     75  C          2.4690   24.3490    1.3610 C.2   152  GLN152      0.2260
     76  O          2.7760   24.0390    2.5060 O.2   152  GLN152     -0.2867
     77  CB         2.1960   22.3530    0.0380 C.3   152  GLN152      0.0367
     78  CG         2.4120   21.5090   -1.2010 C.3   152  GLN152      0.0905
     79  CD         1.5040   20.2840   -1.1900 C.2   152  GLN152      0.2608
     80  OE1        1.3350   19.6140   -0.1520 O.2   152  GLN152     -0.2717
     81  NE2        0.9060   19.9870   -2.3400 N.am  152  GLN152     -0.0878
     82  N         -4.6990   28.1470   -6.2480 N.3   160  GLN160     -0.1245
     83  CA        -4.5170   27.0330   -7.1820 C.3   160  GLN160      0.1566
     84  C         -5.7880   26.7650   -7.9800 C.2   160  GLN160      0.2260
     85  O         -5.7230   26.4950   -9.1850 O.2   160  GLN160     -0.2867
     86  CB        -4.1010   25.7610   -6.4340 C.3   160  GLN160      0.0367
     87  CG        -3.9680   24.5240   -7.3160 C.3   160  GLN160      0.0905
     88  CD        -3.5500   23.2780   -6.5540 C.2   160  GLN160      0.2608
     89  OE1       -3.6230   23.2220   -5.3250 O.2   160  GLN160     -0.2717
     90  NE2       -3.1350   22.2620   -7.2870 N.am  160  GLN160     -0.0878
     91  N          1.7020   19.6470  -11.6140 N.3   233  GLU233     -0.1245
     92  CA         0.2850   19.9910  -11.6530 C.3   233  GLU233      0.1567
     93  C          0.0400   21.4910  -11.5290 C.2   233  GLU233      0.2260
     94  O         -1.0390   21.9490  -11.8750 O.2   233  GLU233     -0.2867
     95  CB        -0.4830   19.2330  -10.5690 C.3   233  GLU233      0.0388
     96  CG        -0.3640   17.7190  -10.7180 C.3   233  GLU233      0.1160
     97  CD        -1.3630   16.9380   -9.8790 C.2   233  GLU233      0.3649
     98  OE1       -1.3960   15.7040  -10.0160 O.co2 233  GLU233     -0.2457
     99  OE2       -2.1230   17.5370   -9.0990 O.co2 233  GLU233     -0.2457
@<TRIPOS>BOND
     1    94    93    2
     2    21    20    2
     3    92    91    1
     4    92    93    1
     5    92    95    1
     6    20    19    1
     7    18    19    1
     8    96    95    1
     9    96    97    1
    10    19    22    1
    11    98    97   ar
    12    97    99   ar
    13     1     2    1
    14     6     5    1
    15    85    84    2
    16    22    23    1
    17    24    23   ar
    18     2     3    1
    19     2     5    1
    20     3     4    2
    21    23    25   ar
    22    11    10    2
    23     5     7    1
    24    84    83    1
    25    10     9    1
    26    33    31   ar
    27    87    88    1
    28    87    86    1
    29    90    88   am
    30    42    40   ar
    31    42    43   ar
    32    83    86    1
    33    83    82    1
    34    12     9    1
    35    12    13    1
    36    45    43   ar
    37    45    47   ar
    38    88    89    2
    39    40    39   ar
    40    26    27    1
    41    15    13   ar
    42    15    17   ar
    43    43    41   ar
    44    31    30    1
    45    31    32   ar
    46     9     8    1
    47    27    30    1
    48    27    28    1
    49    13    14   ar
    50    72    71    1
    51    47    46   ar
    52    17    16   ar
    53    39    41   ar
    54    39    38    1
    55    41    44   ar
    56    34    28   am
    57    34    35    1
    58    28    29    2
    59    14    16   ar
    60    71    70    1
    61    46    44   ar
    62    38    35    1
    63    56    55    1
    64    70    69    1
    65    35    36    1
    66    37    36    2
    67    36    48   am
    68    55    54    1
    69    81    79   am
    70    69    68    1
    71    54    53    1
    72    48    49    1
    73    68    65    1
    74    78    79    1
    75    78    77    1
    76    79    80    2
    77    53    52    1
    78    62    61    1
    79    62    63    1
    80    61    58    1
    81    49    52    1
    82    49    50    1
    83    77    74    1
    84    65    64    1
    85    65    66    1
    86    74    73    1
    87    74    75    1
    88    64    59   am
    89    60    59    2
    90    63    57    1
    91    59    58    1
    92    50    51    2
    93    58    57    1
    94    67    66    2
    95    75    76    2
