@<TRIPOS>MOLECULE
tmp/5zz2A00.pdb
 151 145 0 0 0
SMALL
GASTEIGER

@<TRIPOS>ATOM
      1  N         37.5370  -38.6330  -33.1750 N.3    78  TYR78      -0.1227
      2  CA        37.3700  -37.2230  -32.8180 C.3    78  TYR78       0.1736
      3  C         36.1390  -36.9050  -31.9450 C.2    78  TYR78       0.2595
      4  O         36.2680  -36.2130  -30.9240 O.2    78  TYR78      -0.2718
      5  CB        37.3410  -36.3670  -34.0820 C.3    78  TYR78       0.0548
      6  CG        37.2650  -34.9010  -33.7720 C.ar   78  TYR78      -0.0200
      7  CD1       38.3090  -34.2640  -33.1220 C.ar   78  TYR78      -0.0009
      8  CD2       36.1370  -34.1550  -34.0990 C.ar   78  TYR78      -0.0009
      9  CE1       38.2490  -32.9170  -32.8180 C.ar   78  TYR78       0.0417
     10  CE2       36.0690  -32.8020  -33.8030 C.ar   78  TYR78       0.0417
     11  CZ        37.1330  -32.1890  -33.1620 C.ar   78  TYR78       0.1957
     12  OH        37.0850  -30.8510  -32.8530 O.3    78  TYR78      -0.2866
     13  N         34.9540  -37.3710  -32.3540 N.am   79  HIS79      -0.1975
     14  CA        33.7130  -37.0890  -31.6050 C.3    79  HIS79       0.1656
     15  C         33.6420  -37.9620  -30.3560 C.2    79  HIS79       0.2291
     16  O         32.9340  -38.9700  -30.3220 O.2    79  HIS79      -0.2864
     17  CB        32.4650  -37.2600  -32.4780 C.3    79  HIS79       0.0771
     18  CG        32.3710  -36.2540  -33.5780 C.ar   79  HIS79       0.0820
     19  ND1       32.5830  -36.5730  -34.9010 N.ar   79  HIS79      -0.2267
     20  CD2       32.1260  -34.9240  -33.5480 C.ar   79  HIS79       0.1154
     21  CE1       32.4600  -35.4880  -35.6400 C.ar   79  HIS79       0.1986
     22  NE2       32.1810  -34.4740  -34.8430 N.ar   79  HIS79      -0.2212
     23  N         25.0170  -28.2760  -37.8120 N.3   181  LEU181     -0.1245
     24  CA        25.4950  -27.2410  -38.7350 C.3   181  LEU181      0.1561
     25  C         24.4370  -26.7760  -39.7320 C.2   181  LEU181      0.2260
     26  O         24.4440  -25.6170  -40.1310 O.2   181  LEU181     -0.2867
     27  CB        26.7600  -27.7000  -39.4570 C.3   181  LEU181      0.0270
     28  CG        27.9850  -27.7410  -38.5360 C.3   181  LEU181      0.0019
     29  CD1       29.0710  -28.6240  -39.1270 C.3   181  LEU181      0.0001
     30  CD2       28.5170  -26.3400  -38.2530 C.3   181  LEU181      0.0001
     31  N         32.1710  -25.3500  -30.5960 N.3   220  ASP220     -0.1225
     32  CA        32.1390  -26.6740  -31.2390 C.3   220  ASP220      0.1805
     33  C         33.2200  -26.7860  -32.3300 C.2   220  ASP220      0.2597
     34  O         33.9240  -27.7880  -32.4050 O.2   220  ASP220     -0.2718
     35  CB        30.7260  -26.9280  -31.8100 C.3   220  ASP220      0.1424
     36  CG        30.5000  -28.3520  -32.2990 C.2   220  ASP220      0.3668
     37  OD1       31.2100  -29.2980  -31.9140 O.co2 220  ASP220     -0.2456
     38  OD2       29.5410  -28.5270  -33.0750 O.co2 220  ASP220     -0.2456
     39  N         33.3740  -25.7390  -33.1380 N.am  221  LEU221     -0.1979
     40  CA        34.3550  -25.7370  -34.2270 C.3   221  LEU221      0.1596
     41  C         35.7430  -25.1800  -33.8690 C.2   221  LEU221      0.2287
     42  O         36.6020  -25.1470  -34.7420 O.2   221  LEU221     -0.2864
     43  CB        33.8010  -24.9500  -35.4190 C.3   221  LEU221      0.0297
     44  CG        32.4230  -25.3750  -35.9200 C.3   221  LEU221      0.0022
     45  CD1       32.0420  -24.4750  -37.0780 C.3   221  LEU221      0.0001
     46  CD2       32.3820  -26.8490  -36.3180 C.3   221  LEU221      0.0001
     47  N         38.5400  -26.0300  -32.5780 N.3   223  ALA223     -0.1231
     48  CA        39.7730  -26.7160  -32.9460 C.3   223  ALA223      0.1694
     49  C         40.4510  -26.1230  -34.1940 C.2   223  ALA223      0.2591
     50  O         41.6700  -26.2410  -34.3600 O.2   223  ALA223     -0.2718
     51  CB        39.5060  -28.1850  -33.1520 C.3   223  ALA223      0.0304
     52  N         39.6480  -25.4920  -35.0530 N.am  224  ILE224     -0.1980
     53  CA        40.1250  -24.8010  -36.2540 C.3   224  ILE224      0.1595
     54  C         40.8940  -23.4980  -35.9390 C.2   224  ILE224      0.2287
     55  O         41.5770  -22.9590  -36.8080 O.2   224  ILE224     -0.2864
     56  CB        38.9410  -24.5670  -37.2480 C.3   224  ILE224      0.0276
     57  CG1       39.4330  -24.3940  -38.6890 C.3   224  ILE224      0.0022
     58  CG2       38.0860  -23.3790  -36.8330 C.3   224  ILE224      0.0022
     59  CD1       40.0840  -25.6260  -39.2850 C.3   224  ILE224      0.0001
     60  N         46.2530  -27.6280  -34.2900 N.3   231  GLN231     -0.1245
     61  CA        45.3240  -27.7350  -35.4360 C.3   231  GLN231      0.1566
     62  C         45.6100  -28.9260  -36.3680 C.2   231  GLN231      0.2260
     63  O         44.6860  -29.6410  -36.7370 O.2   231  GLN231     -0.2867
     64  CB        45.3100  -26.4010  -36.2270 C.3   231  GLN231      0.0367
     65  CG        44.9280  -26.4540  -37.7130 C.3   231  GLN231      0.0905
     66  CD        43.5550  -27.0250  -38.0060 C.2   231  GLN231      0.2608
     67  OE1       43.3150  -27.5110  -39.1090 O.2   231  GLN231     -0.2717
     68  NE2       42.6430  -26.9580  -37.0490 N.am  231  GLN231     -0.0878
     69  N         44.5740  -32.2040  -34.6280 N.3   234  ILE234     -0.1231
     70  CA        43.1180  -32.2750  -34.5370 C.3   234  ILE234      0.1692
     71  C         42.4950  -32.5120  -35.9180 C.2   234  ILE234      0.2591
     72  O         41.5220  -33.2560  -36.0310 O.2   234  ILE234     -0.2718
     73  CB        42.4970  -31.0250  -33.8600 C.3   234  ILE234      0.0266
     74  CG1       42.9990  -30.8620  -32.4180 C.3   234  ILE234      0.0019
     75  CG2       40.9770  -31.1630  -33.8110 C.3   234  ILE234      0.0020
     76  CD1       42.7550  -29.4850  -31.8400 C.3   234  ILE234      0.0001
     77  N         43.0620  -31.8990  -36.9570 N.am  235  ALA235     -0.1980
     78  CA        42.6880  -32.2010  -38.3490 C.3   235  ALA235      0.1597
     79  C         42.9220  -33.6730  -38.6920 C.2   235  ALA235      0.2287
     80  O         42.1080  -34.3040  -39.3670 O.2   235  ALA235     -0.2864
     81  CB        43.4560  -31.3080  -39.3140 C.3   235  ALA235      0.0319
     82  N         40.1080  -35.7720  -37.0800 N.3   238  VAL238     -0.1231
     83  CA        38.8970  -35.6020  -37.8820 C.3   238  VAL238      0.1692
     84  C         38.9890  -36.5140  -39.1060 C.2   238  VAL238      0.2591
     85  O         38.0850  -37.3010  -39.3620 O.2   238  VAL238     -0.2718
     86  CB        38.6810  -34.1240  -38.3070 C.3   238  VAL238      0.0266
     87  CG1       37.5540  -33.9950  -39.3250 C.3   238  VAL238      0.0020
     88  CG2       38.3870  -33.2300  -37.1010 C.3   238  VAL238      0.0020
     89  N         40.1100  -36.4280  -39.8220 N.am  239  ALA239     -0.1980
     90  CA        40.3800  -37.2680  -40.9990 C.3   239  ALA239      0.1597
     91  C         40.3020  -38.7710  -40.7370 C.2   239  ALA239      0.2287
     92  O         39.7950  -39.5080  -41.5770 O.2   239  ALA239     -0.2864
     93  CB        41.7390  -36.9220  -41.5980 C.3   239  ALA239      0.0319
     94  N         36.4900  -39.4110  -40.5030 N.3   242  PHE242     -0.1227
     95  CA        35.8600  -39.2190  -41.8270 C.3   242  PHE242      0.1736
     96  C         36.2420  -40.3050  -42.8440 C.2   242  PHE242      0.2595
     97  O         35.4190  -40.6660  -43.6800 O.2   242  PHE242     -0.2718
     98  CB        36.1920  -37.8320  -42.4150 C.3   242  PHE242      0.0547
     99  CG        35.2760  -36.7200  -41.9450 C.ar  242  PHE242     -0.0202
    100  CD1       35.1220  -36.4350  -40.5820 C.ar  242  PHE242     -0.0042
    101  CD2       34.5830  -35.9310  -42.8700 C.ar  242  PHE242     -0.0042
    102  CE1       34.2850  -35.4080  -40.1550 C.ar  242  PHE242     -0.0003
    103  CE2       33.7480  -34.9030  -42.4460 C.ar  242  PHE242     -0.0003
    104  CZ        33.5990  -34.6410  -41.0870 C.ar  242  PHE242     -0.0000
    105  N         37.4790  -40.8070  -42.7740 N.am  243  PHE243     -0.1976
    106  CA        37.9580  -41.8680  -43.6710 C.3   243  PHE243      0.1639
    107  C         37.8230  -43.2560  -43.0560 C.2   243  PHE243      0.2290
    108  O         36.9830  -44.0520  -43.4730 O.2   243  PHE243     -0.2864
    109  CB        39.4450  -41.6740  -44.0420 C.3   243  PHE243      0.0560
    110  CG        39.7530  -40.4430  -44.8570 C.ar  243  PHE243     -0.0200
    111  CD1       38.8060  -39.8340  -45.6910 C.ar  243  PHE243     -0.0042
    112  CD2       41.0450  -39.9210  -44.8290 C.ar  243  PHE243     -0.0042
    113  CE1       39.1390  -38.7140  -46.4420 C.ar  243  PHE243     -0.0003
    114  CE2       41.3810  -38.8060  -45.5810 C.ar  243  PHE243     -0.0003
    115  CZ        40.4280  -38.2050  -46.3930 C.ar  243  PHE243     -0.0000
    116  N         43.4180  -33.0340  -48.4230 N.3   252  ILE252     -0.1245
    117  CA        43.1110  -32.4930  -47.0840 C.3   252  ILE252      0.1561
    118  C         43.3270  -30.9790  -46.9620 C.2   252  ILE252      0.2260
    119  O         42.4420  -30.2910  -46.4680 O.2   252  ILE252     -0.2867
    120  CB        43.8370  -33.2810  -45.9500 C.3   252  ILE252      0.0252
    121  CG1       43.1330  -34.6240  -45.7290 C.3   252  ILE252      0.0019
    122  CG2       43.8700  -32.5020  -44.6320 C.3   252  ILE252      0.0019
    123  CD1       43.9460  -35.6530  -44.9680 C.3   252  ILE252      0.0001
    124  N         40.4290  -28.9130  -48.5600 N.3   255  MET255     -0.1230
    125  CA        39.2120  -29.0440  -47.8100 C.3   255  MET255      0.1702
    126  C         39.1940  -28.2020  -46.5800 C.2   255  MET255      0.2592
    127  O         38.1740  -27.7260  -46.1750 O.2   255  MET255     -0.2718
    128  CB        39.0470  -30.4660  -47.3770 C.3   255  MET255      0.0401
    129  CG        38.7830  -31.3650  -48.5330 C.3   255  MET255      0.0596
    130  SD        38.8810  -33.0520  -48.0270 S.3   255  MET255     -0.1393
    131  CE        37.6400  -33.7260  -49.0900 C.3   255  MET255      0.0692
    132  N         40.3420  -28.0510  -45.9750 N.am  256  GLN256     -0.1979
    133  CA        40.4660  -27.2810  -44.7830 C.3   256  GLN256      0.1601
    134  C         40.3040  -25.8200  -45.0790 C.2   256  GLN256      0.2287
    135  O         39.9010  -25.0780  -44.2360 O.2   256  GLN256     -0.2864
    136  CB        41.8150  -27.5390  -44.1590 C.3   256  GLN256      0.0394
    137  CG        42.0740  -28.9570  -43.7570 C.3   256  GLN256      0.0908
    138  CD        41.3070  -29.3590  -42.5370 C.2   256  GLN256      0.2608
    139  OE1       40.6400  -30.3560  -42.5270 O.2   256  GLN256     -0.2717
    140  NE2       41.3980  -28.5810  -41.5120 N.am  256  GLN256     -0.0878
    141  N         36.4650  -25.5040  -45.7680 N.3   259  PHE259     -0.1241
    142  CA        35.7420  -25.4890  -44.4940 C.3   259  PHE259      0.1605
    143  C         35.8900  -24.1640  -43.7530 C.2   259  PHE259      0.2264
    144  O         34.9240  -23.6630  -43.1700 O.2   259  PHE259     -0.2867
    145  CB        36.2290  -26.6350  -43.6100 C.3   259  PHE259      0.0534
    146  CG        35.4900  -26.7520  -42.3120 C.ar  259  PHE259     -0.0203
    147  CD1       34.1530  -27.1270  -42.2960 C.ar  259  PHE259     -0.0042
    148  CD2       36.1250  -26.4830  -41.1020 C.ar  259  PHE259     -0.0042
    149  CE1       33.4590  -27.2310  -41.1030 C.ar  259  PHE259     -0.0003
    150  CE2       35.4350  -26.5940  -39.9020 C.ar  259  PHE259     -0.0003
    151  CZ        34.0950  -26.9630  -39.9050 C.ar  259  PHE259     -0.0000
@<TRIPOS>BOND
     1   131   130    1
     2   124   125    1
     3   129   130    1
     4   129   128    1
     5   116   117    1
     6   125   128    1
     7   125   126    1
     8   117   118    1
     9   117   120    1
    10   118   119    2
    11   126   127    2
    12   126   132   am
    13   113   115   ar
    14   113   111   ar
    15   115   114   ar
    16   132   133    1
    17   120   121    1
    18   120   122    1
    19   141   142    1
    20   121   123    1
    21   111   110   ar
    22   114   112   ar
    23   134   133    1
    24   134   135    2
    25   110   112   ar
    26   110   109    1
    27   133   136    1
    28   142   143    1
    29   142   145    1
    30   136   137    1
    31   109   106    1
    32   137   138    1
    33   143   144    2
    34    97    96    2
    35   106   107    1
    36   106   105    1
    37   145   146    1
    38   108   107    2
    39   101   103   ar
    40   101    99   ar
    41    96   105   am
    42    96    95    1
    43   138   139    2
    44   138   140   am
    45   103   104   ar
    46    98    99    1
    47    98    95    1
    48   146   147   ar
    49   146   148   ar
    50   147   149   ar
    51    99   100   ar
    52    95    94    1
    53    93    90    1
    54    92    91    2
    55   149   151   ar
    56   148   150   ar
    57   104   102   ar
    58    90    91    1
    59    90    89    1
    60   100   102   ar
    61    26    25    2
    62   151   150   ar
    63    89    84   am
    64    25    24    1
    65    27    24    1
    66    27    28    1
    67    80    79    2
    68    85    84    2
    69    87    86    1
    70    81    78    1
    71    59    57    1
    72    29    28    1
    73    67    66    2
    74    84    83    1
    75    24    23    1
    76    79    78    1
    77    57    56    1
    78    28    30    1
    79    78    77    1
    80    86    83    1
    81    86    88    1
    82    66    65    1
    83    66    68   am
    84    83    82    1
    85    65    64    1
    86    56    58    1
    87    56    53    1
    88    45    44    1
    89    77    71   am
    90    55    54    2
    91    63    62    2
    92    62    61    1
    93    46    44    1
    94    53    54    1
    95    53    52    1
    96    64    61    1
    97    72    71    2
    98    44    43    1
    99    71    70    1
   100    21    19   ar
   101    21    22   ar
   102    61    60    1
   103    43    40    1
   104    52    49   am
   105    19    18   ar
   106    22    20   ar
   107    42    41    2
   108    69    70    1
   109    70    73    1
   110    50    49    2
   111    40    41    1
   112    40    39    1
   113    49    48    1
   114     8    10   ar
   115     8     6   ar
   116     5     6    1
   117     5     2    1
   118    73    75    1
   119    73    74    1
   120    10    11   ar
   121     6     7   ar
   122    18    20   ar
   123    18    17    1
   124     1     2    1
   125    11    12    1
   126    11     9   ar
   127    51    48    1
   128    39    33   am
   129     7     9   ar
   130    38    36   ar
   131    48    47    1
   132     2     3    1
   133    17    14    1
   134    74    76    1
   135    34    33    2
   136    13     3   am
   137    13    14    1
   138    33    32    1
   139    36    37   ar
   140    36    35    1
   141     3     4    2
   142    35    32    1
   143    14    15    1
   144    32    31    1
   145    15    16    2
