@<TRIPOS>MOLECULE
tmp/5zz6C00.pdb
 141 135 0 0 0
SMALL
GASTEIGER

@<TRIPOS>ATOM
      1  N         -8.2250    5.1840  -19.8740 N.3    82  VAL82      -0.1231
      2  CA        -8.3030    5.5350  -18.4600 C.3    82  VAL82       0.1692
      3  C         -9.7580    5.4230  -18.0300 C.2    82  VAL82       0.2592
      4  O        -10.6220    6.1560  -18.5260 O.2    82  VAL82      -0.2718
      5  CB        -7.7490    6.9410  -18.1820 C.3    82  VAL82       0.0266
      6  CG1       -7.7510    7.2070  -16.6890 C.3    82  VAL82       0.0020
      7  CG2       -6.3470    7.0770  -18.7420 C.3    82  VAL82       0.0020
      8  N        -10.0280    4.5060  -17.1100 N.am   83  GLY83      -0.1957
      9  CA       -11.3850    4.2380  -16.6840 C.3    83  GLY83       0.1869
     10  C        -11.8580    2.8960  -17.1920 C.2    83  GLY83       0.2309
     11  O        -12.0870    2.7290  -18.3910 O.2    83  GLY83      -0.2863
     12  N        -14.7390    1.3480  -16.6160 N.3    85  GLY85      -0.1210
     13  CA       -16.1740    1.1950  -16.4890 C.3    85  GLY85       0.1956
     14  C        -16.7880    0.6200  -17.7490 C.2    85  GLY85       0.2612
     15  O        -16.1170   -0.0250  -18.5590 O.2    85  GLY85      -0.2717
     16  N        -18.0920    0.8700  -17.9230 N.am   86  ASN86      -0.1960
     17  CA       -18.7960    0.3280  -19.0870 C.3    86  ASN86       0.1819
     18  C        -18.1530    0.7840  -20.3880 C.2    86  ASN86       0.2621
     19  O        -17.8370   -0.0350  -21.2580 O.2    86  ASN86      -0.2715
     20  CB       -20.2670    0.7400  -19.0710 C.3    86  ASN86       0.1195
     21  CG       -21.0360    0.0880  -17.9600 C.2    86  ASN86       0.2630
     22  OD1      -21.5430    0.7640  -17.0660 O.2    86  ASN86      -0.2716
     23  ND2      -21.1320   -1.2360  -18.0050 N.am   86  ASN86      -0.0877
     24  N        -17.9630    2.0930  -20.5450 N.am   87  ILE87      -0.1963
     25  CA       -17.4660    2.6150  -21.8140 C.3    87  ILE87       0.1727
     26  C        -16.0150    2.2040  -22.0310 C.2    87  ILE87       0.2616
     27  O        -15.6500    1.7090  -23.1030 O.2    87  ILE87      -0.2715
     28  CB       -17.6370    4.1400  -21.8700 C.3    87  ILE87       0.0290
     29  CG1      -19.1270    4.4940  -21.8680 C.3    87  ILE87       0.0022
     30  CG2      -16.9260    4.6990  -23.0940 C.3    87  ILE87       0.0023
     31  CD1      -19.4060    5.9730  -21.8550 C.3    87  ILE87       0.0001
     32  N        -15.1710    2.3990  -21.0140 N.am   88  GLY88      -0.1955
     33  CA       -13.7730    2.0230  -21.1430 C.3    88  GLY88       0.1869
     34  C        -13.5940    0.5560  -21.4790 C.2    88  GLY88       0.2309
     35  O        -12.7810    0.2020  -22.3370 O.2    88  GLY88      -0.2863
     36  N         -6.5220    1.5630  -17.2900 N.3   108  PHE108     -0.1227
     37  CA        -6.2060    1.9930  -15.9420 C.3   108  PHE108      0.1736
     38  C         -7.4790    2.3430  -15.1900 C.2   108  PHE108      0.2595
     39  O         -8.4650    2.8040  -15.7760 O.2   108  PHE108     -0.2718
     40  CB        -5.2390    3.1820  -15.9660 C.3   108  PHE108      0.0547
     41  CG        -3.9490    2.8800  -16.6750 C.ar  108  PHE108     -0.0202
     42  CD1       -3.8380    3.0510  -18.0470 C.ar  108  PHE108     -0.0042
     43  CD2       -2.8580    2.3930  -15.9740 C.ar  108  PHE108     -0.0042
     44  CE1       -2.6600    2.7570  -18.7010 C.ar  108  PHE108     -0.0003
     45  CE2       -1.6760    2.0980  -16.6240 C.ar  108  PHE108     -0.0003
     46  CZ        -1.5790    2.2810  -17.9900 C.ar  108  PHE108     -0.0000
     47  N         -7.4490    2.1010  -13.8820 N.am  109  ASP109     -0.1960
     48  CA        -8.5620    2.4530  -13.0120 C.3   109  ASP109      0.1840
     49  C         -8.0280    2.6440  -11.6010 C.2   109  ASP109      0.2623
     50  O         -6.9490    2.1550  -11.2540 O.2   109  ASP109     -0.2715
     51  CB        -9.6600    1.3880  -13.0410 C.3   109  ASP109      0.1450
     52  CG       -11.0080    1.9400  -12.6300 C.2   109  ASP109      0.3671
     53  OD1      -11.2060    2.1880  -11.4220 O.co2 109  ASP109     -0.2456
     54  OD2      -11.8660    2.1280  -13.5170 O.co2 109  ASP109     -0.2456
     55  N         -8.7970    3.3720  -10.7930 N.am  110  SER110     -0.1936
     56  CA        -8.4300    3.6200   -9.4050 C.3   110  SER110      0.2055
     57  C         -9.1150    2.6770   -8.4230 C.2   110  SER110      0.2643
     58  O         -8.6920    2.6040   -7.2670 O.2   110  SER110     -0.2714
     59  CB        -8.7450    5.0740   -9.0230 C.3   110  SER110      0.2130
     60  OG       -10.1200    5.3670   -9.2100 O.3   110  SER110     -0.2179
     61  N        -10.1370    1.9510   -8.8540 N.am  111  ASP111     -0.1971
     62  CA       -10.8960    1.0880   -7.9570 C.3   111  ASP111      0.1709
     63  C        -10.1860   -0.2510   -7.7930 C.2   111  ASP111      0.2293
     64  O         -9.9910   -0.9600   -8.7860 O.2   111  ASP111     -0.2864
     65  CB       -12.3050    0.8800   -8.5020 C.3   111  ASP111      0.1436
     66  CG       -13.2600    0.3000   -7.4720 C.2   111  ASP111      0.3671
     67  OD1      -12.8360   -0.5440   -6.6550 O.co2 111  ASP111     -0.2456
     68  OD2      -14.4450    0.6930   -7.4790 O.co2 111  ASP111     -0.2456
     69  N        -11.7180   -3.2890   -9.4250 N.3   114  LYS114     -0.1245
     70  CA       -11.6310   -3.3860  -10.8730 C.3   114  LYS114      0.1561
     71  C        -10.1170   -3.6690  -11.2440 C.2   114  LYS114      0.2260
     72  O         -9.8390   -4.3940  -12.2170 O.2   114  LYS114     -0.2867
     73  CB       -12.0660   -2.0880  -11.4990 C.3   114  LYS114      0.0271
     74  CG       -13.5480   -1.9160  -11.6130 C.3   114  LYS114      0.0035
     75  CD       -13.8140   -0.5880  -12.2730 C.3   114  LYS114      0.0206
     76  CE       -15.2740   -0.2600  -12.3040 C.3   114  LYS114      0.1093
     77  NZ       -15.6420    0.3590  -11.0220 N.3   114  LYS114     -0.1314
     78  N         -4.2200    3.1290  -11.8310 N.3   128  VAL128     -0.1245
     79  CA        -4.0640    4.4050  -12.5170 C.3   128  VAL128      0.1561
     80  C         -2.9050    5.2430  -11.9890 C.2   128  VAL128      0.2260
     81  O         -2.5500    6.2470  -12.6150 O.2   128  VAL128     -0.2867
     82  CB        -5.3860    5.1970  -12.4220 C.3   128  VAL128      0.0252
     83  CG1       -5.5170    5.8550  -11.0400 C.3   128  VAL128      0.0019
     84  CG2       -5.4950    6.2330  -13.5370 C.3   128  VAL128      0.0019
     85  N        -12.1550    7.6360  -20.1030 N.3   146  ALA146     -0.1231
     86  CA       -13.4450    7.0170  -19.8180 C.3   146  ALA146      0.1694
     87  C        -13.7020    6.9870  -18.3150 C.2   146  ALA146      0.2592
     88  O        -14.2320    6.0110  -17.7730 O.2   146  ALA146     -0.2718
     89  CB       -13.5240    5.6130  -20.4150 C.3   146  ALA146      0.0304
     90  N        -13.3240    8.0610  -17.6250 N.am  147  VAL147     -0.1966
     91  CA       -13.5940    8.2450  -16.1980 C.3   147  VAL147      0.1712
     92  C        -14.7860    9.1860  -16.0590 C.2   147  VAL147      0.2458
     93  O        -15.1510    9.8540  -17.0380 O.2   147  VAL147     -0.2730
     94  CB       -12.3690    8.8090  -15.4640 C.3   147  VAL147      0.0289
     95  CG1      -11.1580    7.9230  -15.6810 C.3   147  VAL147      0.0023
     96  CG2      -12.0920   10.2350  -15.9270 C.3   147  VAL147      0.0023
     97  N        -15.4390    9.2570  -14.8960 N.am  148  PRO148     -0.2727
     98  CA       -16.5380   10.2160  -14.7240 C.3   148  PRO148      0.1402
     99  C        -16.1020   11.6510  -14.9870 C.2   148  PRO148      0.2269
    100  O        -14.9180   11.9950  -14.9360 O.2   148  PRO148     -0.2865
    101  CB       -16.9560   10.0160  -13.2640 C.3   148  PRO148      0.0296
    102  CG       -16.6460    8.5850  -13.0000 C.3   148  PRO148      0.0237
    103  CD       -15.3990    8.2730  -13.7980 C.3   148  PRO148      0.0939
    104  N        -13.5970   13.6240  -12.8170 N.3   151  HIS151     -0.1241
    105  CA       -12.1890   13.2470  -12.8290 C.3   151  HIS151      0.1621
    106  C        -11.5470   13.3840  -14.2050 C.2   151  HIS151      0.2264
    107  O        -10.3840   13.0030  -14.3730 O.2   151  HIS151     -0.2867
    108  CB       -12.0300   11.8120  -12.3200 C.3   151  HIS151      0.0745
    109  CG       -12.5350   11.6050  -10.9260 C.ar  151  HIS151      0.0817
    110  ND1      -13.3990   10.5850  -10.5900 N.ar  151  HIS151     -0.2268
    111  CD2      -12.2950   12.2860   -9.7800 C.ar  151  HIS151      0.1154
    112  CE1      -13.6690   10.6450   -9.2980 C.ar  151  HIS151      0.1986
    113  NE2      -13.0130   11.6690   -8.7830 N.ar  151  HIS151     -0.2212
    114  N         -8.6160   16.1450  -14.5660 N.3   154  GLU154     -0.1231
    115  CA        -7.4520   15.6250  -13.8550 C.3   154  GLU154      0.1699
    116  C         -6.7220   14.5900  -14.7020 C.2   154  GLU154      0.2592
    117  O         -5.4960   14.6480  -14.8610 O.2   154  GLU154     -0.2718
    118  CB        -7.8790   15.0130  -12.5190 C.3   154  GLU154      0.0402
    119  CG        -8.9490   15.7950  -11.7760 C.3   154  GLU154      0.1161
    120  CD        -9.7310   14.9280  -10.8030 C.2   154  GLU154      0.3649
    121  OE1      -10.8580   15.3150  -10.4280 O.co2 154  GLU154     -0.2457
    122  OE2       -9.2230   13.8520  -10.4220 O.co2 154  GLU154     -0.2457
    123  N         -7.4730   13.6430  -15.2690 N.am  155  ILE155     -0.1980
    124  CA        -6.8790   12.5870  -16.0820 C.3   155  ILE155      0.1595
    125  C         -6.2160   13.1620  -17.3280 C.2   155  ILE155      0.2287
    126  O         -5.1320   12.7200  -17.7280 O.2   155  ILE155     -0.2864
    127  CB        -7.9500   11.5400  -16.4370 C.3   155  ILE155      0.0276
    128  CG1       -8.3050   10.7090  -15.2000 C.3   155  ILE155      0.0022
    129  CG2       -7.5010   10.6730  -17.6130 C.3   155  ILE155      0.0022
    130  CD1       -7.1060   10.1760  -14.4440 C.3   155  ILE155      0.0001
    131  N         -2.8540   14.7030  -16.5740 N.3   158  ARG158     -0.1245
    132  CA        -1.8770   13.6390  -16.3650 C.3   158  ARG158      0.1563
    133  C         -1.4460   13.0200  -17.6920 C.2   158  ARG158      0.2260
    134  O         -0.2530   12.7780  -17.9120 O.2   158  ARG158     -0.2867
    135  CB        -2.4500   12.5740  -15.4270 C.3   158  ARG158      0.0307
    136  CG        -2.7070   13.0700  -14.0040 C.3   158  ARG158      0.0489
    137  CD        -3.2900   11.9760  -13.1260 C.3   158  ARG158      0.2205
    138  NE        -2.3960   10.8270  -13.0010 N.pl3 158  ARG158     -0.0865
    139  CZ        -2.6980    9.7150  -12.3350 C.cat 158  ARG158      0.5346
    140  NH1       -3.8750    9.5960  -11.7350 N.pl3 158  ARG158      0.1354
    141  NH2       -1.8280    8.7170  -12.2690 N.pl3 158  ARG158      0.1354
@<TRIPOS>BOND
     1    27    26    2
     2    30    28    1
     3    35    34    2
     4    26    25    1
     5    26    32   am
     6    28    29    1
     7    28    25    1
     8    29    31    1
     9    25    24    1
    10    34    33    1
    11    19    18    2
    12    33    32    1
    13    24    18   am
    14    89    86    1
    15    18    17    1
    16    85    86    1
    17     1     2    1
    18    86    87    1
    19    17    20    1
    20    17    16    1
    21    20    21    1
    22     7     5    1
    23    44    42   ar
    24    44    46   ar
    25    15    14    2
    26     4     3    2
    27     2     5    1
    28     2     3    1
    29    11    10    2
    30    87    88    2
    31    87    90   am
    32     5     6    1
    33    42    41   ar
    34     3     8   am
    35    23    21   am
    36    46    45   ar
    37    21    22    2
    38    16    14   am
    39   134   133    2
    40    14    13    1
    41   126   125    2
    42   133   132    1
    43    90    91    1
    44   129   127    1
    45   125   124    1
    46    36    37    1
    47    10     9    1
    48     8     9    1
    49    93    92    2
    50    41    43   ar
    51    41    40    1
    52    45    43   ar
    53    12    13    1
    54   131   132    1
    55   127   124    1
    56   127   128    1
    57   132   135    1
    58    91    92    1
    59    91    94    1
    60   124   123    1
    61    92    97   am
    62    40    37    1
    63    37    38    1
    64    96    94    1
    65    39    38    2
    66    95    94    1
    67   135   136    1
    68   123   116   am
    69   128   130    1
    70    38    47   am
    71    99   100    2
    72    99    98    1
    73    97    98    1
    74    97   103    1
    75   117   116    2
    76    98   101    1
    77   116   115    1
    78   114   115    1
    79   107   106    2
    80   106   105    1
    81   136   137    1
    82    47    48    1
    83   115   118    1
    84   103   102    1
    85    84    82    1
    86    54    52   ar
    87   101   102    1
    88   137   138    1
    89    51    48    1
    90    51    52    1
    91    48    49    1
    92   138   139    2
    93   105   104    1
    94   105   108    1
    95    52    53   ar
    96    81    80    2
    97   118   119    1
    98    79    82    1
    99    79    80    1
   100    79    78    1
   101    82    83    1
   102   139   141    1
   103   139   140    1
   104   108   109    1
   105    76    75    1
   106    76    77    1
   107    75    74    1
   108    72    71    2
   109   119   120    1
   110    74    73    1
   111    49    50    2
   112    49    55   am
   113    73    70    1
   114    71    70    1
   115   109   110   ar
   116   109   111   ar
   117    70    69    1
   118   120   121   ar
   119   120   122   ar
   120    55    56    1
   121   110   112   ar
   122   111   113   ar
   123    56    59    1
   124    56    57    1
   125   112   113   ar
   126    60    59    1
   127    61    57   am
   128    61    62    1
   129    64    63    2
   130    65    62    1
   131    65    66    1
   132    57    58    2
   133    62    63    1
   134    68    66   ar
   135    66    67   ar
