@<TRIPOS>MOLECULE
tmp/5zz7A00.pdb
 174 169 0 0 0
SMALL
GASTEIGER

@<TRIPOS>ATOM
      1  N        -15.8290   30.1260  -30.1010 N.3    86  VAL86      -0.1231
      2  CA       -15.0360   30.5180  -31.2600 C.3    86  VAL86       0.1692
      3  C        -13.9130   29.5000  -31.4020 C.2    86  VAL86       0.2593
      4  O        -13.0110   29.4320  -30.5600 O.2    86  VAL86      -0.2718
      5  CB       -14.4900   31.9450  -31.1230 C.3    86  VAL86       0.0266
      6  CG1      -13.7510   32.3480  -32.3890 C.3    86  VAL86       0.0020
      7  CG2      -15.6210   32.9170  -30.8300 C.3    86  VAL86       0.0020
      8  N        -13.9670   28.7050  -32.4660 N.am   87  GLY87      -0.1942
      9  CA       -13.0220   27.6230  -32.6490 C.3    87  GLY87       0.2014
     10  C        -13.6880   26.2730  -32.4830 C.2    87  GLY87       0.2639
     11  O        -14.0760   25.8990  -31.3730 O.2    87  GLY87      -0.2714
     12  N        -13.8320   25.5350  -33.5800 N.am   88  ALA88      -0.1963
     13  CA       -14.5420   24.2620  -33.5930 C.3    88  ALA88       0.1728
     14  C        -13.5850   23.0800  -33.7200 C.2    88  ALA88       0.2617
     15  O        -13.8560   22.1140  -34.4350 O.2    88  ALA88      -0.2715
     16  CB       -15.5750   24.2340  -34.7170 C.3    88  ALA88       0.0334
     17  N        -12.4550   23.1440  -33.0210 N.am   89  GLY89      -0.1940
     18  CA       -11.4990   22.0540  -33.0320 C.3    89  GLY89       0.2014
     19  C        -11.7380   21.0440  -31.9270 C.2    89  GLY89       0.2639
     20  O        -12.8870   20.7230  -31.6080 O.2    89  GLY89      -0.2714
     21  N        -10.6570   20.5360  -31.3310 N.am   90  ASN90      -0.1958
     22  CA       -10.7940   19.5590  -30.2550 C.3    90  ASN90       0.1819
     23  C        -11.4130   20.1880  -29.0120 C.2    90  ASN90       0.2621
     24  O        -12.3750   19.6550  -28.4470 O.2    90  ASN90      -0.2715
     25  CB        -9.4320   18.9460  -29.9290 C.3    90  ASN90       0.1195
     26  CG        -8.8970   18.0810  -31.0510 C.2    90  ASN90       0.2630
     27  OD1       -9.6580   17.4160  -31.7540 O.2    90  ASN90      -0.2716
     28  ND2       -7.5810   18.0840  -31.2240 N.am   90  ASN90      -0.0877
     29  N        -10.8690   21.3240  -28.5690 N.am   91  ILE91      -0.1963
     30  CA       -11.4030   21.9950  -27.3870 C.3    91  ILE91       0.1727
     31  C        -12.8340   22.4500  -27.6350 C.2    91  ILE91       0.2616
     32  O        -13.7180   22.2630  -26.7880 O.2    91  ILE91      -0.2715
     33  CB       -10.4960   23.1730  -26.9840 C.3    91  ILE91       0.0290
     34  CG1       -9.1630   22.6610  -26.4400 C.3    91  ILE91       0.0022
     35  CG2      -11.1880   24.0500  -25.9520 C.3    91  ILE91       0.0023
     36  CD1       -9.2850   21.9350  -25.1150 C.3    91  ILE91       0.0001
     37  N        -13.0890   23.0460  -28.8010 N.am   92  GLY92      -0.1955
     38  CA       -14.4260   23.5380  -29.0940 C.3    92  GLY92       0.1869
     39  C        -15.4670   22.4360  -29.1230 C.2    92  GLY92       0.2309
     40  O        -16.5850   22.6130  -28.6330 O.2    92  GLY92      -0.2863
     41  N        -16.0570   28.9810  -36.5860 N.3   113  ASP113     -0.1225
     42  CA       -14.7420   28.5410  -37.0270 C.3   113  ASP113      0.1805
     43  C        -14.4570   29.1600  -38.3880 C.2   113  ASP113      0.2598
     44  O        -15.3430   29.2240  -39.2440 O.2   113  ASP113     -0.2718
     45  CB       -14.6590   27.0110  -37.1010 C.3   113  ASP113      0.1424
     46  CG       -13.2280   26.5040  -37.1480 C.2   113  ASP113      0.3668
     47  OD1      -12.4440   26.9940  -37.9860 O.co2 113  ASP113     -0.2456
     48  OD2      -12.8870   25.6180  -36.3350 O.co2 113  ASP113     -0.2456
     49  N        -13.2210   29.6160  -38.5750 N.am  114  SER114     -0.1938
     50  CA       -12.8040   30.2610  -39.8140 C.3   114  SER114      0.2055
     51  C        -12.3770   29.2690  -40.8900 C.2   114  SER114      0.2643
     52  O        -11.8550   29.6920  -41.9280 O.2   114  SER114     -0.2714
     53  CB       -11.6610   31.2410  -39.5350 C.3   114  SER114      0.2130
     54  OG       -10.5070   30.5600  -39.0760 O.3   114  SER114     -0.2179
     55  N        -12.5850   27.9700  -40.6720 N.am  115  ASP115     -0.1971
     56  CA       -12.1710   26.9540  -41.6290 C.3   115  ASP115      0.1709
     57  C        -13.3290   26.6500  -42.5720 C.2   115  ASP115      0.2293
     58  O        -14.3620   26.1350  -42.1160 O.2   115  ASP115     -0.2864
     59  CB       -11.7260   25.6900  -40.9070 C.3   115  ASP115      0.1436
     60  CG       -11.3020   24.5900  -41.8590 C.2   115  ASP115      0.3671
     61  OD1      -12.1720   23.7950  -42.2730 O.co2 115  ASP115     -0.2456
     62  OD2      -10.1010   24.5150  -42.1900 O.co2 115  ASP115     -0.2456
     63  N        -14.7600   23.1880  -42.4320 N.3   118  LYS118     -0.1245
     64  CA       -15.4910   22.8650  -41.2140 C.3   118  LYS118      0.1561
     65  C        -16.8770   23.4900  -41.1740 C.2   118  LYS118      0.2260
     66  O        -17.7930   22.8940  -40.5980 O.2   118  LYS118     -0.2867
     67  CB       -14.6980   23.3110  -39.9800 C.3   118  LYS118      0.0271
     68  CG       -13.4680   22.4660  -39.6910 C.3   118  LYS118      0.0035
     69  CD       -12.6620   23.0390  -38.5380 C.3   118  LYS118      0.0206
     70  CE       -11.3590   22.2810  -38.3490 C.3   118  LYS118      0.1093
     71  NZ       -11.5860   20.8660  -37.9490 N.3   118  LYS118     -0.1314
     72  N        -16.9310   32.7980  -38.9160 N.3   132  VAL132     -0.1245
     73  CA       -16.5570   33.7860  -37.9090 C.3   132  VAL132      0.1561
     74  C        -16.8270   35.2150  -38.3480 C.2   132  VAL132      0.2260
     75  O        -16.7740   36.1260  -37.5130 O.2   132  VAL132     -0.2867
     76  CB       -15.0680   33.6550  -37.5340 C.3   132  VAL132      0.0252
     77  CG1      -14.7970   32.2870  -36.9530 C.3   132  VAL132      0.0019
     78  CG2      -14.1920   33.9180  -38.7500 C.3   132  VAL132      0.0019
     79  N        -11.5200   29.0800  -28.2980 N.3   150  ALA150     -0.1231
     80  CA       -10.8430   27.8140  -28.5470 C.3   150  ALA150      0.1694
     81  C        -10.0430   27.8650  -29.8450 C.2   150  ALA150      0.2592
     82  O         -9.8950   26.8540  -30.5360 O.2   150  ALA150     -0.2718
     83  CB       -11.8430   26.6580  -28.5730 C.3   150  ALA150      0.0304
     84  N         -9.5250   29.0410  -30.1870 N.am  151  VAL151     -0.1966
     85  CA        -8.7110   29.2230  -31.3860 C.3   151  VAL151      0.1712
     86  C         -7.2420   29.1420  -30.9850 C.2   151  VAL151      0.2458
     87  O         -6.9200   29.2830  -29.7950 O.2   151  VAL151     -0.2730
     88  CB        -9.0310   30.5570  -32.0820 C.3   151  VAL151      0.0289
     89  CG1      -10.5050   30.6260  -32.4440 C.3   151  VAL151      0.0023
     90  CG2       -8.6360   31.7310  -31.1970 C.3   151  VAL151      0.0023
     91  N         -6.3260   28.8960  -31.9220 N.am  152  PRO152     -0.2716
     92  CA        -4.8980   28.9030  -31.5830 C.3   152  PRO152      0.1536
     93  C         -4.4590   30.2550  -31.0410 C.2   152  PRO152      0.2598
     94  O         -5.1530   31.2670  -31.1520 O.2   152  PRO152     -0.2715
     95  CB        -4.2150   28.5810  -32.9160 C.3   152  PRO152      0.0310
     96  CG        -5.2370   27.8200  -33.6810 C.3   152  PRO152      0.0237
     97  CD        -6.5630   28.4060  -33.2910 C.3   152  PRO152      0.0939
     98  N         -3.2640   30.2590  -30.4440 N.am  153  ALA153     -0.1978
     99  CA        -2.7710   31.4530  -29.7650 C.3   153  ALA153      0.1597
    100  C         -2.5890   32.6240  -30.7230 C.2   153  ALA153      0.2287
    101  O         -2.6050   33.7850  -30.2960 O.2   153  ALA153     -0.2864
    102  CB        -1.4520   31.1380  -29.0580 C.3   153  ALA153      0.0319
    103  N         -4.5080   33.7510  -33.2630 N.3   155  HIS155     -0.1241
    104  CA        -5.7170   34.5150  -33.5340 C.3   155  HIS155      0.1621
    105  C         -6.5440   34.7780  -32.2800 C.2   155  HIS155      0.2264
    106  O         -7.7090   35.1700  -32.3910 O.2   155  HIS155     -0.2867
    107  CB        -6.5790   33.7910  -34.5710 C.3   155  HIS155      0.0745
    108  CG        -5.7970   33.1690  -35.6880 C.ar  155  HIS155      0.0817
    109  ND1       -5.4210   31.8430  -35.6850 N.ar  155  HIS155     -0.2268
    110  CD2       -5.3290   33.6890  -36.8480 C.ar  155  HIS155      0.1154
    111  CE1       -4.7520   31.5730  -36.7920 C.ar  155  HIS155      0.1986
    112  NE2       -4.6820   32.6770  -37.5150 N.ar  155  HIS155     -0.2212
    113  N         -9.7620   37.6010  -31.5640 N.3   159  ILE159     -0.1245
    114  CA       -11.1040   37.1090  -31.2630 C.3   159  ILE159      0.1561
    115  C        -11.6650   37.8090  -30.0340 C.2   159  ILE159      0.2260
    116  O        -12.8480   38.1700  -29.9880 O.2   159  ILE159     -0.2867
    117  CB       -11.0840   35.5790  -31.0830 C.3   159  ILE159      0.0252
    118  CG1      -10.8510   34.8870  -32.4270 C.3   159  ILE159      0.0019
    119  CG2      -12.3760   35.0940  -30.4410 C.3   159  ILE159      0.0019
    120  CD1      -11.8360   35.2910  -33.4970 C.3   159  ILE159      0.0001
    121  N         -9.1560   29.5360  -23.6180 N.3   174  PHE174     -0.1227
    122  CA        -8.2630   28.3870  -23.5580 C.3   174  PHE174      0.1736
    123  C         -6.8770   28.6810  -24.1120 C.2   174  PHE174      0.2595
    124  O         -5.9170   28.0050  -23.7270 O.2   174  PHE174     -0.2718
    125  CB        -8.8540   27.2040  -24.3380 C.3   174  PHE174      0.0547
    126  CG        -9.9420   26.4690  -23.6110 C.ar  174  PHE174     -0.0202
    127  CD1      -11.2460   26.9370  -23.6250 C.ar  174  PHE174     -0.0042
    128  CD2       -9.6650   25.2920  -22.9330 C.ar  174  PHE174     -0.0042
    129  CE1      -12.2510   26.2520  -22.9630 C.ar  174  PHE174     -0.0003
    130  CE2      -10.6640   24.6030  -22.2710 C.ar  174  PHE174     -0.0003
    131  CZ       -11.9590   25.0830  -22.2880 C.ar  174  PHE174     -0.0000
    132  N         -6.7510   29.6680  -24.9940 N.am  175  ALA175     -0.1966
    133  CA        -5.5000   29.8840  -25.7050 C.3   175  ALA175      0.1713
    134  C         -4.4050   30.3520  -24.7470 C.2   175  ALA175      0.2458
    135  O         -4.6750   31.1160  -23.8160 O.2   175  ALA175     -0.2730
    136  CB        -5.6910   30.9100  -26.8180 C.3   175  ALA175      0.0333
    137  N         -3.1340   29.9060  -24.9570 N.am  176  PRO176     -0.2727
    138  CA        -2.0310   30.2700  -24.0500 C.3   176  PRO176      0.1402
    139  C         -1.4200   31.6290  -24.3800 C.2   176  PRO176      0.2269
    140  O         -0.2420   31.7460  -24.7310 O.2   176  PRO176     -0.2865
    141  CB        -1.0460   29.1160  -24.2650 C.3   176  PRO176      0.0296
    142  CG        -1.2370   28.7480  -25.6990 C.3   176  PRO176      0.0237
    143  CD        -2.7060   28.9440  -25.9900 C.3   176  PRO176      0.0939
    144  N         -8.2900   29.2280  -18.7470 N.3   188  ILE188     -0.1231
    145  CA        -8.1580   27.8320  -18.3520 C.3   188  ILE188      0.1692
    146  C         -6.7470   27.3810  -18.6940 C.2   188  ILE188      0.2592
    147  O         -6.2640   27.6250  -19.8060 O.2   188  ILE188     -0.2718
    148  CB        -9.2120   26.9530  -19.0440 C.3   188  ILE188      0.0266
    149  CG1      -10.5850   27.2230  -18.4340 C.3   188  ILE188      0.0019
    150  CG2       -8.8440   25.4790  -18.9410 C.3   188  ILE188      0.0020
    151  CD1      -11.7200   26.8970  -19.3490 C.3   188  ILE188      0.0001
    152  N         -6.0820   26.7350  -17.7370 N.am  189  ASP189     -0.1960
    153  CA        -4.6910   26.3320  -17.9240 C.3   189  ASP189      0.1840
    154  C         -4.4670   25.0450  -17.1340 C.2   189  ASP189      0.2622
    155  O         -4.3330   25.0850  -15.9070 O.2   189  ASP189     -0.2715
    156  CB        -3.7440   27.4380  -17.4810 C.3   189  ASP189      0.1450
    157  CG        -2.2970   27.0990  -17.7410 C.2   189  ASP189      0.3671
    158  OD1       -2.0340   26.2610  -18.6310 O.co2 189  ASP189     -0.2456
    159  OD2       -1.4210   27.6690  -17.0580 O.co2 189  ASP189     -0.2456
    160  N         -4.4220   23.9140  -17.8440 N.am  190  ILE190     -0.1963
    161  CA        -4.2330   22.6320  -17.1760 C.3   190  ILE190      0.1727
    162  C         -2.8080   22.4620  -16.6720 C.2   190  ILE190      0.2616
    163  O         -2.5720   21.6580  -15.7630 O.2   190  ILE190     -0.2715
    164  CB        -4.6160   21.4620  -18.1020 C.3   190  ILE190      0.0290
    165  CG1       -3.6780   21.3920  -19.3090 C.3   190  ILE190      0.0022
    166  CG2       -6.0660   21.5860  -18.5460 C.3   190  ILE190      0.0023
    167  CD1       -4.0340   20.2900  -20.2850 C.3   190  ILE190      0.0001
    168  N         -1.8440   23.1930  -17.2400 N.am  191  THR191     -0.1951
    169  CA        -0.4930   23.1590  -16.6930 C.3   191  THR191      0.1897
    170  C         -0.4730   23.6660  -15.2590 C.2   191  THR191      0.2313
    171  O          0.3090   23.1760  -14.4380 O.2   191  THR191     -0.2863
    172  CB         0.4610   23.9850  -17.5580 C.3   191  THR191      0.1794
    173  OG1        0.1540   25.3770  -17.4130 O.3   191  THR191     -0.2208
    174  CG2        0.3320   23.5910  -19.0210 C.3   191  THR191      0.0378
@<TRIPOS>BOND
     1    57    58    2
     2    57    56    1
     3    63    64    1
     4    61    60   ar
     5    62    60   ar
     6    52    51    2
     7    60    59    1
     8    56    59    1
     9    56    55    1
    10    64    65    1
    11    64    67    1
    12    65    66    2
    13    51    55   am
    14    51    50    1
    15    67    68    1
    16    50    53    1
    17    50    49    1
    18    68    69    1
    19    53    54    1
    20    44    43    2
    21    72    73    1
    22    78    76    1
    23    49    43   am
    24    69    70    1
    25    43    42    1
    26    70    71    1
    27    74    73    1
    28    74    75    2
    29    47    46   ar
    30    73    76    1
    31    76    77    1
    32   112   110   ar
    33   112   111   ar
    34    46    45    1
    35    46    48   ar
    36    45    42    1
    37    42    41    1
    38   110   108   ar
    39   111   109   ar
    40   108   109   ar
    41   108   107    1
    42    16    13    1
    43   107   104    1
    44    15    14    2
    45    14    13    1
    46    14    17   am
    47    96    97    1
    48    96    95    1
    49    13    12    1
    50    12    10   am
    51   104   103    1
    52   104   105    1
    53   120   118    1
    54    97    91    1
    55    18    17    1
    56    18    19    1
    57    95    92    1
    58     9    10    1
    59     9     8    1
    60    10    11    2
    61     8     3   am
    62    89    88    1
    63   118   117    1
    64   106   105    2
    65     6     5    1
    66    88    85    1
    67    88    90    1
    68    19    20    2
    69    19    21   am
    70    91    92    1
    71    91    86   am
    72    27    26    2
    73    92    93    1
    74   113   114    1
    75     3     2    1
    76     3     4    2
    77    85    86    1
    78    85    84    1
    79    21    22    1
    80   114   117    1
    81   114   115    1
    82     2     5    1
    83     2     1    1
    84    28    26   am
    85    94    93    2
    86     5     7    1
    87   117   119    1
    88    26    25    1
    89    93    98   am
    90    86    87    2
    91   100   101    2
    92   100    99    1
    93    82    81    2
    94    98    99    1
    95    22    25    1
    96    22    23    1
    97    84    81   am
    98   115   116    2
    99    81    80    1
   100    99   102    1
   101    39    38    1
   102    39    40    2
   103    38    37    1
   104    23    29   am
   105    23    24    2
   106    37    31   am
   107    83    80    1
   108    29    30    1
   109    80    79    1
   110    31    30    1
   111    31    32    2
   112    30    33    1
   113    33    34    1
   114    33    35    1
   115   136   133    1
   116    34    36    1
   117   143   142    1
   118   143   137    1
   119   133   132    1
   120   133   134    1
   121   142   141    1
   122   132   123   am
   123   137   134   am
   124   137   138    1
   125   134   135    2
   126   140   139    2
   127   139   138    1
   128   125   126    1
   129   125   122    1
   130   141   138    1
   131   123   124    2
   132   123   122    1
   133   127   126   ar
   134   127   129   ar
   135   121   122    1
   136   126   128   ar
   137   129   131   ar
   138   128   130   ar
   139   131   130   ar
   140   167   165    1
   141   147   146    2
   142   151   149    1
   143   165   164    1
   144   148   150    1
   145   148   149    1
   146   148   145    1
   147   174   172    1
   148   144   145    1
   149   146   145    1
   150   146   152   am
   151   158   157   ar
   152   166   164    1
   153   164   161    1
   154   153   152    1
   155   153   156    1
   156   153   154    1
   157   160   161    1
   158   160   154   am
   159   157   156    1
   160   157   159   ar
   161   172   173    1
   162   172   169    1
   163   168   169    1
   164   168   162   am
   165   161   162    1
   166   154   155    2
   167   169   170    1
   168   162   163    2
   169   170   171    2
