@<TRIPOS>MOLECULE
tmp/5zz9C00.pdb
 131 127 0 0 0
SMALL
GASTEIGER

@<TRIPOS>ATOM
      1  N         22.3250   28.5390  -46.6150 N.3    10  HIS10      -0.1241
      2  CA        22.3370   29.5410  -47.6670 C.3    10  HIS10       0.1621
      3  C         20.8980   29.9510  -47.9410 C.2    10  HIS10       0.2264
      4  O         20.0280   29.0950  -48.1320 O.2    10  HIS10      -0.2867
      5  CB        22.9910   28.9870  -48.9330 C.3    10  HIS10       0.0745
      6  CG        24.4860   28.9130  -48.8650 C.ar   10  HIS10       0.0817
      7  ND1       25.1500   27.9360  -48.1560 N.ar   10  HIS10      -0.2268
      8  CD2       25.4450   29.6910  -49.4210 C.ar   10  HIS10       0.1154
      9  CE1       26.4530   28.1150  -48.2770 C.ar   10  HIS10       0.1986
     10  NE2       26.6590   29.1740  -49.0390 N.ar   10  HIS10      -0.2212
     11  N         17.9220   31.9710  -50.0820 N.3    12  PHE12      -0.1241
     12  CA        17.5320   32.4110  -51.4080 C.3    12  PHE12       0.1605
     13  C         16.1180   32.9630  -51.3300 C.2    12  PHE12       0.2264
     14  O         15.3370   32.5890  -50.4500 O.2    12  PHE12      -0.2867
     15  CB        17.5780   31.2640  -52.4330 C.3    12  PHE12       0.0534
     16  CG        18.9110   30.5780  -52.5260 C.ar   12  PHE12      -0.0203
     17  CD1       19.2650   29.5940  -51.6170 C.ar   12  PHE12      -0.0042
     18  CD2       19.7970   30.8940  -53.5430 C.ar   12  PHE12      -0.0042
     19  CE1       20.4870   28.9550  -51.7060 C.ar   12  PHE12      -0.0003
     20  CE2       21.0200   30.2560  -53.6420 C.ar   12  PHE12      -0.0003
     21  CZ        21.3660   29.2850  -52.7220 C.ar   12  PHE12      -0.0000
     22  N         12.8480   33.8390  -54.2200 N.3    14  ILE14      -0.1245
     23  CA        12.4200   33.7060  -55.6030 C.3    14  ILE14       0.1561
     24  C         12.3940   35.0830  -56.2540 C.2    14  ILE14       0.2260
     25  O         12.0150   36.0850  -55.6290 O.2    14  ILE14      -0.2867
     26  CB        11.0550   32.9960  -55.6530 C.3    14  ILE14       0.0252
     27  CG1       10.7690   32.4350  -57.0430 C.3    14  ILE14       0.0019
     28  CG2        9.9260   33.9260  -55.2080 C.3    14  ILE14       0.0019
     29  CD1        9.4190   31.7590  -57.1240 C.3    14  ILE14       0.0001
     30  N          9.4360   34.6680  -61.1360 N.3    19  LYS19      -0.1231
     31  CA         8.7790   33.7120  -60.2470 C.3    19  LYS19       0.1693
     32  C          9.2780   32.2830  -60.4480 C.2    19  LYS19       0.2591
     33  O          8.6030   31.3280  -60.0490 O.2    19  LYS19      -0.2718
     34  CB         7.2530   33.7680  -60.3990 C.3    19  LYS19       0.0285
     35  CG         6.5290   35.0710  -60.0630 C.3    19  LYS19       0.0035
     36  CD         6.7570   35.2340  -58.5720 C.3    19  LYS19       0.0206
     37  CE         5.6230   36.0080  -57.9990 C.3    19  LYS19       0.1093
     38  NZ         5.7840   36.3550  -56.5550 N.3    19  LYS19      -0.1314
     39  N         10.4270   32.1060  -61.1090 N.am   20  LYS20      -0.1980
     40  CA        10.9400   30.7760  -61.3990 C.3    20  LYS20       0.1596
     41  C         12.4000   30.5640  -61.0130 C.2    20  LYS20       0.2287
     42  O         12.9000   29.4420  -61.1660 O.2    20  LYS20      -0.2864
     43  CB        10.7700   30.4510  -62.8920 C.3    20  LYS20       0.0298
     44  CG         9.2500   30.2700  -63.1530 C.3    20  LYS20       0.0038
     45  CD         9.1160   29.7460  -64.5800 C.3    20  LYS20       0.0206
     46  CE         8.0080   30.5580  -65.2580 C.3    20  LYS20       0.1093
     47  NZ         8.3550   32.0090  -65.0230 N.3    20  LYS20      -0.1314
     48  N         15.8830   31.2130  -58.2710 N.3    22  TRP22      -0.1241
     49  CA        16.3380   31.5100  -56.9250 C.3    22  TRP22       0.1605
     50  C         17.4640   32.5310  -57.0060 C.2    22  TRP22       0.2264
     51  O         18.4970   32.2620  -57.6320 O.2    22  TRP22      -0.2867
     52  CB        16.8350   30.2540  -56.2120 C.3    22  TRP22       0.0550
     53  CG        15.7690   29.2880  -55.8210 C.ar   22  TRP22       0.0003
     54  CD1       15.5560   28.0500  -56.3470 C.ar   22  TRP22       0.0946
     55  CD2       14.7400   29.4940  -54.8480 C.ar   22  TRP22       0.0152
     56  NE1       14.4730   27.4570  -55.7450 N.ar   22  TRP22      -0.2442
     57  CE2       13.9510   28.3260  -54.8220 C.ar   22  TRP22       0.0810
     58  CE3       14.4160   30.5470  -53.9890 C.ar   22  TRP22       0.0012
     59  CZ2       12.8590   28.1850  -53.9720 C.ar   22  TRP22       0.0191
     60  CZ3       13.3320   30.4050  -53.1460 C.ar   22  TRP22       0.0001
     61  CH2       12.5660   29.2330  -53.1430 C.ar   22  TRP22       0.0015
     62  N          8.1130   23.3110  -47.6240 N.3    66  THR66      -0.1218
     63  CA         8.1670   22.2520  -48.6210 C.3    66  THR66       0.1862
     64  C          9.6170   21.9170  -48.9390 C.2    66  THR66       0.2287
     65  O         10.3760   22.7890  -49.3760 O.2    66  THR66      -0.2866
     66  CB         7.4400   22.6750  -49.8960 C.3    66  THR66       0.1770
     67  OG1        6.0530   22.8830  -49.6050 O.3    66  THR66      -0.2211
     68  CG2        7.5900   21.6150  -50.9740 C.3    66  THR66       0.0375
     69  N         12.2250   20.4520  -51.3640 N.3    68  THR68      -0.1203
     70  CA        12.2940   20.2270  -52.7970 C.3    68  THR68       0.1994
     71  C         13.5330   19.4450  -53.1930 C.2    68  THR68       0.2618
     72  O         13.7500   19.1990  -54.3870 O.2    68  THR68      -0.2717
     73  CB        12.2660   21.5670  -53.5310 C.3    68  THR68       0.1784
     74  OG1       13.2790   22.4270  -52.9920 O.3    68  THR68      -0.2211
     75  CG2       10.9160   22.2330  -53.3620 C.3    68  THR68       0.0376
     76  N         14.3430   19.0490  -52.2180 N.am   69  SER69      -0.1951
     77  CA        15.4680   18.1470  -52.4260 C.3    69  SER69       0.1924
     78  C         15.8770   17.6370  -51.0500 C.2    69  SER69       0.2314
     79  O         15.3330   18.0650  -50.0320 O.2    69  SER69      -0.2863
     80  CB        16.6320   18.8330  -53.1460 C.3    69  SER69       0.2116
     81  OG        17.4260   19.5620  -52.2330 O.3    69  SER69      -0.2180
     82  N         18.4570   18.4370  -49.6260 N.3    71  LYS71      -0.1231
     83  CA        19.2460   19.4450  -48.9370 C.3    71  LYS71       0.1693
     84  C         18.6730   20.8540  -49.1240 C.2    71  LYS71       0.2592
     85  O         19.3370   21.8330  -48.7490 O.2    71  LYS71      -0.2718
     86  CB        20.7000   19.4130  -49.4320 C.3    71  LYS71       0.0285
     87  CG        21.5780   18.1290  -49.2300 C.3    71  LYS71       0.0035
     88  CD        22.9820   18.6360  -49.6770 C.3    71  LYS71       0.0206
     89  CE        24.3210   18.1800  -49.1200 C.3    71  LYS71       0.1093
     90  NZ        24.5840   16.7270  -49.6450 N.3    71  LYS71      -0.1314
     91  N         17.4650   20.9910  -49.6850 N.am   72  PHE72      -0.1976
     92  CA        16.8810   22.3030  -49.9750 C.3    72  PHE72       0.1639
     93  C         15.3830   22.3010  -49.6610 C.2    72  PHE72       0.2290
     94  O         14.6830   21.3120  -49.9250 O.2    72  PHE72      -0.2864
     95  CB        17.1060   22.7000  -51.4360 C.3    72  PHE72       0.0560
     96  CG        16.7690   24.1210  -51.7300 C.ar   72  PHE72      -0.0200
     97  CD1       17.7050   25.1150  -51.5290 C.ar   72  PHE72      -0.0042
     98  CD2       15.5160   24.4700  -52.2350 C.ar   72  PHE72      -0.0042
     99  CE1       17.4200   26.4500  -51.8340 C.ar   72  PHE72      -0.0003
    100  CE2       15.2240   25.8110  -52.5410 C.ar   72  PHE72      -0.0003
    101  CZ        16.1760   26.7930  -52.3400 C.ar   72  PHE72      -0.0000
    102  N         11.7300   25.2130  -48.9700 N.3    74  GLN74      -0.1245
    103  CA        11.1890   26.5390  -49.2440 C.3    74  GLN74       0.1566
    104  C          9.8600   26.7180  -48.5300 C.2    74  GLN74       0.2260
    105  O          9.1560   25.7430  -48.2500 O.2    74  GLN74      -0.2867
    106  CB        10.9710   26.7660  -50.7600 C.3    74  GLN74       0.0367
    107  CG         9.9930   25.7820  -51.3750 C.3    74  GLN74       0.0905
    108  CD         9.7320   26.0700  -52.8380 C.2    74  GLN74       0.2608
    109  OE1       10.5620   25.7720  -53.6940 O.2    74  GLN74      -0.2717
    110  NE2        8.5830   26.6710  -53.1310 N.am   74  GLN74      -0.0878
    111  N         19.1740   26.3830  -48.3540 N.3    87  GLY87      -0.1210
    112  CA        20.0110   25.2620  -48.7260 C.3    87  GLY87       0.1956
    113  C         20.9160   24.8540  -47.5830 C.2    87  GLY87       0.2612
    114  O         21.6730   25.6760  -47.0600 O.2    87  GLY87      -0.2717
    115  N         20.8510   23.5870  -47.1900 N.am   88  PHE88      -0.1962
    116  CA        21.5890   23.0750  -46.0470 C.3    88  PHE88       0.1771
    117  C         22.7600   22.2140  -46.4990 C.2    88  PHE88       0.2620
    118  O         22.7830   21.6840  -47.6140 O.2    88  PHE88      -0.2715
    119  CB        20.6700   22.2670  -45.1270 C.3    88  PHE88       0.0574
    120  CG        19.5270   23.0630  -44.5680 C.ar   88  PHE88      -0.0200
    121  CD1       18.3230   23.1320  -45.2470 C.ar   88  PHE88      -0.0042
    122  CD2       19.6520   23.7380  -43.3670 C.ar   88  PHE88      -0.0042
    123  CE1       17.2630   23.8630  -44.7410 C.ar   88  PHE88      -0.0003
    124  CE2       18.5930   24.4690  -42.8530 C.ar   88  PHE88      -0.0003
    125  CZ        17.3970   24.5320  -43.5430 C.ar   88  PHE88      -0.0000
    126  N         23.7450   22.0860  -45.6070 N.am   89  SER89      -0.1950
    127  CA        24.9360   21.3020  -45.9020 C.3    89  SER89       0.1924
    128  C         24.7550   19.8140  -45.6290 C.2    89  SER89       0.2314
    129  O         25.5820   19.0180  -46.0870 O.2    89  SER89      -0.2863
    130  CB        26.1280   21.8300  -45.0950 C.3    89  SER89       0.2116
    131  OG        25.7950   22.0060  -43.7280 O.3    89  SER89      -0.2180
@<TRIPOS>BOND
     1    46    47    1
     2    46    45    1
     3    45    44    1
     4    44    43    1
     5    43    40    1
     6    40    39    1
     7    40    41    1
     8    42    41    2
     9    30    31    1
    10    39    32   am
    11    32    31    1
    12    32    33    2
    13    34    31    1
    14    34    35    1
    15    35    36    1
    16    36    37    1
    17    48    49    1
    18    37    38    1
    19    51    50    2
    20    29    27    1
    21    27    26    1
    22    50    49    1
    23    49    52    1
    24    54    53   ar
    25    54    56   ar
    26    24    25    2
    27    24    23    1
    28    52    53    1
    29    53    55   ar
    30    56    57   ar
    31    26    23    1
    32    26    28    1
    33    23    22    1
    34    55    57   ar
    35    55    58   ar
    36    57    59   ar
    37    72    71    2
    38    58    60   ar
    39    59    61   ar
    40   109   108    2
    41    20    18   ar
    42    20    21   ar
    43    18    16   ar
    44    73    75    1
    45    73    74    1
    46    73    70    1
    47    71    70    1
    48    71    76   am
    49    60    61   ar
    50    80    77    1
    51    80    81    1
    52   110   108   am
    53   108   107    1
    54    70    69    1
    55    21    19   ar
    56   100   101   ar
    57   100    98   ar
    58    16    15    1
    59    16    17   ar
    60    15    12    1
    61    77    76    1
    62    77    78    1
    63   101    99   ar
    64    98    96   ar
    65    99    97   ar
    66    96    97   ar
    67    96    95    1
    68    19    17   ar
    69    95    92    1
    70    12    13    1
    71    12    11    1
    72   107   106    1
    73    13    14    2
    74    78    79    2
    75    68    66    1
    76   106   103    1
    77    92    91    1
    78    92    93    1
    79    94    93    2
    80    66    67    1
    81    66    63    1
    82    91    84   am
    83    88    87    1
    84    88    89    1
    85    90    89    1
    86    82    83    1
    87    86    87    1
    88    86    83    1
    89     8    10   ar
    90     8     6   ar
    91    65    64    2
    92   103   102    1
    93   103   104    1
    94    84    83    1
    95    84    85    2
    96    10     9   ar
    97    64    63    1
    98     5     6    1
    99     5     2    1
   100     6     7   ar
   101   112   111    1
   102   112   113    1
   103    63    62    1
   104   104   105    2
   105     9     7   ar
   106     4     3    2
   107     3     2    1
   108     2     1    1
   109   118   117    2
   110   113   115   am
   111   113   114    2
   112   115   116    1
   113   117   116    1
   114   117   126   am
   115   129   128    2
   116   116   119    1
   117   127   128    1
   118   127   126    1
   119   127   130    1
   120   121   123   ar
   121   121   120   ar
   122   119   120    1
   123   130   131    1
   124   123   125   ar
   125   120   122   ar
   126   125   124   ar
   127   122   124   ar
