@<TRIPOS>MOLECULE
tmp/5zzaB00.pdb
 146 140 0 0 0
SMALL
GASTEIGER

@<TRIPOS>ATOM
      1  N         -6.0650   43.7450   -2.4780 N.3   130  TYR130     -0.1241
      2  CA        -4.6290   43.9560   -2.6490 C.3   130  TYR130      0.1605
      3  C         -3.9690   43.7570   -1.3060 C.2   130  TYR130      0.2264
      4  O         -4.5930   44.0000   -0.2670 O.2   130  TYR130     -0.2867
      5  CB        -4.3560   45.3760   -3.1660 C.3   130  TYR130      0.0534
      6  CG        -2.9300   45.6340   -3.6030 C.ar  130  TYR130     -0.0201
      7  CD1       -2.0010   46.1940   -2.7250 C.ar  130  TYR130     -0.0009
      8  CD2       -2.5140   45.3510   -4.9050 C.ar  130  TYR130     -0.0009
      9  CE1       -0.6980   46.4470   -3.1240 C.ar  130  TYR130      0.0417
     10  CE2       -1.2040   45.5950   -5.3140 C.ar  130  TYR130      0.0417
     11  CZ        -0.3010   46.1450   -4.4160 C.ar  130  TYR130      0.1957
     12  OH         0.9970   46.4030   -4.8000 O.3   130  TYR130     -0.2866
     13  N         -0.1360   44.6330    0.6860 N.3   132  ALA132     -0.1231
     14  CA         1.1610   45.2940    0.6350 C.3   132  ALA132      0.1694
     15  C          1.9620   44.9980    1.8890 C.2   132  ALA132      0.2591
     16  O          1.4040   44.7930    2.9690 O.2   132  ALA132     -0.2718
     17  CB         0.9740   46.7930    0.4900 C.3   132  ALA132      0.0304
     18  N          3.2800   45.0130    1.7450 N.am  133  ILE133     -0.1980
     19  CA         4.1830   44.8810    2.8860 C.3   133  ILE133      0.1595
     20  C          4.0530   46.1210    3.7810 C.2   133  ILE133      0.2287
     21  O          4.0900   47.2510    3.2960 O.2   133  ILE133     -0.2864
     22  CB         5.6410   44.6810    2.4250 C.3   133  ILE133      0.0276
     23  CG1        5.7790   43.3220    1.7390 C.3   133  ILE133      0.0022
     24  CG2        6.6030   44.7290    3.6030 C.3   133  ILE133      0.0022
     25  CD1        7.0450   43.1560    0.9340 C.3   133  ILE133      0.0001
     26  N          6.6460   48.8810    3.5170 N.3   136  VAL136     -0.1231
     27  CA         6.5600   49.5580    2.2250 C.3   136  VAL136      0.1692
     28  C          5.5030   50.6660    2.3050 C.2   136  VAL136      0.2591
     29  O          5.7330   51.7790    1.8270 O.2   136  VAL136     -0.2718
     30  CB         6.2930   48.5510    1.0870 C.3   136  VAL136      0.0266
     31  CG1        5.9190   49.2420   -0.2140 C.3   136  VAL136      0.0020
     32  CG2        7.5230   47.6690    0.8910 C.3   136  VAL136      0.0020
     33  N          4.3750   50.3650    2.9440 N.am  137  LEU137     -0.1980
     34  CA         3.3230   51.3640    3.1660 C.3   137  LEU137      0.1596
     35  C          3.7710   52.5270    4.0610 C.2   137  LEU137      0.2287
     36  O          3.4930   53.6860    3.7410 O.2   137  LEU137     -0.2864
     37  CB         2.0410   50.7200    3.7170 C.3   137  LEU137      0.0297
     38  CG         1.3300   49.7490    2.7710 C.3   137  LEU137      0.0022
     39  CD1        0.1460   49.1550    3.5050 C.3   137  LEU137      0.0001
     40  CD2        0.8820   50.3890    1.4660 C.3   137  LEU137      0.0001
     41  N          6.0950   54.7590    2.0990 N.3   140  TYR140     -0.1241
     42  CA         5.2890   55.5510    1.1700 C.3   140  TYR140      0.1605
     43  C          4.5430   56.6840    1.8750 C.2   140  TYR140      0.2264
     44  O          4.4790   57.8040    1.3520 O.2   140  TYR140     -0.2867
     45  CB         4.3210   54.6370    0.4120 C.3   140  TYR140      0.0534
     46  CG         3.5680   55.3270   -0.7020 C.ar  140  TYR140     -0.0201
     47  CD1        4.2480   55.9860   -1.7190 C.ar  140  TYR140     -0.0009
     48  CD2        2.1790   55.3210   -0.7380 C.ar  140  TYR140     -0.0009
     49  CE1        3.5650   56.6270   -2.7490 C.ar  140  TYR140      0.0417
     50  CE2        1.4880   55.9500   -1.7690 C.ar  140  TYR140      0.0417
     51  CZ         2.1870   56.6030   -2.7650 C.ar  140  TYR140      0.1957
     52  OH         1.5060   57.2360   -3.7800 O.3   140  TYR140     -0.2866
     53  N          9.8800   56.4660   -1.7140 N.3   145  THR145     -0.1218
     54  CA         9.8430   55.0410   -2.0530 C.3   145  THR145      0.1862
     55  C         11.1940   54.3470   -1.9080 C.2   145  THR145      0.2287
     56  O         11.2970   53.1520   -2.1830 O.2   145  THR145     -0.2866
     57  CB         9.3160   54.8370   -3.4800 C.3   145  THR145      0.1770
     58  OG1       10.1790   55.5080   -4.4020 O.3   145  THR145     -0.2211
     59  CG2        7.8820   55.3730   -3.6070 C.3   145  THR145      0.0375
     60  N         12.5060   51.9480   -4.6160 N.3   164  GLU164     -0.1231
     61  CA        11.3360   52.0990   -5.4970 C.3   164  GLU164      0.1699
     62  C         10.1550   51.2250   -5.0570 C.2   164  GLU164      0.2593
     63  O          9.4340   50.6730   -5.8830 O.2   164  GLU164     -0.2718
     64  CB        11.7240   51.8220   -6.9580 C.3   164  GLU164      0.0402
     65  CG        12.7240   52.8210   -7.5290 C.3   164  GLU164      0.1161
     66  CD        13.0970   52.5420   -8.9800 C.2   164  GLU164      0.3649
     67  OE1       12.8980   51.4000   -9.4660 O.co2 164  GLU164     -0.2457
     68  OE2       13.6150   53.4760   -9.6320 O.co2 164  GLU164     -0.2457
     69  N          9.9670   51.1090   -3.7420 N.am  165  GLY165     -0.1942
     70  CA         8.8810   50.3100   -3.1690 C.3   165  GLY165      0.2014
     71  C          9.0830   48.8070   -3.0690 C.2   165  GLY165      0.2638
     72  O          8.1860   48.1110   -2.6040 O.2   165  GLY165     -0.2714
     73  N         10.2340   48.3030   -3.5130 N.am  166  TYR166     -0.1973
     74  CA        10.5670   46.8830   -3.4310 C.3   166  TYR166      0.1639
     75  C         11.4360   46.6500   -2.2060 C.2   166  TYR166      0.2290
     76  O         12.4760   47.2920   -2.0710 O.2   166  TYR166     -0.2864
     77  CB        11.3620   46.4500   -4.6680 C.3   166  TYR166      0.0560
     78  CG        10.6520   46.6480   -5.9900 C.ar  166  TYR166     -0.0198
     79  CD1        9.9400   45.6030   -6.5870 C.ar  166  TYR166     -0.0009
     80  CD2       10.7050   47.8670   -6.6630 C.ar  166  TYR166     -0.0009
     81  CE1        9.3060   45.7810   -7.8060 C.ar  166  TYR166      0.0417
     82  CE2       10.0650   48.0510   -7.8830 C.ar  166  TYR166      0.0417
     83  CZ         9.3630   47.0050   -8.4450 C.ar  166  TYR166      0.1957
     84  OH         8.7310   47.1910   -9.6550 O.3   166  TYR166     -0.2866
     85  N         -2.3840   54.9320   -0.8080 N.3   343  LEU343     -0.1245
     86  CA        -2.1870   54.0690   -1.9690 C.3   343  LEU343      0.1561
     87  C         -3.5190   53.6480   -2.5780 C.2   343  LEU343      0.2260
     88  O         -3.7130   53.7630   -3.7900 O.2   343  LEU343     -0.2867
     89  CB        -1.3680   52.8350   -1.5880 C.3   343  LEU343      0.0270
     90  CG        -1.0130   51.8790   -2.7300 C.3   343  LEU343      0.0019
     91  CD1       -0.1220   52.5480   -3.7700 C.3   343  LEU343      0.0001
     92  CD2       -0.3550   50.6280   -2.1730 C.3   343  LEU343      0.0001
     93  N         -5.1490   56.2440   -4.7450 N.3   346  LEU346     -0.1245
     94  CA        -4.3380   56.7930   -5.8350 C.3   346  LEU346      0.1561
     95  C         -4.8340   56.3240   -7.2020 C.2   346  LEU346      0.2260
     96  O         -5.0710   55.1350   -7.4030 O.2   346  LEU346     -0.2867
     97  CB        -2.8760   56.3840   -5.6340 C.3   346  LEU346      0.0270
     98  CG        -1.8260   57.0330   -6.5300 C.3   346  LEU346      0.0019
     99  CD1       -1.6480   58.4970   -6.1640 C.3   346  LEU346      0.0001
    100  CD2       -0.5110   56.2930   -6.4010 C.3   346  LEU346      0.0001
    101  N         -3.3920   55.9230  -10.1560 N.3   348  THR348     -0.1203
    102  CA        -2.5170   54.9600  -10.8230 C.3   348  THR348      0.1994
    103  C         -2.4660   53.5940  -10.1330 C.2   348  THR348      0.2617
    104  O         -2.0090   52.6270  -10.7290 O.2   348  THR348     -0.2717
    105  CB        -1.0800   55.5020  -10.9570 C.3   348  THR348      0.1784
    106  OG1       -0.5940   55.9080   -9.6740 O.3   348  THR348     -0.2211
    107  CG2       -1.0430   56.6920  -11.9160 C.3   348  THR348      0.0376
    108  N         -2.9120   53.5200   -8.8840 N.am  349  PHE349     -0.1975
    109  CA        -2.9830   52.2400   -8.1690 C.3   349  PHE349      0.1639
    110  C         -4.1240   51.3400   -8.6420 C.2   349  PHE349      0.2290
    111  O         -4.0290   50.1140   -8.5390 O.2   349  PHE349     -0.2864
    112  CB        -3.1070   52.4780   -6.6550 C.3   349  PHE349      0.0560
    113  CG        -3.4080   51.2310   -5.8690 C.ar  349  PHE349     -0.0200
    114  CD1       -2.4110   50.3040   -5.6080 C.ar  349  PHE349     -0.0042
    115  CD2       -4.6950   50.9720   -5.4160 C.ar  349  PHE349     -0.0042
    116  CE1       -2.6840   49.1440   -4.8950 C.ar  349  PHE349     -0.0003
    117  CE2       -4.9780   49.8180   -4.7110 C.ar  349  PHE349     -0.0003
    118  CZ        -3.9720   48.9030   -4.4450 C.ar  349  PHE349     -0.0000
    119  N         -5.4580   50.0830  -11.3150 N.3   351  GLN351     -0.1231
    120  CA        -5.1070   48.9470  -12.1820 C.3   351  GLN351      0.1698
    121  C         -4.4780   47.7380  -11.4690 C.2   351  GLN351      0.2592
    122  O         -4.5030   46.6330  -12.0100 O.2   351  GLN351     -0.2718
    123  CB        -4.1720   49.4050  -13.3090 C.3   351  GLN351      0.0381
    124  CG        -2.7980   49.8650  -12.8340 C.3   351  GLN351      0.0905
    125  CD        -2.0910   50.7360  -13.8520 C.2   351  GLN351      0.2608
    126  OE1       -1.9100   50.3310  -14.9960 O.2   351  GLN351     -0.2717
    127  NE2       -1.6790   51.9320  -13.4370 N.am  351  GLN351     -0.0878
    128  N         -3.9130   47.9440  -10.2760 N.am  352  MET352     -0.1979
    129  CA        -3.2430   46.8760   -9.5340 C.3   352  MET352      0.1605
    130  C         -4.1390   46.0970   -8.5780 C.2   352  MET352      0.2287
    131  O         -3.7090   45.0660   -8.0670 O.2   352  MET352     -0.2864
    132  CB        -2.0460   47.4460   -8.7680 C.3   352  MET352      0.0413
    133  CG        -1.0530   48.1920   -9.6520 C.3   352  MET352      0.0598
    134  SD        -0.4640   47.2540  -11.0750 S.3   352  MET352     -0.1393
    135  CE         0.5000   45.9770  -10.2720 C.3   352  MET352      0.0692
    136  N          3.3170   43.1670   -5.5450 N.3   372  PHE372     -0.1241
    137  CA         4.7650   43.2080   -5.4010 C.3   372  PHE372      0.1605
    138  C          5.2140   44.6550   -5.5620 C.2   372  PHE372      0.2264
    139  O          4.4590   45.4730   -6.1140 O.2   372  PHE372     -0.2867
    140  CB         5.4460   42.3120   -6.4510 C.3   372  PHE372      0.0534
    141  CG         5.2690   42.7920   -7.8670 C.ar  372  PHE372     -0.0203
    142  CD1        4.1100   42.5130   -8.5790 C.ar  372  PHE372     -0.0042
    143  CD2        6.2660   43.5360   -8.4910 C.ar  372  PHE372     -0.0042
    144  CE1        3.9450   42.9680   -9.8790 C.ar  372  PHE372     -0.0003
    145  CE2        6.1060   43.9950   -9.7880 C.ar  372  PHE372     -0.0003
    146  CZ         4.9450   43.7130  -10.4850 C.ar  372  PHE372     -0.0000
@<TRIPOS>BOND
     1   126   125    2
     2   125   127   am
     3   125   124    1
     4   123   124    1
     5   123   120    1
     6   120   121    1
     7   120   119    1
     8   122   121    2
     9   107   105    1
    10   121   128   am
    11   134   135    1
    12   134   133    1
    13   105   102    1
    14   105   106    1
    15   102   101    1
    16   102   103    1
    17   104   103    2
    18   146   144   ar
    19   146   145   ar
    20   128   129    1
    21   103   108   am
    22   144   142   ar
    23   145   143   ar
    24    84    83    1
    25   133   132    1
    26    68    66   ar
    27   129   132    1
    28   129   130    1
    29    67    66   ar
    30    66    65    1
    31   108   109    1
    32   110   111    2
    33   110   109    1
    34   142   141   ar
    35   130   131    2
    36   143   141   ar
    37    83    82   ar
    38    83    81   ar
    39   109   112    1
    40    82    80   ar
    41   141   140    1
    42    81    79   ar
    43    65    64    1
    44    96    95    2
    45    95    94    1
    46    64    61    1
    47    80    78   ar
    48   112   113    1
    49    79    78   ar
    50    98   100    1
    51    98    99    1
    52    98    97    1
    53   140   137    1
    54   139   138    2
    55    78    77    1
    56    63    62    2
    57   113   114   ar
    58   113   115   ar
    59    94    97    1
    60    94    93    1
    61   114   116   ar
    62   138   137    1
    63   136   137    1
    64    61    62    1
    65    61    60    1
    66   115   117   ar
    67    10     8   ar
    68    10    11   ar
    69    62    69   am
    70     8     6   ar
    71   116   118   ar
    72    12    11    1
    73   117   118   ar
    74    77    74    1
    75    11     9   ar
    76    58    57    1
    77    88    87    2
    78    52    51    1
    79    91    90    1
    80    69    70    1
    81    59    57    1
    82     6     5    1
    83     6     7   ar
    84    73    74    1
    85    73    71   am
    86    57    54    1
    87    74    75    1
    88    70    71    1
    89     5     2    1
    90     9     7   ar
    91    71    72    2
    92    51    49   ar
    93    51    50   ar
    94    49    47   ar
    95    90    92    1
    96    90    89    1
    97     2     1    1
    98     2     3    1
    99    87    86    1
   100    75    76    2
   101    56    55    2
   102    54    55    1
   103    54    53    1
   104    86    89    1
   105    86    85    1
   106    50    48   ar
   107    47    46   ar
   108     3     4    2
   109    48    46   ar
   110    46    45    1
   111    31    30    1
   112    45    42    1
   113    17    14    1
   114    14    13    1
   115    14    15    1
   116    32    30    1
   117    25    23    1
   118    30    27    1
   119    42    43    1
   120    42    41    1
   121    44    43    2
   122    40    38    1
   123    23    22    1
   124    18    15   am
   125    18    19    1
   126    29    28    2
   127    15    16    2
   128    27    28    1
   129    27    26    1
   130    28    33   am
   131    22    19    1
   132    22    24    1
   133    38    39    1
   134    38    37    1
   135    19    20    1
   136    33    34    1
   137    34    37    1
   138    34    35    1
   139    21    20    2
   140    36    35    2
