@<TRIPOS>MOLECULE
tmp/5zzgA01.pdb
 101 97 0 0 0
SMALL
GASTEIGER

@<TRIPOS>ATOM
      1  N          4.1950   -2.5150    9.4110 N.3    29  LEU29      -0.1245
      2  CA         3.4090   -2.8070   10.6060 C.3    29  LEU29       0.1561
      3  C          3.9990   -2.1850   11.8520 C.2    29  LEU29       0.2260
      4  O          3.2570   -1.5950   12.6430 O.2    29  LEU29      -0.2867
      5  CB         3.1170   -4.3180   10.8030 C.3    29  LEU29       0.0270
      6  CG         2.2180   -4.9320    9.6980 C.3    29  LEU29       0.0019
      7  CD1        1.8890   -6.4040   10.0170 C.3    29  LEU29       0.0001
      8  CD2        0.9650   -4.0770    9.4760 C.3    29  LEU29       0.0001
      9  N          3.2970    1.4990   11.7660 N.3    32  LEU32      -0.1231
     10  CA         1.8910    1.6990   12.0640 C.3    32  LEU32       0.1693
     11  C          1.6090    1.6310   13.5590 C.2    32  LEU32       0.2592
     12  O          0.9290    2.5260   14.1130 O.2    32  LEU32      -0.2718
     13  CB         1.0420    0.6580   11.4180 C.3    32  LEU32       0.0284
     14  CG        -0.4780    0.7070   11.6590 C.3    32  LEU32       0.0019
     15  CD1       -1.1190    1.9830   11.1350 C.3    32  LEU32       0.0001
     16  CD2       -1.1540   -0.5150   11.0550 C.3    32  LEU32       0.0001
     17  N          2.1250    0.5750   14.2020 N.am   33  PHE33      -0.1976
     18  CA         1.8510    0.3510   15.6330 C.3    33  PHE33       0.1639
     19  C          2.5240    1.3980   16.5140 C.2    33  PHE33       0.2290
     20  O          1.9560    1.7700   17.5520 O.2    33  PHE33      -0.2864
     21  CB         2.3320   -1.0020   16.0870 C.3    33  PHE33       0.0560
     22  CG         1.7270   -2.1460   15.3370 C.ar   33  PHE33      -0.0200
     23  CD1        0.4830   -2.0540   14.7720 C.ar   33  PHE33      -0.0042
     24  CD2        2.4020   -3.3460   15.2620 C.ar   33  PHE33      -0.0042
     25  CE1       -0.0740   -3.1080   14.1100 C.ar   33  PHE33      -0.0003
     26  CE2        1.8410   -4.4150   14.6010 C.ar   33  PHE33      -0.0003
     27  CZ         0.6110   -4.2950   14.0270 C.ar   33  PHE33      -0.0000
     28  N         -6.5520   -6.4230   18.0920 N.3    43  TYR43      -0.1241
     29  CA        -5.7470   -7.6600   18.1450 C.3    43  TYR43       0.1605
     30  C         -5.7120   -8.3080   19.4960 C.2    43  TYR43       0.2264
     31  O         -5.7090   -7.6430   20.5250 O.2    43  TYR43      -0.2867
     32  CB        -4.2640   -7.4100   17.7980 C.3    43  TYR43       0.0534
     33  CG        -4.0290   -6.5990   16.5480 C.ar   43  TYR43      -0.0201
     34  CD1       -3.2390   -7.0710   15.5180 C.ar   43  TYR43      -0.0009
     35  CD2       -4.6040   -5.3470   16.3940 C.ar   43  TYR43      -0.0009
     36  CE1       -3.0430   -6.3040   14.3780 C.ar   43  TYR43       0.0417
     37  CE2       -4.4200   -4.5970   15.2590 C.ar   43  TYR43       0.0417
     38  CZ        -3.6370   -5.0720   14.2560 C.ar   43  TYR43       0.1957
     39  OH        -3.4560   -4.2960   13.1460 O.3    43  TYR43      -0.2866
     40  N         -3.7320  -11.6040   18.7310 N.3    45  ARG45      -0.1231
     41  CA        -2.5550  -12.2800   18.0930 C.3    45  ARG45       0.1694
     42  C         -1.2290  -11.8690   18.7730 C.2    45  ARG45       0.2592
     43  O         -0.6110  -12.6310   19.5430 O.2    45  ARG45      -0.2718
     44  CB        -2.4860  -12.0140   16.5510 C.3    45  ARG45       0.0321
     45  CG        -2.5470  -13.2490   15.6360 C.3    45  ARG45       0.0489
     46  CD        -2.0070  -12.9890   14.2130 C.3    45  ARG45       0.2205
     47  NE        -1.9450  -14.2280   13.4060 N.pl3  45  ARG45      -0.0865
     48  CZ        -1.1130  -14.4820   12.3750 C.cat  45  ARG45       0.5346
     49  NH1       -0.2150  -13.6000   11.9510 N.pl3  45  ARG45       0.1354
     50  NH2       -1.1730  -15.6570   11.7490 N.pl3  45  ARG45       0.1354
     51  N         -0.8350  -10.6310   18.5000 N.am   46  PHE46      -0.1976
     52  CA         0.3500  -10.0370   19.0780 C.3    46  PHE46       0.1639
     53  C          0.0680   -8.6160   19.4990 C.2    46  PHE46       0.2290
     54  O          0.8960   -7.7630   19.3660 O.2    46  PHE46      -0.2864
     55  CB         1.4950  -10.0560   18.0800 C.3    46  PHE46       0.0560
     56  CG         1.1140   -9.5860   16.7310 C.ar   46  PHE46      -0.0200
     57  CD1        1.0620  -10.4870   15.7010 C.ar   46  PHE46      -0.0042
     58  CD2        0.7830   -8.2550   16.5010 C.ar   46  PHE46      -0.0042
     59  CE1        0.7250  -10.0930   14.4590 C.ar   46  PHE46      -0.0003
     60  CE2        0.4210   -7.8550   15.2540 C.ar   46  PHE46      -0.0003
     61  CZ         0.3910   -8.7790   14.2200 C.ar   46  PHE46      -0.0000
     62  N          1.6560  -11.6140    8.8790 N.3    64  ASP64      -0.1239
     63  CA         0.6440  -10.6200    8.6580 C.3    64  ASP64       0.1674
     64  C          1.1040   -9.5370    7.6660 C.2    64  ASP64       0.2266
     65  O          0.2850   -9.0980    6.8660 O.2    64  ASP64      -0.2867
     66  CB         0.1580  -10.0050    9.9920 C.3    64  ASP64       0.1410
     67  CG        -0.8570  -10.9390   10.7760 C.2    64  ASP64       0.3668
     68  OD1       -1.3050  -12.0080   10.2520 O.co2  64  ASP64      -0.2456
     69  OD2       -1.1660  -10.6370   11.9740 O.co2  64  ASP64      -0.2456
     70  N          0.7470  -10.7820    4.3140 N.3    67  THR67      -0.1203
     71  CA        -0.6670  -10.8980    3.9180 C.3    67  THR67       0.1994
     72  C         -1.1470   -9.5600    3.3320 C.2    67  THR67       0.2617
     73  O         -1.6600   -9.4780    2.2390 O.2    67  THR67      -0.2717
     74  CB        -1.5310  -11.3090    5.0810 C.3    67  THR67       0.1784
     75  OG1       -1.1950  -12.6500    5.5020 O.3    67  THR67      -0.2211
     76  CG2       -2.9970  -11.2640    4.7790 C.3    67  THR67       0.0376
     77  N         -0.8600   -8.5040    4.0880 N.am   68  VAL68      -0.1979
     78  CA        -1.1870   -7.1280    3.6320 C.3    68  VAL68       0.1595
     79  C         -0.5640   -6.7500    2.3080 C.2    68  VAL68       0.2287
     80  O         -1.2480   -6.2800    1.3410 O.2    68  VAL68      -0.2864
     81  CB        -0.7990   -6.1210    4.7170 C.3    68  VAL68       0.0276
     82  CG1       -1.1260   -4.6800    4.2220 C.3    68  VAL68       0.0022
     83  CG2       -1.5320   -6.4010    5.9120 C.3    68  VAL68       0.0022
     84  N        -13.0960   -6.6940    6.1470 N.3    93  HIS93      -0.1241
     85  CA       -12.6340   -5.5390    6.9410 C.3    93  HIS93       0.1621
     86  C        -13.8580   -4.7240    7.4430 C.2    93  HIS93       0.2264
     87  O        -13.7790   -4.0950    8.5300 O.2    93  HIS93      -0.2867
     88  CB       -11.5700   -4.6790    6.1810 C.3    93  HIS93       0.0745
     89  CG       -10.2300   -5.3460    6.0850 C.ar   93  HIS93       0.0817
     90  ND1      -10.0720   -6.5710    5.4750 N.ar   93  HIS93      -0.2268
     91  CD2       -9.0210   -5.0300    6.6060 C.ar   93  HIS93       0.1154
     92  CE1       -8.8310   -6.9700    5.5970 C.ar   93  HIS93       0.1986
     93  NE2       -8.1720   -6.0640    6.2940 N.ar   93  HIS93      -0.2212
     94  N         -2.2010    3.3330    7.7960 N.3   107  ILE107     -0.1245
     95  CA        -1.2990    2.3780    7.1910 C.3   107  ILE107      0.1561
     96  C         -0.7490    2.9250    5.8780 C.2   107  ILE107      0.2260
     97  O          0.3730    2.6900    5.5530 O.2   107  ILE107     -0.2867
     98  CB        -1.9190    0.9310    7.0500 C.3   107  ILE107      0.0252
     99  CG1       -0.8270   -0.1310    6.7920 C.3   107  ILE107      0.0019
    100  CG2       -2.9510    0.8630    5.9070 C.3   107  ILE107      0.0019
    101  CD1       -1.4000   -1.5310    6.9400 C.3   107  ILE107      0.0001
@<TRIPOS>BOND
     1    80    79    2
     2    73    72    2
     3    79    78    1
     4    72    71    1
     5    72    77   am
     6    78    77    1
     7    78    81    1
     8    71    70    1
     9    71    74    1
    10    82    81    1
    11    81    83    1
    12    76    74    1
    13    74    75    1
    14    90    92   ar
    15    90    89   ar
    16    97    96    2
    17    92    93   ar
    18    96    95    1
    19   100    98    1
    20    89    88    1
    21    89    91   ar
    22    84    85    1
    23    88    85    1
    24    93    91   ar
    25    99   101    1
    26    99    98    1
    27    65    64    2
    28    85    86    1
    29    98    95    1
    30    95    94    1
    31    86    87    2
    32    64    63    1
    33    63    62    1
    34    63    66    1
    35     1     2    1
    36     8     6    1
    37     6     7    1
    38     6     5    1
    39    66    67    1
    40    68    67   ar
    41     2     5    1
    42     2     3    1
    43    67    69   ar
    44    16    14    1
    45    15    14    1
    46    13    14    1
    47    13    10    1
    48    50    48    1
    49     9    10    1
    50     3     4    2
    51    49    48    1
    52    10    11    1
    53    48    47    2
    54    39    38    1
    55    47    46    1
    56    11    12    2
    57    11    17   am
    58    27    25   ar
    59    27    26   ar
    60    25    23   ar
    61    17    18    1
    62    46    45    1
    63    61    59   ar
    64    61    60   ar
    65    38    36   ar
    66    38    37   ar
    67    36    34   ar
    68    59    57   ar
    69    26    24   ar
    70    23    22   ar
    71    60    58   ar
    72    37    35   ar
    73    24    22   ar
    74    22    21    1
    75    34    33   ar
    76    18    21    1
    77    18    19    1
    78    45    44    1
    79    57    56   ar
    80    35    33   ar
    81    58    56   ar
    82    19    20    2
    83    33    32    1
    84    44    41    1
    85    56    55    1
    86    32    29    1
    87    55    52    1
    88    28    29    1
    89    41    40    1
    90    41    42    1
    91    29    30    1
    92    51    42   am
    93    51    52    1
    94    42    43    2
    95    52    53    1
    96    54    53    2
    97    30    31    2
