@<TRIPOS>MOLECULE
tmp/5zznV12.pdb
 77 73 0 0 0
SMALL
GASTEIGER

@<TRIPOS>ATOM
      1  N        -92.7420   28.9050   22.2540 N.3   155  LEU155     -0.1245
      2  CA       -93.9750   29.7170   22.2660 C.3   155  LEU155      0.1561
      3  C        -93.6380   31.1840   22.2880 C.2   155  LEU155      0.2260
      4  O        -94.4260   31.9750   21.8470 O.2   155  LEU155     -0.2867
      5  CB       -94.8740   29.3450   23.4240 C.3   155  LEU155      0.0270
      6  CG       -95.3930   27.9250   23.3320 C.3   155  LEU155      0.0019
      7  CD1      -96.2290   27.6450   24.5590 C.3   155  LEU155      0.0001
      8  CD2      -96.1990   27.7140   22.0630 C.3   155  LEU155      0.0001
      9  N        -93.6050   32.1550   18.6760 N.3   158  VAL158     -0.1231
     10  CA       -94.9870   32.2910   18.2620 C.3   158  VAL158      0.1692
     11  C        -95.5240   33.6330   18.7240 C.2   158  VAL158      0.2591
     12  O        -96.1150   34.3590   17.9370 O.2   158  VAL158     -0.2718
     13  CB       -95.8740   31.1760   18.8410 C.3   158  VAL158      0.0266
     14  CG1      -97.3060   31.3900   18.4010 C.3   158  VAL158      0.0020
     15  CG2      -95.3790   29.7790   18.3910 C.3   158  VAL158      0.0020
     16  N        -95.1930   34.0130   19.9620 N.am  159  ALA159     -0.1980
     17  CA       -95.6750   35.2690   20.5280 C.3   159  ALA159      0.1597
     18  C        -95.1550   36.4620   19.7320 C.2   159  ALA159      0.2287
     19  O        -95.9290   37.3660   19.3540 O.2   159  ALA159     -0.2864
     20  CB       -95.3030   35.3650   22.0060 C.3   159  ALA159      0.0319
     21  N        -97.0310   36.4030   16.2080 N.3   162  MET162     -0.1230
     22  CA       -98.5210   36.6200   16.2400 C.3   162  MET162      0.1702
     23  C        -98.9930   37.9160   16.9580 C.2   162  MET162      0.2592
     24  O        -99.9690   38.5540   16.5240 O.2   162  MET162     -0.2718
     25  CB       -99.1920   35.4250   16.8710 C.3   162  MET162      0.0401
     26  CG       -98.9590   34.1210   16.1240 C.3   162  MET162      0.0596
     27  SD      -100.0550   32.7780   16.5940 S.3   162  MET162     -0.1393
     28  CE      -101.6170   33.4680   15.9930 C.3   162  MET162      0.0692
     29  N        -98.2970   38.3010   18.0330 N.am  163  PHE163     -0.1976
     30  CA       -98.7420   39.3980   18.9080 C.3   163  PHE163      0.1639
     31  C        -97.7690   40.5260   19.0920 C.2   163  PHE163      0.2290
     32  O        -98.1800   41.5400   19.6150 O.2   163  PHE163     -0.2864
     33  CB       -99.1350   38.8690   20.3020 C.3   163  PHE163      0.0560
     34  CG      -100.0050   37.6750   20.2430 C.ar  163  PHE163     -0.0200
     35  CD1     -101.2150   37.7350   19.5600 C.ar  163  PHE163     -0.0042
     36  CD2      -99.6180   36.4810   20.8010 C.ar  163  PHE163     -0.0042
     37  CE1     -102.0400   36.6270   19.4570 C.ar  163  PHE163     -0.0003
     38  CE2     -100.4220   35.3560   20.6800 C.ar  163  PHE163     -0.0003
     39  CZ      -101.6520   35.4380   20.0270 C.ar  163  PHE163     -0.0000
     40  N       -101.1740   35.7250   11.3580 N.3   182  THR182     -0.1203
     41  CA      -102.5040   35.5290   11.9660 C.3   182  THR182      0.1994
     42  C       -103.0740   34.1200   11.7670 C.2   182  THR182      0.2618
     43  O       -103.9380   33.7060   12.5510 O.2   182  THR182     -0.2717
     44  CB      -103.5350   36.5300   11.3620 C.3   182  THR182      0.1784
     45  OG1     -103.5600   36.3660    9.9420 O.3   182  THR182     -0.2211
     46  CG2     -103.1370   37.9570   11.6360 C.3   182  THR182      0.0376
     47  N       -102.6250   33.3970   10.7300 N.am  183  ASN183     -0.1960
     48  CA      -103.1780   32.0750   10.4120 C.3   183  ASN183      0.1804
     49  C       -102.0890   30.9870   10.3830 C.2   183  ASN183      0.2463
     50  O       -101.8420   30.3670    9.3430 O.2   183  ASN183     -0.2730
     51  CB      -103.9520   32.1380    9.0810 C.3   183  ASN183      0.1195
     52  CG      -105.2850   32.8790    9.2190 C.2   183  ASN183      0.2630
     53  OD1     -105.3380   34.0990    9.4740 O.2   183  ASN183     -0.2716
     54  ND2     -106.3770   32.1350    9.0800 N.am  183  ASN183     -0.0877
     55  N       -101.4270   30.7420   11.5310 N.am  184  PRO184     -0.2727
     56  CA      -100.4090   29.7040   11.5680 C.3   184  PRO184      0.1402
     57  C       -100.9560   28.3490   11.2130 C.2   184  PRO184      0.2269
     58  O       -102.1230   28.0470   11.4980 O.2   184  PRO184     -0.2865
     59  CB       -99.9380   29.7280   13.0220 C.3   184  PRO184      0.0296
     60  CG      -101.1190   30.2030   13.7800 C.3   184  PRO184      0.0237
     61  CD      -101.6820   31.2710   12.8850 C.3   184  PRO184      0.0939
     62  N       -101.8080   24.7230   11.5010 N.3   186  LEU186     -0.1245
     63  CA      -101.9980   23.8080   12.6030 C.3   186  LEU186      0.1561
     64  C       -102.2240   22.4000   12.1810 C.2   186  LEU186      0.2260
     65  O       -102.1770   21.4800   13.0200 O.2   186  LEU186     -0.2867
     66  CB      -103.1930   24.2770   13.4760 C.3   186  LEU186      0.0270
     67  CG      -103.1550   25.6500   14.1800 C.3   186  LEU186      0.0019
     68  CD1     -104.4520   25.9200   15.0040 C.3   186  LEU186      0.0001
     69  CD2     -101.9290   25.8150   15.0540 C.3   186  LEU186      0.0001
     70  N        -95.8420   26.1390   17.4610 N.3   220  ILE220     -0.1245
     71  CA       -96.9870   25.9190   18.3620 C.3   220  ILE220      0.1561
     72  C        -96.9850   24.4410   18.7140 C.2   220  ILE220      0.2260
     73  O        -96.9800   24.0740   19.9050 O.2   220  ILE220     -0.2867
     74  CB       -98.3440   26.3330   17.7490 C.3   220  ILE220      0.0252
     75  CG1      -98.3990   27.8710   17.6420 C.3   220  ILE220      0.0019
     76  CG2      -99.5110   25.7830   18.5690 C.3   220  ILE220      0.0019
     77  CD1      -99.4730   28.4050   16.6980 C.3   220  ILE220      0.0001
@<TRIPOS>BOND
     1    54    52   am
     2    51    52    1
     3    51    48    1
     4    52    53    2
     5    50    49    2
     6    45    44    1
     7    49    48    1
     8    49    55   am
     9    48    47    1
    10    47    42   am
    11    57    58    2
    12    57    56    1
    13    40    41    1
    14    44    46    1
    15    44    41    1
    16    62    63    1
    17    55    56    1
    18    55    61    1
    19    56    59    1
    20    42    41    1
    21    42    43    2
    22    64    63    1
    23    64    65    2
    24    63    66    1
    25    61    60    1
    26    59    60    1
    27    66    67    1
    28    67    68    1
    29    67    69    1
    30    28    27    1
    31    26    27    1
    32    26    25    1
    33    21    22    1
    34    22    25    1
    35    22    23    1
    36    24    23    2
    37    77    75    1
    38    23    29   am
    39    70    71    1
    40    75    74    1
    41    74    71    1
    42    74    76    1
    43    12    11    2
    44    29    30    1
    45    10     9    1
    46    10    11    1
    47    10    13    1
    48    71    72    1
    49    15    13    1
    50    14    13    1
    51    72    73    2
    52    11    16   am
    53    30    31    1
    54    30    33    1
    55    31    32    2
    56    19    18    2
    57    37    35   ar
    58    37    39   ar
    59    35    34   ar
    60    18    17    1
    61    16    17    1
    62    39    38   ar
    63    34    33    1
    64    34    36   ar
    65    17    20    1
    66    38    36   ar
    67     4     3    2
    68     8     6    1
    69     1     2    1
    70     2     3    1
    71     2     5    1
    72     6     5    1
    73     6     7    1
