@<TRIPOS>MOLECULE
tmp/5zznA12.pdb
 105 103 0 0 0
SMALL
GASTEIGER

@<TRIPOS>ATOM
      1  N        -19.8850  -59.2100  -24.8830 N.3   130  ARG130     -0.1245
      2  CA       -20.0170  -59.6130  -26.2930 C.3   130  ARG130      0.1563
      3  C        -20.1190  -58.3760  -27.2160 C.2   130  ARG130      0.2260
      4  O        -20.4680  -57.2950  -26.7430 O.2   130  ARG130     -0.2867
      5  CB       -21.1350  -60.6210  -26.4640 C.3   130  ARG130      0.0307
      6  CG       -20.6850  -62.0190  -25.9970 C.3   130  ARG130      0.0489
      7  CD       -21.7590  -62.7610  -25.2200 C.3   130  ARG130      0.2205
      8  NE       -23.0000  -62.8330  -26.0160 N.pl3 130  ARG130     -0.0865
      9  CZ       -23.2020  -63.7090  -26.9870 C.cat 130  ARG130      0.5346
     10  NH1      -22.2420  -64.6030  -27.3380 N.pl3 130  ARG130      0.1354
     11  NH2      -24.3480  -63.6950  -27.6270 N.pl3 130  ARG130      0.1354
     12  N        -21.5090  -57.3140  -30.3540 N.3   132  TRP132     -0.1241
     13  CA       -22.4030  -57.0430  -31.5020 C.3   132  TRP132      0.1605
     14  C        -23.4930  -55.9200  -31.3650 C.2   132  TRP132      0.2264
     15  O        -24.3020  -55.7250  -32.3060 O.2   132  TRP132     -0.2867
     16  CB       -23.0400  -58.3570  -31.9470 C.3   132  TRP132      0.0550
     17  CG       -22.0220  -59.4070  -32.3320 C.ar  132  TRP132      0.0003
     18  CD1      -21.0220  -59.2910  -33.2380 C.ar  132  TRP132      0.0946
     19  CD2      -21.9640  -60.7350  -31.8320 C.ar  132  TRP132      0.0152
     20  NE1      -20.3380  -60.4860  -33.3460 N.ar  132  TRP132     -0.2442
     21  CE2      -20.8750  -61.3730  -32.4600 C.ar  132  TRP132      0.0810
     22  CE3      -22.6740  -61.4160  -30.8720 C.ar  132  TRP132      0.0012
     23  CZ2      -20.5300  -62.7160  -32.2100 C.ar  132  TRP132      0.0191
     24  CZ3      -22.3510  -62.7550  -30.6120 C.ar  132  TRP132      0.0001
     25  CH2      -21.2750  -63.3850  -31.2840 C.ar  132  TRP132      0.0015
     26  N        -23.2050  -53.9650  -34.4220 N.3   135  VAL135     -0.1231
     27  CA       -23.9110  -54.5630  -35.5620 C.3   135  VAL135      0.1692
     28  C        -25.3950  -54.1200  -35.6740 C.2   135  VAL135      0.2591
     29  O        -25.8630  -53.8710  -36.7670 O.2   135  VAL135     -0.2718
     30  CB       -23.7600  -56.1230  -35.5840 C.3   135  VAL135      0.0266
     31  CG1      -24.5890  -56.7260  -36.6760 C.3   135  VAL135      0.0020
     32  CG2      -22.2560  -56.4900  -35.7860 C.3   135  VAL135      0.0020
     33  N        -26.0710  -54.0130  -34.5370 N.am  136  ALA136     -0.1980
     34  CA       -27.4090  -53.4810  -34.5190 C.3   136  ALA136      0.1597
     35  C        -27.3980  -52.0350  -34.9940 C.2   136  ALA136      0.2287
     36  O        -28.2000  -51.6800  -35.8270 O.2   136  ALA136     -0.2864
     37  CB       -28.0040  -53.5680  -33.1560 C.3   136  ALA136      0.0319
     38  N        -39.9390  -54.7060  -46.9710 N.3   190  LEU190     -0.1245
     39  CA       -39.2230  -55.2990  -45.8520 C.3   190  LEU190      0.1561
     40  C        -38.9410  -54.2780  -44.7510 C.2   190  LEU190      0.2260
     41  O        -39.0610  -54.5890  -43.5360 O.2   190  LEU190     -0.2867
     42  CB       -37.9400  -55.9780  -46.3240 C.3   190  LEU190      0.0270
     43  CG       -38.2510  -57.3130  -47.0640 C.3   190  LEU190      0.0019
     44  CD1      -36.9430  -57.8270  -47.7110 C.3   190  LEU190      0.0001
     45  CD2      -38.8410  -58.3750  -46.1350 C.3   190  LEU190      0.0001
     46  N        -32.9070  -62.2570  -28.9670 N.3   263  PHE263     -0.1241
     47  CA       -32.1970  -62.2850  -30.2530 C.3   263  PHE263      0.1605
     48  C        -33.2300  -61.8990  -31.3560 C.2   263  PHE263      0.2264
     49  O        -32.9130  -61.1520  -32.2530 O.2   263  PHE263     -0.2867
     50  CB       -31.6070  -63.6620  -30.5840 C.3   263  PHE263      0.0534
     51  CG       -31.1180  -63.7470  -31.9970 C.ar  263  PHE263     -0.0203
     52  CD1      -30.0040  -63.0090  -32.3930 C.ar  263  PHE263     -0.0042
     53  CD2      -31.7840  -64.4750  -32.9410 C.ar  263  PHE263     -0.0042
     54  CE1      -29.5720  -63.0220  -33.7260 C.ar  263  PHE263     -0.0003
     55  CE2      -31.3560  -64.4960  -34.2500 C.ar  263  PHE263     -0.0003
     56  CZ       -30.2690  -63.7790  -34.6400 C.ar  263  PHE263     -0.0000
     57  N        -33.8210  -58.2380  -31.4270 N.3   266  ALA266     -0.1231
     58  CA       -32.7190  -57.5910  -32.1500 C.3   266  ALA266      0.1694
     59  C        -32.8240  -57.7640  -33.6340 C.2   266  ALA266      0.2591
     60  O        -32.7530  -56.7750  -34.4240 O.2   266  ALA266     -0.2718
     61  CB       -31.3670  -58.1270  -31.6720 C.3   266  ALA266      0.0304
     62  N        -33.0140  -59.0180  -34.0440 N.am  267  ALA267     -0.1980
     63  CA       -32.8910  -59.3610  -35.4640 C.3   267  ALA267      0.1597
     64  C        -33.9800  -58.7370  -36.3550 C.2   267  ALA267      0.2287
     65  O        -33.7110  -58.3780  -37.4820 O.2   267  ALA267     -0.2864
     66  CB       -32.8890  -60.8840  -35.6380 C.3   267  ALA267      0.0319
     67  N        -33.4650  -54.9680  -37.1520 N.3   270  VAL270     -0.1231
     68  CA       -32.1340  -54.7280  -37.7340 C.3   270  VAL270      0.1692
     69  C        -32.1270  -55.2210  -39.1700 C.2   270  VAL270      0.2591
     70  O        -31.8460  -54.4800  -40.0570 O.2   270  VAL270     -0.2718
     71  CB       -31.0180  -55.3660  -36.8930 C.3   270  VAL270      0.0266
     72  CG1      -29.7090  -55.3920  -37.6630 C.3   270  VAL270      0.0020
     73  CG2      -30.8260  -54.5690  -35.5970 C.3   270  VAL270      0.0020
     74  N        -32.5480  -56.4390  -39.4030 N.am  271  VAL271     -0.1980
     75  CA       -32.6150  -56.9960  -40.7380 C.3   271  VAL271      0.1595
     76  C        -33.5550  -56.2190  -41.6610 C.2   271  VAL271      0.2287
     77  O        -33.1810  -55.9260  -42.8040 O.2   271  VAL271     -0.2864
     78  CB       -33.0520  -58.4970  -40.7100 C.3   271  VAL271      0.0276
     79  CG1      -33.2850  -59.0270  -42.0990 C.3   271  VAL271      0.0022
     80  CG2      -31.9440  -59.3500  -40.0490 C.3   271  VAL271      0.0022
     81  N        -31.8500  -53.1060  -42.5320 N.3   274  TRP274     -0.1227
     82  CA       -30.7110  -53.3500  -43.4830 C.3   274  TRP274      0.1737
     83  C        -31.3170  -53.4170  -44.9010 C.2   274  TRP274      0.2595
     84  O        -30.8110  -52.8090  -45.8280 O.2   274  TRP274     -0.2718
     85  CB       -29.9990  -54.6590  -43.2200 C.3   274  TRP274      0.0564
     86  CG       -28.9480  -54.6110  -42.0990 C.ar  274  TRP274      0.0003
     87  CD1      -28.2190  -53.5280  -41.6660 C.ar  274  TRP274      0.0946
     88  CD2      -28.4790  -55.7320  -41.3550 C.ar  274  TRP274      0.0152
     89  NE1      -27.3480  -53.9130  -40.6540 N.ar  274  TRP274     -0.2442
     90  CE2      -27.4980  -55.2520  -40.4310 C.ar  274  TRP274      0.0810
     91  CE3      -28.7840  -57.0920  -41.3720 C.ar  274  TRP274      0.0012
     92  CZ2      -26.8970  -56.0710  -39.5200 C.ar  274  TRP274      0.0191
     93  CZ3      -28.1370  -57.9280  -40.4620 C.ar  274  TRP274      0.0001
     94  CH2      -27.1880  -57.4170  -39.5830 C.ar  274  TRP274      0.0015
     95  N        -32.4520  -54.0990  -45.0430 N.am  275  PHE275     -0.1976
     96  CA       -33.0900  -54.1630  -46.3770 C.3   275  PHE275      0.1639
     97  C        -33.5250  -52.7890  -46.8760 C.2   275  PHE275      0.2290
     98  O        -33.2840  -52.4650  -48.0160 O.2   275  PHE275     -0.2864
     99  CB       -34.2330  -55.2170  -46.4270 C.3   275  PHE275      0.0560
    100  CG       -33.7040  -56.5900  -46.6510 C.ar  275  PHE275     -0.0200
    101  CD1      -33.0870  -56.8990  -47.8480 C.ar  275  PHE275     -0.0042
    102  CD2      -33.7460  -57.5560  -45.6450 C.ar  275  PHE275     -0.0042
    103  CE1      -32.4860  -58.1550  -48.0680 C.ar  275  PHE275     -0.0003
    104  CE2      -33.1810  -58.8420  -45.8710 C.ar  275  PHE275     -0.0003
    105  CZ       -32.5220  -59.1180  -47.0790 C.ar  275  PHE275     -0.0000
@<TRIPOS>BOND
     1   103   101   ar
     2   103   105   ar
     3    98    97    2
     4   101   100   ar
     5    44    43    1
     6   105   104   ar
     7    43    42    1
     8    43    45    1
     9    38    39    1
    10    97    96    1
    11   100    99    1
    12   100   102   ar
    13    99    96    1
    14    96    95    1
    15    42    39    1
    16   104   102   ar
    17    39    40    1
    18    84    83    2
    19    95    83   am
    20    83    82    1
    21    40    41    2
    22    82    85    1
    23    82    81    1
    24    85    86    1
    25    77    76    2
    26    86    87   ar
    27    86    88   ar
    28    79    78    1
    29    87    89   ar
    30    76    75    1
    31    91    88   ar
    32    91    93   ar
    33    88    90   ar
    34    75    78    1
    35    75    74    1
    36    78    80    1
    37    89    90   ar
    38    93    94   ar
    39    90    92   ar
    40    70    69    2
    41    94    92   ar
    42    74    69   am
    43    69    68    1
    44    68    67    1
    45    68    71    1
    46    72    71    1
    47    65    64    2
    48    71    73    1
    49    29    28    2
    50    31    30    1
    51    64    63    1
    52    36    35    2
    53    32    30    1
    54    28    27    1
    55    28    33   am
    56    66    63    1
    57    30    27    1
    58    27    26    1
    59    63    62    1
    60    35    34    1
    61    56    55   ar
    62    56    54   ar
    63    33    34    1
    64    34    37    1
    65    60    59    2
    66    55    53   ar
    67    62    59   am
    68    54    52   ar
    69    59    58    1
    70    20    18   ar
    71    20    21   ar
    72    18    17   ar
    73    53    51   ar
    74    21    23   ar
    75    21    19   ar
    76    52    51   ar
    77    17    16    1
    78    17    19   ar
    79    15    14    2
    80    49    48    2
    81    23    25   ar
    82    58    61    1
    83    58    57    1
    84    51    50    1
    85    16    13    1
    86    19    22   ar
    87    13    14    1
    88    13    12    1
    89    48    47    1
    90    25    24   ar
    91    22    24   ar
    92    50    47    1
    93    47    46    1
    94    11     9    1
    95    10     9    1
    96     3     4    2
    97     3     2    1
    98     9     8    2
    99     5     2    1
   100     5     6    1
   101     2     1    1
   102     8     7    1
   103     6     7    1
