@<TRIPOS>MOLECULE
tmp/5zznA00.pdb
 97 95 0 0 0
SMALL
GASTEIGER

@<TRIPOS>ATOM
      1  N        -39.9390  -54.7060  -46.9710 N.3   190  LEU190     -0.1245
      2  CA       -39.2230  -55.2990  -45.8520 C.3   190  LEU190      0.1561
      3  C        -38.9410  -54.2780  -44.7510 C.2   190  LEU190      0.2260
      4  O        -39.0610  -54.5890  -43.5360 O.2   190  LEU190     -0.2867
      5  CB       -37.9400  -55.9780  -46.3240 C.3   190  LEU190      0.0270
      6  CG       -38.2510  -57.3130  -47.0640 C.3   190  LEU190      0.0019
      7  CD1      -36.9430  -57.8270  -47.7110 C.3   190  LEU190      0.0001
      8  CD2      -38.8410  -58.3750  -46.1350 C.3   190  LEU190      0.0001
      9  N        -42.1520  -53.6980  -42.8270 N.3   193  ALA193     -0.1231
     10  CA       -42.3430  -54.8560  -41.9430 C.3   193  ALA193      0.1694
     11  C        -41.3330  -54.8050  -40.7620 C.2   193  ALA193      0.2592
     12  O        -41.6670  -55.0690  -39.6140 O.2   193  ALA193     -0.2718
     13  CB       -42.1700  -56.1730  -42.7190 C.3   193  ALA193      0.0304
     14  N        -40.1180  -54.3630  -41.0410 N.am  194  GLY194     -0.1957
     15  CA       -39.2030  -54.1570  -39.9620 C.3   194  GLY194      0.1869
     16  C        -39.5350  -53.1480  -38.9030 C.2   194  GLY194      0.2309
     17  O        -39.3310  -53.4500  -37.7090 O.2   194  GLY194     -0.2863
     18  N        -42.2490  -67.6910  -26.9890 N.3   255  PHE255     -0.1241
     19  CA       -40.8930  -67.9540  -26.4860 C.3   255  PHE255      0.1605
     20  C        -40.9010  -68.1820  -24.9690 C.2   255  PHE255      0.2264
     21  O        -41.3980  -67.3330  -24.2070 O.2   255  PHE255     -0.2867
     22  CB       -40.0000  -66.7330  -26.7000 C.3   255  PHE255      0.0534
     23  CG       -39.6350  -66.4800  -28.1150 C.ar  255  PHE255     -0.0203
     24  CD1      -38.4840  -67.0370  -28.6380 C.ar  255  PHE255     -0.0042
     25  CD2      -40.3800  -65.5950  -28.9010 C.ar  255  PHE255     -0.0042
     26  CE1      -38.0910  -66.7660  -29.9290 C.ar  255  PHE255     -0.0003
     27  CE2      -39.9750  -65.3180  -30.1910 C.ar  255  PHE255     -0.0003
     28  CZ       -38.8380  -65.9100  -30.7090 C.ar  255  PHE255     -0.0000
     29  N        -33.3980  -66.4930  -26.7710 N.3   260  SER260     -0.1217
     30  CA       -33.9800  -66.6080  -28.0830 C.3   260  SER260      0.1889
     31  C        -34.9160  -65.4230  -28.3970 C.2   260  SER260      0.2288
     32  O        -34.8770  -64.8920  -29.4900 O.2   260  SER260     -0.2866
     33  CB       -34.7790  -67.8910  -28.1470 C.3   260  SER260      0.2089
     34  OG       -33.9020  -68.9640  -27.9450 O.3   260  SER260     -0.2183
     35  N        -32.9070  -62.2570  -28.9670 N.3   263  PHE263     -0.1227
     36  CA       -32.1970  -62.2850  -30.2530 C.3   263  PHE263      0.1736
     37  C        -33.2300  -61.8990  -31.3560 C.2   263  PHE263      0.2595
     38  O        -32.9130  -61.1520  -32.2530 O.2   263  PHE263     -0.2718
     39  CB       -31.6070  -63.6620  -30.5840 C.3   263  PHE263      0.0547
     40  CG       -31.1180  -63.7470  -31.9970 C.ar  263  PHE263     -0.0202
     41  CD1      -30.0040  -63.0090  -32.3930 C.ar  263  PHE263     -0.0042
     42  CD2      -31.7840  -64.4750  -32.9410 C.ar  263  PHE263     -0.0042
     43  CE1      -29.5720  -63.0220  -33.7260 C.ar  263  PHE263     -0.0003
     44  CE2      -31.3560  -64.4960  -34.2500 C.ar  263  PHE263     -0.0003
     45  CZ       -30.2690  -63.7790  -34.6400 C.ar  263  PHE263     -0.0000
     46  N        -34.4430  -62.4250  -31.2480 N.am  264  PHE264     -0.1976
     47  CA       -35.4720  -62.1500  -32.1990 C.3   264  PHE264      0.1639
     48  C        -35.7770  -60.6130  -32.1950 C.2   264  PHE264      0.2290
     49  O        -35.8980  -60.0350  -33.2260 O.2   264  PHE264     -0.2864
     50  CB       -36.7570  -62.9330  -31.8390 C.3   264  PHE264      0.0560
     51  CG       -37.9120  -62.6570  -32.7550 C.ar  264  PHE264     -0.0200
     52  CD1      -38.0060  -63.3030  -33.9770 C.ar  264  PHE264     -0.0042
     53  CD2      -38.8820  -61.7480  -32.4090 C.ar  264  PHE264     -0.0042
     54  CE1      -39.0650  -63.0630  -34.8560 C.ar  264  PHE264     -0.0003
     55  CE2      -39.9820  -61.5250  -33.2610 C.ar  264  PHE264     -0.0003
     56  CZ       -40.0580  -62.1610  -34.4910 C.ar  264  PHE264     -0.0000
     57  N        -33.0140  -59.0180  -34.0440 N.3   267  ALA267     -0.1231
     58  CA       -32.8910  -59.3610  -35.4640 C.3   267  ALA267      0.1694
     59  C        -33.9800  -58.7370  -36.3550 C.2   267  ALA267      0.2592
     60  O        -33.7110  -58.3780  -37.4820 O.2   267  ALA267     -0.2718
     61  CB       -32.8890  -60.8840  -35.6380 C.3   267  ALA267      0.0304
     62  N        -35.2170  -58.7930  -35.8940 N.am  268  TRP268     -0.1976
     63  CA       -36.3070  -58.4750  -36.7600 C.3   268  TRP268      0.1640
     64  C        -36.2050  -57.0150  -37.2920 C.2   268  TRP268      0.2290
     65  O        -36.2000  -56.8160  -38.4780 O.2   268  TRP268     -0.2864
     66  CB       -37.6360  -58.7380  -36.0750 C.3   268  TRP268      0.0576
     67  CG       -38.7970  -58.3970  -37.0110 C.ar  268  TRP268      0.0006
     68  CD1      -39.3150  -57.1450  -37.2950 C.ar  268  TRP268      0.0946
     69  CD2      -39.4760  -59.3130  -37.8310 C.ar  268  TRP268      0.0152
     70  NE1      -40.3570  -57.2640  -38.1940 N.ar  268  TRP268     -0.2442
     71  CE2      -40.4530  -58.5830  -38.5630 C.ar  268  TRP268      0.0810
     72  CE3      -39.4060  -60.7290  -37.9870 C.ar  268  TRP268      0.0012
     73  CZ2      -41.3580  -59.2150  -39.4210 C.ar  268  TRP268      0.0191
     74  CZ3      -40.2890  -61.3450  -38.8600 C.ar  268  TRP268      0.0001
     75  CH2      -41.2680  -60.5670  -39.5730 C.ar  268  TRP268      0.0015
     76  N        -32.5480  -56.4390  -39.4030 N.3   271  VAL271     -0.1231
     77  CA       -32.6150  -56.9960  -40.7380 C.3   271  VAL271      0.1692
     78  C        -33.5550  -56.2190  -41.6610 C.2   271  VAL271      0.2592
     79  O        -33.1810  -55.9260  -42.8040 O.2   271  VAL271     -0.2718
     80  CB       -33.0520  -58.4970  -40.7100 C.3   271  VAL271      0.0266
     81  CG1      -33.2850  -59.0270  -42.0990 C.3   271  VAL271      0.0020
     82  CG2      -31.9440  -59.3500  -40.0490 C.3   271  VAL271      0.0020
     83  N        -34.7490  -55.8870  -41.1860 N.am  272  GLY272     -0.1957
     84  CA       -35.6750  -55.1590  -42.0570 C.3   272  GLY272      0.1869
     85  C        -35.0630  -53.8140  -42.4370 C.2   272  GLY272      0.2309
     86  O        -35.2150  -53.3630  -43.5600 O.2   272  GLY272     -0.2863
     87  N        -32.4520  -54.0990  -45.0430 N.3   275  PHE275     -0.1241
     88  CA       -33.0900  -54.1630  -46.3770 C.3   275  PHE275      0.1605
     89  C        -33.5250  -52.7890  -46.8760 C.2   275  PHE275      0.2264
     90  O        -33.2840  -52.4650  -48.0160 O.2   275  PHE275     -0.2867
     91  CB       -34.2330  -55.2170  -46.4270 C.3   275  PHE275      0.0534
     92  CG       -33.7040  -56.5900  -46.6510 C.ar  275  PHE275     -0.0203
     93  CD1      -33.0870  -56.8990  -47.8480 C.ar  275  PHE275     -0.0042
     94  CD2      -33.7460  -57.5560  -45.6450 C.ar  275  PHE275     -0.0042
     95  CE1      -32.4860  -58.1550  -48.0680 C.ar  275  PHE275     -0.0003
     96  CE2      -33.1810  -58.8420  -45.8710 C.ar  275  PHE275     -0.0003
     97  CZ       -32.5220  -59.1180  -47.0790 C.ar  275  PHE275     -0.0000
@<TRIPOS>BOND
     1    95    93   ar
     2    95    97   ar
     3    90    89    2
     4    93    92   ar
     5     7     6    1
     6    97    96   ar
     7     6     5    1
     8     6     8    1
     9     1     2    1
    10    89    88    1
    11    92    91    1
    12    92    94   ar
    13    91    88    1
    14    88    87    1
    15     5     2    1
    16    96    94   ar
    17     2     3    1
    18     3     4    2
    19    86    85    2
    20     9    10    1
    21    79    78    2
    22    13    10    1
    23    85    84    1
    24    81    80    1
    25    84    83    1
    26    10    11    1
    27    78    83   am
    28    78    77    1
    29    14    11   am
    30    14    15    1
    31    11    12    2
    32    77    80    1
    33    77    76    1
    34    80    82    1
    35    15    16    1
    36    75    73   ar
    37    75    74   ar
    38    73    71   ar
    39    16    17    2
    40    74    72   ar
    41    71    70   ar
    42    71    69   ar
    43    65    64    2
    44    70    68   ar
    45    72    69   ar
    46    69    67   ar
    47    60    59    2
    48    68    67   ar
    49    64    63    1
    50    67    66    1
    51    63    66    1
    52    63    62    1
    53    59    62   am
    54    59    58    1
    55    61    58    1
    56    58    57    1
    57    54    56   ar
    58    54    52   ar
    59    45    44   ar
    60    45    43   ar
    61    56    55   ar
    62    44    42   ar
    63    52    51   ar
    64    43    41   ar
    65    55    53   ar
    66    49    48    2
    67    42    40   ar
    68    51    53   ar
    69    51    50    1
    70    41    40   ar
    71    38    37    2
    72    47    48    1
    73    47    50    1
    74    47    46    1
    75    40    39    1
    76    37    46   am
    77    37    36    1
    78    28    27   ar
    79    28    26   ar
    80    39    36    1
    81    36    35    1
    82    27    25   ar
    83    26    24   ar
    84    32    31    2
    85    25    23   ar
    86    24    23   ar
    87    31    30    1
    88    33    30    1
    89    33    34    1
    90    23    22    1
    91    30    29    1
    92    18    19    1
    93    22    19    1
    94    19    20    1
    95    20    21    2
