@<TRIPOS>MOLECULE
tmp/5zznU19.pdb
 101 96 0 0 0
SMALL
GASTEIGER

@<TRIPOS>ATOM
      1  N        -41.4870    8.9390  -34.5060 N.3   333  ASP333     -0.1239
      2  CA       -41.6620    9.8280  -35.6590 C.3   333  ASP333      0.1674
      3  C        -41.4870    9.1470  -37.0430 C.2   333  ASP333      0.2266
      4  O        -41.9520    9.6600  -38.0570 O.2   333  ASP333     -0.2867
      5  CB       -40.8420   11.1050  -35.5390 C.3   333  ASP333      0.1410
      6  CG       -39.3320   10.8450  -35.2450 C.2   333  ASP333      0.3668
      7  OD1      -38.6210   11.8500  -35.0310 O.co2 333  ASP333     -0.2456
      8  OD2      -38.9050    9.6550  -35.1830 O.co2 333  ASP333     -0.2456
      9  N        -36.4650   18.0330  -45.7540 N.3   340  LYS340     -0.1245
     10  CA       -37.3480   18.7520  -46.6630 C.3   340  LYS340      0.1561
     11  C        -36.7560   20.0660  -47.1760 C.2   340  LYS340      0.2260
     12  O        -37.2740   20.6270  -48.1220 O.2   340  LYS340     -0.2867
     13  CB       -38.6990   18.9650  -46.0120 C.3   340  LYS340      0.0271
     14  CG       -39.4380   17.6700  -45.9330 C.3   340  LYS340      0.0035
     15  CD       -40.9060   17.8290  -45.7340 C.3   340  LYS340      0.0206
     16  CE       -41.5900   16.4770  -45.8220 C.3   340  LYS340      0.1093
     17  NZ       -43.0650   16.6640  -45.7120 N.3   340  LYS340     -0.1314
     18  N        -51.8580   24.2380  -45.5610 N.3   415  THR415     -0.1218
     19  CA       -50.5260   23.7400  -45.8540 C.3   415  THR415      0.1862
     20  C        -49.4010   24.4910  -45.1160 C.2   415  THR415      0.2287
     21  O        -48.4470   23.8960  -44.6030 O.2   415  THR415     -0.2866
     22  CB       -50.3150   23.7650  -47.3830 C.3   415  THR415      0.1770
     23  OG1      -51.3290   22.9670  -47.9560 O.3   415  THR415     -0.2211
     24  CG2      -48.9790   23.2100  -47.8220 C.3   415  THR415      0.0375
     25  N        -49.4920   23.5240  -41.5500 N.3   418  SER418     -0.1202
     26  CA       -48.8820   22.2320  -41.3160 C.3   418  SER418      0.2020
     27  C        -47.3780   22.2800  -41.2550 C.2   418  SER418      0.2618
     28  O        -46.7990   21.7230  -40.3390 O.2   418  SER418     -0.2717
     29  CB       -49.3300   21.2230  -42.3680 C.3   418  SER418      0.2103
     30  OG       -50.7460   21.1350  -42.2670 O.3   418  SER418     -0.2182
     31  N        -46.7550   23.0320  -42.1590 N.am  419  TYR419     -0.1975
     32  CA       -45.3200   23.2050  -42.0530 C.3   419  TYR419      0.1639
     33  C        -44.9400   23.9940  -40.8460 C.2   419  TYR419      0.2290
     34  O        -43.8860   23.7360  -40.2820 O.2   419  TYR419     -0.2864
     35  CB       -44.7330   23.8270  -43.3360 C.3   419  TYR419      0.0560
     36  CG       -44.7710   22.8720  -44.5250 C.ar  419  TYR419     -0.0198
     37  CD1      -44.0290   21.6820  -44.5110 C.ar  419  TYR419     -0.0009
     38  CD2      -45.5280   23.1630  -45.6830 C.ar  419  TYR419     -0.0009
     39  CE1      -44.0580   20.7880  -45.6040 C.ar  419  TYR419      0.0417
     40  CE2      -45.5390   22.2900  -46.7930 C.ar  419  TYR419      0.0417
     41  CZ       -44.8110   21.0990  -46.7420 C.ar  419  TYR419      0.1957
     42  OH       -44.8360   20.2260  -47.8240 O.3   419  TYR419     -0.2866
     43  N        -44.6560   21.6720  -37.9570 N.3   422  LYS422     -0.1245
     44  CA       -43.3630   20.9600  -37.9450 C.3   422  LYS422      0.1561
     45  C        -42.1860   21.7700  -37.5190 C.2   422  LYS422      0.2260
     46  O        -41.1860   21.2150  -36.9720 O.2   422  LYS422     -0.2867
     47  CB       -43.0510   20.3400  -39.3310 C.3   422  LYS422      0.0271
     48  CG       -44.1650   19.4440  -39.8560 C.3   422  LYS422      0.0035
     49  CD       -44.5390   18.4360  -38.7870 C.3   422  LYS422      0.0206
     50  CE       -45.7490   17.6150  -39.1080 C.3   422  LYS422      0.1093
     51  NZ       -46.0860   16.8250  -37.8810 N.3   422  LYS422     -0.1314
     52  N        -37.1550   20.3340  -40.7230 N.3   428  ILE428     -0.1231
     53  CA       -38.2710   19.4870  -41.1640 C.3   428  ILE428      0.1692
     54  C        -37.8120   18.3480  -42.0450 C.2   428  ILE428      0.2592
     55  O        -37.0710   18.5360  -43.0140 O.2   428  ILE428     -0.2718
     56  CB       -39.3360   20.3110  -41.8690 C.3   428  ILE428      0.0266
     57  CG1      -39.8300   21.4190  -40.9260 C.3   428  ILE428      0.0019
     58  CG2      -40.5240   19.4630  -42.2690 C.3   428  ILE428      0.0020
     59  CD1      -40.7100   22.4770  -41.5850 C.3   428  ILE428      0.0001
     60  N        -38.1930   17.1580  -41.6560 N.am  429  PHE429     -0.1962
     61  CA       -37.8460   15.9310  -42.3720 C.3   429  PHE429      0.1771
     62  C        -39.0700   15.1750  -42.8770 C.2   429  PHE429      0.2619
     63  O        -40.2090   15.3420  -42.3600 O.2   429  PHE429     -0.2715
     64  CB       -36.9890   15.0470  -41.5210 C.3   429  PHE429      0.0574
     65  CG       -35.6250   15.5810  -41.3570 C.ar  429  PHE429     -0.0200
     66  CD1      -34.5890   15.0990  -42.1450 C.ar  429  PHE429     -0.0042
     67  CD2      -35.3890   16.6230  -40.4630 C.ar  429  PHE429     -0.0042
     68  CE1      -33.3670   15.6690  -42.0810 C.ar  429  PHE429     -0.0003
     69  CE2      -34.1500   17.1990  -40.3980 C.ar  429  PHE429     -0.0003
     70  CZ       -33.1240   16.7030  -41.1930 C.ar  429  PHE429     -0.0000
     71  N        -38.8040   14.3800  -43.9230 N.am  430  GLU430     -0.1963
     72  CA       -39.7110   13.4030  -44.4290 C.3   430  GLU430      0.1733
     73  C        -39.3760   12.0680  -43.7680 C.2   430  GLU430      0.2616
     74  O        -38.2420   11.6370  -43.7850 O.2   430  GLU430     -0.2715
     75  CB       -39.6380   13.2690  -45.9660 C.3   430  GLU430      0.0429
     76  CG       -40.7310   12.3840  -46.5470 C.3   430  GLU430      0.1163
     77  CD       -40.6560   12.2420  -48.0690 C.2   430  GLU430      0.3649
     78  OE1      -41.5040   12.8760  -48.7630 O.co2 430  GLU430     -0.2457
     79  OE2      -39.7810   11.4840  -48.5650 O.co2 430  GLU430     -0.2457
     80  N        -40.4210   11.3810  -43.3040 N.am  431  PHE431     -0.1974
     81  CA       -40.2510   10.0960  -42.6070 C.3   431  PHE431      0.1639
     82  C        -41.0620    8.9950  -43.2610 C.2   431  PHE431      0.2290
     83  O        -42.2060    9.2280  -43.7480 O.2   431  PHE431     -0.2864
     84  CB       -40.7400   10.2000  -41.1580 C.3   431  PHE431      0.0560
     85  CG       -39.9610   11.1260  -40.3120 C.ar  431  PHE431     -0.0200
     86  CD1      -40.2410   12.4930  -40.3030 C.ar  431  PHE431     -0.0042
     87  CD2      -38.9500   10.6480  -39.5260 C.ar  431  PHE431     -0.0042
     88  CE1      -39.4990   13.3640  -39.4960 C.ar  431  PHE431     -0.0003
     89  CE2      -38.2270   11.5130  -38.7320 C.ar  431  PHE431     -0.0003
     90  CZ       -38.5190   12.8610  -38.7080 C.ar  431  PHE431     -0.0000
     91  N        -43.3100    6.3490  -42.0130 N.3   433  THR433     -0.1218
     92  CA       -44.0510    5.9470  -40.8430 C.3   433  THR433      0.1862
     93  C        -44.7390    4.5780  -41.0290 C.2   433  THR433      0.2287
     94  O        -45.4240    4.1500  -40.1060 O.2   433  THR433     -0.2866
     95  CB       -45.1570    6.9800  -40.5200 C.3   433  THR433      0.1770
     96  OG1      -45.9590    7.2210  -41.6780 O.3   433  THR433     -0.2211
     97  CG2      -44.5590    8.2540  -40.1540 C.3   433  THR433      0.0375
     98  N        -46.1840    8.1850  -34.1870 N.3   440  GLY440     -0.1225
     99  CA       -46.1230    9.6420  -34.1600 C.3   440  GLY440      0.1811
    100  C        -45.6140   10.2680  -32.8680 C.2   440  GLY440      0.2280
    101  O        -45.6250   11.5050  -32.7180 O.2   440  GLY440     -0.2866
@<TRIPOS>BOND
     1    78    77   ar
     2    79    77   ar
     3    12    11    2
     4    77    76    1
     5    23    22    1
     6    42    41    1
     7    24    22    1
     8    22    19    1
     9    11    10    1
    10    40    41   ar
    11    40    38   ar
    12    41    39   ar
    13    10    13    1
    14    10     9    1
    15    76    75    1
    16    13    14    1
    17    75    72    1
    18    14    15    1
    19    19    18    1
    20    19    20    1
    21    16    15    1
    22    16    17    1
    23    38    36   ar
    24    39    37   ar
    25    20    21    2
    26    36    37   ar
    27    36    35    1
    28    72    71    1
    29    72    73    1
    30    71    62   am
    31    74    73    2
    32    73    80   am
    33    83    82    2
    34    35    32    1
    35    80    81    1
    36    82    81    1
    37    55    54    2
    38    62    61    1
    39    62    63    2
    40    81    84    1
    41    61    60    1
    42    61    64    1
    43    29    30    1
    44    29    26    1
    45    58    56    1
    46    31    32    1
    47    31    27   am
    48    66    68   ar
    49    66    65   ar
    50    68    70   ar
    51    32    33    1
    52    54    60   am
    53    54    53    1
    54    91    92    1
    55    56    53    1
    56    56    57    1
    57    96    95    1
    58    59    57    1
    59    25    26    1
    60    64    65    1
    61    65    67   ar
    62    26    27    1
    63    27    28    2
    64    70    69   ar
    65    53    52    1
    66    84    85    1
    67    93    92    1
    68    93    94    2
    69    33    34    2
    70    92    95    1
    71    95    97    1
    72    67    69   ar
    73    85    86   ar
    74    85    87   ar
    75    86    88   ar
    76    48    47    1
    77    48    49    1
    78    87    89   ar
    79    88    90   ar
    80    47    44    1
    81    50    49    1
    82    50    51    1
    83    89    90   ar
    84     4     3    2
    85    43    44    1
    86    44    45    1
    87    45    46    2
    88     3     2    1
    89     2     5    1
    90     2     1    1
    91     5     6    1
    92     6     8   ar
    93     6     7   ar
    94    98    99    1
    95    99   100    1
    96   100   101    2
