@<TRIPOS>MOLECULE
tmp/5zzoF00.pdb
 134 129 0 0 0
SMALL
GASTEIGER

@<TRIPOS>ATOM
      1  N        109.7340  -53.0130   41.8960 N.3    11  SER11      -0.1202
      2  CA       108.5100  -52.5540   42.5300 C.3    11  SER11       0.2020
      3  C        107.8160  -51.5160   41.7050 C.2    11  SER11       0.2619
      4  O        108.4530  -50.6590   41.1420 O.2    11  SER11      -0.2717
      5  CB       108.8230  -51.9900   43.8990 C.3    11  SER11       0.2103
      6  OG       107.7440  -51.2280   44.3460 O.3    11  SER11      -0.2182
      7  N        106.5040  -51.6140   41.6200 N.am   12  SER12      -0.1937
      8  CA       105.7030  -50.6840   40.8450 C.3    12  SER12       0.2055
      9  C        106.0080  -49.2080   41.1400 C.2    12  SER12       0.2642
     10  O        106.1770  -48.4170   40.2460 O.2    12  SER12      -0.2714
     11  CB       104.2120  -50.9950   41.0990 C.3    12  SER12       0.2130
     12  OG       103.3600  -49.8500   40.9660 O.3    12  SER12      -0.2179
     13  N        106.0350  -48.8390   42.4050 N.am   13  LEU13      -0.1977
     14  CA       106.3350  -47.4850   42.8300 C.3    13  LEU13       0.1596
     15  C        107.7000  -47.0160   42.3630 C.2    13  LEU13       0.2287
     16  O        107.8560  -45.8680   41.9870 O.2    13  LEU13      -0.2864
     17  CB       106.2500  -47.4240   44.3530 C.3    13  LEU13       0.0297
     18  CG       107.0180  -46.4560   45.2520 C.3    13  LEU13       0.0022
     19  CD1      106.5160  -46.6920   46.6560 C.3    13  LEU13       0.0001
     20  CD2      108.5120  -46.6340   45.2600 C.3    13  LEU13       0.0001
     21  N        105.8710  -54.7400   39.3760 N.3    40  GLY40      -0.1210
     22  CA       105.0890  -55.6960   40.1450 C.3    40  GLY40       0.1956
     23  C        105.2580  -55.6090   41.6590 C.2    40  GLY40       0.2613
     24  O        105.8140  -54.6500   42.1740 O.2    40  GLY40      -0.2717
     25  N        104.7510  -56.6020   42.3800 N.am   41  SER41      -0.1938
     26  CA       104.9160  -56.6800   43.8260 C.3    41  SER41       0.2055
     27  C        106.3080  -57.1880   44.1500 C.2    41  SER41       0.2644
     28  O        106.8620  -57.9540   43.3740 O.2    41  SER41      -0.2714
     29  CB       103.8910  -57.6270   44.4350 C.3    41  SER41       0.2130
     30  OG       104.3770  -58.9670   44.3770 O.3    41  SER41      -0.2179
     31  N        106.8650  -56.8060   45.2960 N.am   42  THR42      -0.1936
     32  CA       108.2160  -57.2460   45.6480 C.3    42  THR42       0.2028
     33  C        108.2870  -58.7750   45.6740 C.2    42  THR42       0.2642
     34  O        109.3220  -59.3990   45.3430 O.2    42  THR42      -0.2714
     35  CB       108.6600  -56.6770   47.0150 C.3    42  THR42       0.1808
     36  OG1      109.0390  -55.3040   46.8650 O.3    42  THR42      -0.2208
     37  CG2      109.8430  -57.4740   47.6020 C.3    42  THR42       0.0379
     38  N        107.1590  -59.3730   46.0450 N.am   43  GLU43      -0.1976
     39  CA       107.0430  -60.8250   46.1430 C.3    43  GLU43       0.1602
     40  C        107.0080  -61.4700   44.7540 C.2    43  GLU43       0.2287
     41  O        107.7070  -62.4690   44.5210 O.2    43  GLU43      -0.2864
     42  CB       105.8030  -61.2090   46.9610 C.3    43  GLU43       0.0415
     43  CG       105.8070  -60.7020   48.4230 C.3    43  GLU43       0.1163
     44  CD       105.5060  -59.1790   48.5820 C.2    43  GLU43       0.3649
     45  OE1      105.3930  -58.4580   47.5500 O.co2  43  GLU43      -0.2457
     46  OE2      105.3940  -58.7110   49.7540 O.co2  43  GLU43      -0.2457
     47  N        111.4140  -53.4100   47.6640 N.3    58  ARG58      -0.1245
     48  CA       111.2420  -52.7030   48.9150 C.3    58  ARG58       0.1563
     49  C        110.9910  -53.6900   50.0460 C.2    58  ARG58       0.2260
     50  O        110.3990  -54.7370   49.8390 O.2    58  ARG58      -0.2867
     51  CB       110.1180  -51.7010   48.7630 C.3    58  ARG58       0.0307
     52  CG       110.5350  -50.5940   47.8150 C.3    58  ARG58       0.0489
     53  CD       109.4350  -49.6540   47.4560 C.3    58  ARG58       0.2205
     54  NE       108.8630  -48.9610   48.5960 N.pl3  58  ARG58      -0.0865
     55  CZ       109.3350  -47.8290   49.0990 C.cat  58  ARG58       0.5346
     56  NH1      110.4320  -47.2590   48.5700 N.pl3  58  ARG58       0.1354
     57  NH2      108.7100  -47.2750   50.1430 N.pl3  58  ARG58       0.1354
     58  N         97.2220  -49.9010   50.9260 N.3    93  PHE93      -0.1227
     59  CA        97.8530  -50.6970   49.8730 C.3    93  PHE93       0.1736
     60  C         98.3960  -52.0160   50.4270 C.2    93  PHE93       0.2595
     61  O         98.4840  -52.2530   51.6300 O.2    93  PHE93      -0.2718
     62  CB        98.9580  -49.9180   49.1190 C.3    93  PHE93       0.0547
     63  CG       100.0470  -49.3660   49.9950 C.ar   93  PHE93      -0.0202
     64  CD1      101.0690  -50.1740   50.4430 C.ar   93  PHE93      -0.0042
     65  CD2      100.0570  -48.0300   50.3520 C.ar   93  PHE93      -0.0042
     66  CE1      102.0540  -49.6670   51.2440 C.ar   93  PHE93      -0.0003
     67  CE2      101.0420  -47.5290   51.1410 C.ar   93  PHE93      -0.0003
     68  CZ       102.0460  -48.3500   51.5860 C.ar   93  PHE93      -0.0000
     69  N         98.7100  -52.8820   49.4920 N.am   94  GLN94      -0.1965
     70  CA        99.1930  -54.2100   49.7600 C.3    94  GLN94       0.1733
     71  C        100.7000  -54.1800   49.8670 C.2    94  GLN94       0.2616
     72  O        101.3960  -53.6620   48.9910 O.2    94  GLN94      -0.2715
     73  CB        98.7080  -55.1330   48.6490 C.3    94  GLN94       0.0408
     74  CG        99.3890  -56.4660   48.4830 C.3    94  GLN94       0.0908
     75  CD        99.0930  -57.0520   47.0990 C.2    94  GLN94       0.2608
     76  OE1       99.9930  -57.1920   46.2670 O.2    94  GLN94      -0.2717
     77  NE2       97.8220  -57.3610   46.8390 N.am   94  GLN94      -0.0878
     78  N        101.1850  -54.6950   50.9790 N.am   95  ALA95      -0.1977
     79  CA       102.6020  -54.8560   51.2070 C.3    95  ALA95       0.1597
     80  C        102.7140  -55.9780   52.1910 C.2    95  ALA95       0.2287
     81  O        101.7090  -56.4870   52.6410 O.2    95  ALA95      -0.2864
     82  CB       103.2250  -53.5960   51.7480 C.3    95  ALA95       0.0319
     83  N        104.8300  -54.2760   57.8320 N.3    99  TYR99      -0.1241
     84  CA       104.7930  -52.8810   57.4420 C.3    99  TYR99       0.1605
     85  C        103.3770  -52.3680   57.5170 C.2    99  TYR99       0.2264
     86  O        103.0870  -51.2960   58.0720 O.2    99  TYR99      -0.2867
     87  CB       105.4000  -52.7880   56.0410 C.3    99  TYR99       0.0534
     88  CG       105.3550  -51.4760   55.2920 C.ar   99  TYR99      -0.0201
     89  CD1      105.6180  -50.2580   55.9090 C.ar   99  TYR99      -0.0009
     90  CD2      105.1140  -51.4810   53.9180 C.ar   99  TYR99      -0.0009
     91  CE1      105.5860  -49.0770   55.1820 C.ar   99  TYR99       0.0417
     92  CE2      105.0870  -50.3250   53.1890 C.ar   99  TYR99       0.0417
     93  CZ       105.3290  -49.1240   53.8210 C.ar   99  TYR99       0.1957
     94  OH       105.3040  -47.9830   53.0810 O.3    99  TYR99      -0.2866
     95  N         96.3890  -52.6720   45.4000 N.3   122  ASP122     -0.1225
     96  CA        97.6380  -53.3890   45.5090 C.3   122  ASP122      0.1805
     97  C         98.8600  -52.4950   45.2830 C.2   122  ASP122      0.2598
     98  O         99.8910  -52.6990   45.9260 O.2   122  ASP122     -0.2718
     99  CB        97.6480  -54.5940   44.5500 C.3   122  ASP122      0.1424
    100  CG        97.2440  -54.2380   43.1250 C.2   122  ASP122      0.3668
    101  OD1       96.3390  -53.3830   42.9060 O.co2 122  ASP122     -0.2456
    102  OD2       97.8300  -54.8270   42.1900 O.co2 122  ASP122     -0.2456
    103  N         98.7490  -51.5040   44.4010 N.am  123  GLN123     -0.1965
    104  CA        99.8700  -50.6090   44.1070 C.3   123  GLN123      0.1733
    105  C         99.7400  -49.3120   44.8400 C.2   123  GLN123      0.2616
    106  O         98.6570  -48.7800   44.9440 O.2   123  GLN123     -0.2715
    107  CB        99.9720  -50.3030   42.6310 C.3   123  GLN123      0.0408
    108  CG       100.2580  -51.4890   41.7460 C.3   123  GLN123      0.0908
    109  CD       100.6420  -51.0510   40.3280 C.2   123  GLN123      0.2608
    110  OE1      100.5550  -49.8570   39.9750 O.2   123  GLN123     -0.2717
    111  NE2      101.0870  -52.0010   39.5240 N.am  123  GLN123     -0.0878
    112  N        100.8590  -48.7940   45.3320 N.am  124  VAL124     -0.1963
    113  CA       100.9290  -47.4690   45.9760 C.3   124  VAL124      0.1727
    114  C        100.4790  -46.3440   45.0340 C.2   124  VAL124      0.2616
    115  O         99.8360  -45.3860   45.4460 O.2   124  VAL124     -0.2715
    116  CB       102.3830  -47.1660   46.4750 C.3   124  VAL124      0.0290
    117  CG1      102.4460  -45.8490   47.1560 C.3   124  VAL124      0.0023
    118  CG2      102.8750  -48.2490   47.4350 C.3   124  VAL124      0.0023
    119  N        100.8180  -46.4600   43.7610 N.am  125  ALA125     -0.1977
    120  CA       100.4790  -45.4350   42.7950 C.3   125  ALA125      0.1597
    121  C         98.9570  -45.2730   42.6480 C.2   125  ALA125      0.2287
    122  O         98.4260  -44.1490   42.5390 O.2   125  ALA125     -0.2864
    123  CB       101.1110  -45.7610   41.4700 C.3   125  ALA125      0.0319
    124  N        110.7360  -47.1190   55.3440 N.3   167  ARG167     -0.1245
    125  CA       110.7550  -48.2910   54.4750 C.3   167  ARG167      0.1563
    126  C        112.0030  -48.2340   53.5860 C.2   167  ARG167      0.2260
    127  O        112.3340  -47.1800   53.0470 O.2   167  ARG167     -0.2867
    128  CB       109.4560  -48.3360   53.6510 C.3   167  ARG167      0.0307
    129  CG       109.3140  -49.4470   52.6360 C.3   167  ARG167      0.0489
    130  CD       108.6190  -50.6450   53.1830 C.3   167  ARG167      0.2205
    131  NE       108.0320  -51.5140   52.1430 N.pl3 167  ARG167     -0.0865
    132  CZ       107.8700  -52.8260   52.2870 C.cat 167  ARG167      0.5346
    133  NH1      108.2450  -53.4120   53.4200 N.pl3 167  ARG167      0.1354
    134  NH2      107.3380  -53.5550   51.3160 N.pl3 167  ARG167      0.1354
@<TRIPOS>BOND
     1    21    22    1
     2   111   109   am
     3   110   109    2
     4    22    23    1
     5    10     9    2
     6   109   108    1
     7     8    11    1
     8     8     9    1
     9     8     7    1
    10    12    11    1
    11     9    13   am
    12     4     3    2
    13   123   120    1
    14     7     3   am
    15    23    24    2
    16    23    25   am
    17     3     2    1
    18   108   107    1
    19     1     2    1
    20    16    15    2
    21   102   100   ar
    22    15    14    1
    23    25    26    1
    24    13    14    1
    25     2     5    1
    26   122   121    2
    27   107   104    1
    28   121   120    1
    29   120   119    1
    30    14    17    1
    31   101   100   ar
    32   100    99    1
    33    28    27    2
    34   119   114   am
    35    26    27    1
    36    26    29    1
    37     5     6    1
    38   104   103    1
    39   104   105    1
    40    27    31   am
    41    17    18    1
    42    30    29    1
    43   103    97   am
    44    41    40    2
    45    99    96    1
    46    40    39    1
    47   105   106    2
    48   105   112   am
    49   114   115    2
    50   114   113    1
    51    18    20    1
    52    18    19    1
    53    97    96    1
    54    97    98    2
    55    31    32    1
    56   112   113    1
    57    34    33    2
    58    95    96    1
    59    32    33    1
    60    32    35    1
    61    33    38   am
    62   113   116    1
    63    38    39    1
    64    39    42    1
    65    76    75    2
    66   116   117    1
    67   116   118    1
    68    77    75   am
    69    36    35    1
    70    42    43    1
    71    35    37    1
    72    75    74    1
    73    53    52    1
    74    53    54    1
    75    45    44   ar
    76    47    48    1
    77    52    51    1
    78    43    44    1
    79    74    73    1
    80    56    55    1
    81    44    46   ar
    82    54    55    2
    83    73    70    1
    84    51    48    1
    85    48    49    1
    86    72    71    2
    87    55    57    1
    88    62    59    1
    89    62    63    1
    90    69    70    1
    91    69    60   am
    92    70    71    1
    93    50    49    2
    94    71    78   am
    95    59    60    1
    96    59    58    1
    97    63    65   ar
    98    63    64   ar
    99    65    67   ar
   100    60    61    2
   101    64    66   ar
   102    78    79    1
   103    67    68   ar
   104    79    82    1
   105    79    80    1
   106    66    68   ar
   107   134   132    1
   108   131   132    2
   109   131   130    1
   110    80    81    2
   111   132   133    1
   112   129   130    1
   113   129   128    1
   114   127   126    2
   115    94    93    1
   116    92    93   ar
   117    92    90   ar
   118   126   125    1
   119   128   125    1
   120    93    91   ar
   121    90    88   ar
   122   125   124    1
   123    91    89   ar
   124    88    89   ar
   125    88    87    1
   126    87    84    1
   127    84    85    1
   128    84    83    1
   129    85    86    2
