@<TRIPOS>MOLECULE
tmp/5zzwB00.pdb
 208 201 0 0 0
SMALL
GASTEIGER

@<TRIPOS>ATOM
      1  N        -11.3380   59.7670  -34.1880 N.3    31  LEU31      -0.1231
      2  CA       -10.9800   60.9920  -33.4740 C.3    31  LEU31       0.1693
      3  C        -11.0630   62.2530  -34.3290 C.2    31  LEU31       0.2592
      4  O        -11.6270   63.2560  -33.8860 O.2    31  LEU31      -0.2718
      5  CB        -9.5640   60.8680  -32.8880 C.3    31  LEU31       0.0284
      6  CG        -9.3200   59.7510  -31.8600 C.3    31  LEU31       0.0019
      7  CD1       -7.9010   59.8300  -31.3340 C.3    31  LEU31       0.0001
      8  CD2      -10.3300   59.8080  -30.7190 C.3    31  LEU31       0.0001
      9  N        -10.5080   62.2020  -35.5420 N.am   32  THR32      -0.1953
     10  CA       -10.2910   63.4210  -36.3480 C.3    32  THR32       0.1897
     11  C        -11.0630   63.4600  -37.6660 C.2    32  THR32       0.2313
     12  O        -10.7730   64.2990  -38.5260 O.2    32  THR32      -0.2863
     13  CB        -8.7890   63.6630  -36.6430 C.3    32  THR32       0.1794
     14  OG1       -8.2220   62.5110  -37.2730 O.3    32  THR32      -0.2208
     15  CG2       -8.0300   63.9770  -35.3660 C.3    32  THR32       0.0378
     16  N        -13.0960   64.2890  -31.2100 N.3    39  TYR39      -0.1241
     17  CA       -12.6220   65.6240  -30.9230 C.3    39  TYR39       0.1605
     18  C        -13.3090   66.7470  -31.7200 C.2    39  TYR39       0.2264
     19  O        -13.2630   67.9030  -31.3000 O.2    39  TYR39      -0.2867
     20  CB       -11.1050   65.6970  -31.0590 C.3    39  TYR39       0.0534
     21  CG       -10.3460   64.8910  -30.0110 C.ar   39  TYR39      -0.0201
     22  CD1      -10.3700   65.2610  -28.6590 C.ar   39  TYR39      -0.0009
     23  CD2       -9.5310   63.8360  -30.3830 C.ar   39  TYR39      -0.0009
     24  CE1       -9.6550   64.5540  -27.7100 C.ar   39  TYR39       0.0417
     25  CE2       -8.7920   63.1280  -29.4430 C.ar   39  TYR39       0.0417
     26  CZ        -8.8610   63.4880  -28.1090 C.ar   39  TYR39       0.1957
     27  OH        -8.1320   62.7950  -27.1670 O.3    39  TYR39      -0.2866
     28  N        -12.1640   66.7170  -18.5340 N.3    51  PHE51      -0.1241
     29  CA       -11.0810   66.3570  -19.4720 C.3    51  PHE51       0.1605
     30  C        -10.1990   65.1020  -19.1930 C.2    51  PHE51       0.2264
     31  O        -10.0190   64.3350  -20.1440 O.2    51  PHE51      -0.2867
     32  CB       -10.2420   67.5940  -19.8570 C.3    51  PHE51       0.0534
     33  CG       -10.6470   68.2140  -21.1840 C.ar   51  PHE51      -0.0203
     34  CD1      -11.9360   68.7110  -21.3850 C.ar   51  PHE51      -0.0042
     35  CD2       -9.7370   68.2990  -22.2390 C.ar   51  PHE51      -0.0042
     36  CE1      -12.3020   69.2660  -22.6010 C.ar   51  PHE51      -0.0003
     37  CE2      -10.1020   68.8600  -23.4570 C.ar   51  PHE51      -0.0003
     38  CZ       -11.3840   69.3450  -23.6370 C.ar   51  PHE51      -0.0000
     39  N         -6.9280   66.5950  -17.0510 N.3    53  THR53      -0.1218
     40  CA        -5.4960   66.4280  -17.3410 C.3    53  THR53       0.1862
     41  C         -4.6080   67.2150  -16.3680 C.2    53  THR53       0.2287
     42  O         -5.1050   67.9850  -15.5720 O.2    53  THR53      -0.2866
     43  CB        -5.1920   66.8480  -18.8000 C.3    53  THR53       0.1770
     44  OG1       -5.7790   68.1390  -19.0520 O.3    53  THR53      -0.2211
     45  CG2       -5.7540   65.8260  -19.7810 C.3    53  THR53       0.0375
     46  N         -2.5630   69.8560  -16.4640 N.3    55  PRO55      -0.2102
     47  CA        -2.7960   71.3070  -16.3800 C.3    55  PRO55       0.1504
     48  C         -4.0890   71.6800  -15.6500 C.2    55  PRO55       0.2575
     49  O         -4.1390   72.6730  -14.9250 O.2    55  PRO55      -0.2718
     50  CB        -2.8740   71.7370  -17.8490 C.3    55  PRO55       0.0282
     51  CG        -2.1040   70.7080  -18.5890 C.3    55  PRO55       0.0208
     52  CD        -2.3080   69.4260  -17.8500 C.3    55  PRO55       0.0893
     53  N         -5.1260   70.8660  -15.8310 N.am   56  GLU56      -0.1980
     54  CA        -6.4190   71.0850  -15.1800 C.3    56  GLU56       0.1602
     55  C         -6.3050   70.6010  -13.7300 C.2    56  GLU56       0.2287
     56  O         -5.8900   69.4690  -13.4730 O.2    56  GLU56      -0.2864
     57  CB        -7.5410   70.3200  -15.9060 C.3    56  GLU56       0.0415
     58  CG        -7.4840   70.3670  -17.4460 C.3    56  GLU56       0.1163
     59  CD        -8.5060   71.2990  -18.0590 C.2    56  GLU56       0.3649
     60  OE1       -9.6670   71.2470  -17.6030 O.co2  56  GLU56      -0.2457
     61  OE2       -8.1640   72.0530  -19.0060 O.co2  56  GLU56      -0.2457
     62  N          2.8670   74.1420  -29.1580 N.3    86  GLU86      -0.1231
     63  CA         2.1620   73.1120  -28.4020 C.3    86  GLU86       0.1699
     64  C          1.3930   72.2400  -29.3760 C.2    86  GLU86       0.2592
     65  O          0.6880   72.7410  -30.2610 O.2    86  GLU86      -0.2718
     66  CB         1.2300   73.6740  -27.3150 C.3    86  GLU86       0.0402
     67  CG         0.8390   72.6240  -26.2690 C.3    86  GLU86       0.1161
     68  CD        -0.1020   73.1270  -25.1840 C.2    86  GLU86       0.3649
     69  OE1       -0.3450   74.3380  -25.1310 O.co2  86  GLU86      -0.2457
     70  OE2       -0.6070   72.3210  -24.3730 O.co2  86  GLU86      -0.2457
     71  N          1.5590   70.9300  -29.2130 N.am   87  MET87      -0.1965
     72  CA         0.7930   69.9460  -29.9470 C.3    87  MET87       0.1736
     73  C         -0.4140   69.5850  -29.0920 C.2    87  MET87       0.2617
     74  O         -0.2570   69.2410  -27.9210 O.2    87  MET87      -0.2715
     75  CB         1.6300   68.6930  -30.1740 C.3    87  MET87       0.0427
     76  CG         3.0450   68.9200  -30.6930 C.3    87  MET87       0.0599
     77  SD         3.0980   69.4730  -32.4160 S.3    87  MET87      -0.1393
     78  CE         2.5290   68.0540  -33.2980 C.3    87  MET87       0.0692
     79  N         -1.6100   69.6810  -29.6600 N.am   88  GLY88      -0.1941
     80  CA        -2.8310   69.3090  -28.9560 C.3    88  GLY88       0.1998
     81  C         -3.0260   70.0380  -27.6470 C.2    88  GLY88       0.2481
     82  O         -3.0190   69.4140  -26.5780 O.2    88  GLY88      -0.2729
     83  N         -3.2070   71.3680  -27.7160 N.am   89  PRO89      -0.2715
     84  CA        -3.3080   72.1880  -26.5020 C.3    89  PRO89       0.1536
     85  C         -4.5680   71.9850  -25.6590 C.2    89  PRO89       0.2599
     86  O         -4.6050   72.4480  -24.5390 O.2    89  PRO89      -0.2715
     87  CB        -3.2830   73.6260  -27.0350 C.3    89  PRO89       0.0310
     88  CG        -2.9240   73.5400  -28.4780 C.3    89  PRO89       0.0237
     89  CD        -3.3030   72.1760  -28.9430 C.3    89  PRO89       0.0939
     90  N         -5.5960   71.3330  -26.1800 N.am   90  GLY90      -0.1941
     91  CA        -6.8060   71.0910  -25.4010 C.3    90  GLY90       0.2014
     92  C         -7.6340   72.3490  -25.2400 C.2    90  GLY90       0.2638
     93  O         -8.0440   72.9550  -26.2320 O.2    90  GLY90      -0.2714
     94  N         -7.8780   72.7420  -23.9920 N.am   91  ARG91      -0.1977
     95  CA        -8.5450   74.0060  -23.6770 C.3    91  ARG91       0.1597
     96  C         -7.5870   75.1890  -23.7600 C.2    91  ARG91       0.2287
     97  O         -8.0220   76.3300  -23.6930 O.2    91  ARG91      -0.2864
     98  CB        -9.1310   73.9720  -22.2650 C.3    91  ARG91       0.0334
     99  CG       -10.3000   73.0170  -22.0850 C.3    91  ARG91       0.0492
    100  CD       -11.0270   73.2860  -20.7760 C.3    91  ARG91       0.2205
    101  NE       -11.5460   74.6650  -20.6910 N.pl3  91  ARG91      -0.0865
    102  CZ       -11.6800   75.3730  -19.5650 C.cat  91  ARG91       0.5346
    103  NH1      -11.3690   74.8570  -18.3710 N.pl3  91  ARG91       0.1354
    104  NH2      -12.1520   76.6170  -19.6220 N.pl3  91  ARG91       0.1354
    105  N         -2.7740   74.8490  -20.2850 N.3    94  LEU94      -0.1245
    106  CA        -1.3360   74.7610  -20.0580 C.3    94  LEU94       0.1561
    107  C         -0.6350   75.9920  -20.5960 C.2    94  LEU94       0.2260
    108  O          0.2040   76.5720  -19.9160 O.2    94  LEU94      -0.2867
    109  CB        -0.7500   73.5080  -20.7270 C.3    94  LEU94       0.0270
    110  CG         0.7810   73.4280  -20.8140 C.3    94  LEU94       0.0019
    111  CD1        1.3870   73.3690  -19.4150 C.3    94  LEU94       0.0001
    112  CD2        1.2180   72.2410  -21.6650 C.3    94  LEU94       0.0001
    113  N         -0.5890   73.7120  -32.6020 N.3   117  VAL117     -0.1231
    114  CA        -0.9770   72.7510  -33.6260 C.3   117  VAL117      0.1692
    115  C         -2.2170   72.0310  -33.1330 C.2   117  VAL117      0.2592
    116  O         -2.1940   71.4170  -32.0670 O.2   117  VAL117     -0.2718
    117  CB         0.1230   71.7160  -33.9220 C.3   117  VAL117      0.0266
    118  CG1       -0.2130   70.9820  -35.2180 C.3   117  VAL117      0.0020
    119  CG2        1.4890   72.3860  -34.0180 C.3   117  VAL117      0.0020
    120  N         -3.2960   72.1120  -33.9020 N.am  118  GLU118     -0.1966
    121  CA        -4.5920   71.6560  -33.4320 C.3   118  GLU118      0.1733
    122  C         -5.5190   71.3650  -34.6050 C.2   118  GLU118      0.2616
    123  O         -5.6660   72.1760  -35.4970 O.2   118  GLU118     -0.2715
    124  CB        -5.1910   72.7150  -32.5080 C.3   118  GLU118      0.0429
    125  CG        -6.5960   72.4170  -32.0110 C.3   118  GLU118      0.1163
    126  CD        -6.6870   71.1070  -31.2620 C.2   118  GLU118      0.3649
    127  OE1       -6.1690   71.0140  -30.1230 O.co2 118  GLU118     -0.2457
    128  OE2       -7.2850   70.1680  -31.8270 O.co2 118  GLU118     -0.2457
    129  N         -6.1500   70.2010  -34.5780 N.am  119  ALA119     -0.1963
    130  CA        -6.9500   69.7150  -35.6970 C.3   119  ALA119      0.1728
    131  C         -8.4410   69.9430  -35.4950 C.2   119  ALA119      0.2616
    132  O         -9.1950   69.9690  -36.4630 O.2   119  ALA119     -0.2715
    133  CB        -6.6780   68.2330  -35.9140 C.3   119  ALA119      0.0334
    134  N         -8.8680   70.0890  -34.2450 N.am  120  SER120     -0.1950
    135  CA       -10.2860   70.2200  -33.9230 C.3   120  SER120      0.1924
    136  C        -10.7130   71.6840  -33.9180 C.2   120  SER120      0.2314
    137  O        -10.2320   72.4620  -33.0980 O.2   120  SER120     -0.2863
    138  CB       -10.5660   69.6040  -32.5570 C.3   120  SER120      0.2116
    139  OG       -11.8550   69.9810  -32.1040 O.3   120  SER120     -0.2180
    140  N        -11.8600   72.6960  -30.3810 N.3   123  ASN123     -0.1240
    141  CA       -10.7820   72.9040  -29.4340 C.3   123  ASN123      0.1653
    142  C        -10.0020   74.1350  -29.8190 C.2   123  ASN123      0.2266
    143  O         -9.4760   74.8160  -28.9560 O.2   123  ASN123     -0.2867
    144  CB        -9.8590   71.6850  -29.3570 C.3   123  ASN123      0.1155
    145  CG       -10.4920   70.5280  -28.6100 C.2   123  ASN123      0.2627
    146  OD1      -10.1710   69.3610  -28.8570 O.2   123  ASN123     -0.2716
    147  ND2      -11.4190   70.8460  -27.7010 N.am  123  ASN123     -0.0877
    148  N         -2.9680   73.5800  -38.4910 N.3   159  GLY159     -0.1225
    149  CA        -3.5240   72.2360  -38.4380 C.3   159  GLY159      0.1811
    150  C         -2.5080   71.1240  -38.2720 C.2   159  GLY159      0.2280
    151  O         -2.8500   70.0500  -37.7850 O.2   159  GLY159     -0.2866
    152  N          1.5860   67.3510  -24.4120 N.3   175  GLN175     -0.1231
    153  CA         1.1340   66.9070  -23.1080 C.3   175  GLN175      0.1698
    154  C         -0.1990   66.2040  -23.2690 C.2   175  GLN175      0.2592
    155  O         -1.1980   66.8330  -23.6120 O.2   175  GLN175     -0.2718
    156  CB         0.9940   68.1200  -22.1960 C.3   175  GLN175      0.0381
    157  CG         1.0710   67.8130  -20.7070 C.3   175  GLN175      0.0905
    158  CD        -0.2660   67.4690  -20.0960 C.2   175  GLN175      0.2608
    159  OE1       -1.2630   68.1640  -20.3020 O.2   175  GLN175     -0.2717
    160  NE2       -0.2910   66.3960  -19.3170 N.am  175  GLN175     -0.0878
    161  N         -0.1930   64.8870  -23.0360 N.am  176  GLU176     -0.1966
    162  CA        -1.3250   64.0020  -23.3270 C.3   176  GLU176      0.1733
    163  C         -1.7930   64.1800  -24.7550 C.2   176  GLU176      0.2616
    164  O         -2.9970   64.1700  -25.0460 O.2   176  GLU176     -0.2715
    165  CB        -2.4510   64.2140  -22.3270 C.3   176  GLU176      0.0429
    166  CG        -2.0190   63.8820  -20.9040 C.3   176  GLU176      0.1163
    167  CD        -3.1690   63.5440  -19.9670 C.2   176  GLU176      0.3649
    168  OE1       -4.2480   63.1110  -20.4460 O.co2 176  GLU176     -0.2457
    169  OE2       -2.9870   63.7060  -18.7400 O.co2 176  GLU176     -0.2457
    170  N         -0.8100   64.3360  -25.6440 N.am  177  PHE177     -0.1974
    171  CA        -1.0440   64.4500  -27.0780 C.3   177  PHE177      0.1639
    172  C         -0.7470   63.1100  -27.7490 C.2   177  PHE177      0.2290
    173  O         -1.5540   62.6210  -28.5090 O.2   177  PHE177     -0.2864
    174  CB        -0.1700   65.5460  -27.6770 C.3   177  PHE177      0.0560
    175  CG        -0.2130   65.6040  -29.1820 C.ar  177  PHE177     -0.0200
    176  CD1       -1.3250   66.0810  -29.8350 C.ar  177  PHE177     -0.0042
    177  CD2        0.8600   65.1810  -29.9410 C.ar  177  PHE177     -0.0042
    178  CE1       -1.3800   66.1340  -31.2140 C.ar  177  PHE177     -0.0003
    179  CE2        0.8250   65.2410  -31.3230 C.ar  177  PHE177     -0.0003
    180  CZ        -0.3020   65.7240  -31.9560 C.ar  177  PHE177     -0.0000
    181  N         -3.2020   60.0850  -27.7550 N.3   180  ALA180     -0.1231
    182  CA        -4.3770   60.2330  -28.6140 C.3   180  ALA180      0.1694
    183  C         -4.0010   60.1400  -30.1010 C.2   180  ALA180      0.2592
    184  O         -4.8290   60.3770  -30.9840 O.2   180  ALA180     -0.2718
    185  CB        -5.0520   61.5670  -28.3400 C.3   180  ALA180      0.0304
    186  N         -2.7510   59.8050  -30.3890 N.am  181  LEU181     -0.1966
    187  CA        -2.3420   59.5890  -31.7530 C.3   181  LEU181      0.1713
    188  C         -2.6930   58.1670  -32.1920 C.2   181  LEU181      0.2458
    189  O         -2.7550   57.2500  -31.3660 O.2   181  LEU181     -0.2730
    190  CB        -0.8380   59.8310  -31.9050 C.3   181  LEU181      0.0310
    191  CG        -0.3400   61.2610  -31.7630 C.3   181  LEU181      0.0022
    192  CD1        1.1640   61.2790  -32.0340 C.3   181  LEU181      0.0001
    193  CD2       -1.0720   62.1680  -32.7370 C.3   181  LEU181      0.0001
    194  N         -2.9110   57.9740  -33.5060 N.am  182  PRO182     -0.2727
    195  CA        -3.1690   56.6290  -33.9910 C.3   182  PRO182      0.1402
    196  C         -1.9620   55.7110  -33.8550 C.2   182  PRO182      0.2269
    197  O         -0.8210   56.1650  -33.9030 O.2   182  PRO182     -0.2865
    198  CB        -3.5110   56.8440  -35.4650 C.3   182  PRO182      0.0296
    199  CG        -3.7790   58.3050  -35.6250 C.3   182  PRO182      0.0237
    200  CD        -2.9280   58.9610  -34.5990 C.3   182  PRO182      0.0939
    201  N          6.1440   62.4260  -36.1040 N.3   250  ILE250     -0.1245
    202  CA         6.2100   63.7090  -35.4100 C.3   250  ILE250      0.1561
    203  C          7.5420   63.8740  -34.6660 C.2   250  ILE250      0.2260
    204  O          8.1490   64.9570  -34.6970 O.2   250  ILE250     -0.2867
    205  CB         5.0100   63.9030  -34.4480 C.3   250  ILE250      0.0252
    206  CG1        3.7360   64.1090  -35.2760 C.3   250  ILE250      0.0019
    207  CG2        5.2260   65.1210  -33.5590 C.3   250  ILE250      0.0019
    208  CD1        2.4540   64.1540  -34.4860 C.3   250  ILE250      0.0001
@<TRIPOS>BOND
     1    12    11    2
     2   148   149    1
     3   149   150    1
     4   150   151    2
     5    11    10    1
     6    14    13    1
     7    13    10    1
     8    13    15    1
     9   132   131    2
    10    10     9    1
    11   201   202    1
    12   133   130    1
    13   130   131    1
    14   130   129    1
    15   199   198    1
    16   199   200    1
    17     9     3   am
    18   123   122    2
    19   131   134   am
    20   198   195    1
    21   202   203    1
    22   202   205    1
    23   206   208    1
    24   206   205    1
    25   118   117    1
    26   204   203    2
    27   122   129   am
    28   122   121    1
    29   200   194    1
    30   205   207    1
    31     3     4    2
    32     3     2    1
    33   134   135    1
    34     1     2    1
    35   119   117    1
    36   195   196    1
    37   195   194    1
    38   135   136    1
    39   135   138    1
    40   117   114    1
    41   136   137    2
    42   197   196    2
    43   120   121    1
    44   120   115   am
    45   114   115    1
    46   114   113    1
    47   194   188   am
    48     2     5    1
    49   121   124    1
    50    78    77    1
    51   115   116    2
    52     5     6    1
    53   193   191    1
    54   138   139    1
    55   124   125    1
    56    77    76    1
    57   188   187    1
    58   188   189    2
    59   192   191    1
    60   125   126    1
    61   180   179   ar
    62   180   178   ar
    63   190   191    1
    64   190   187    1
    65     6     7    1
    66     6     8    1
    67   128   126   ar
    68   187   186    1
    69    18    19    2
    70    18    17    1
    71   179   177   ar
    72   126   127   ar
    73   178   176   ar
    74    16    17    1
    75    20    17    1
    76    20    21    1
    77   184   183    2
    78    76    75    1
    79   186   183   am
    80    23    21   ar
    81    23    25   ar
    82   140   141    1
    83    65    64    2
    84    75    72    1
    85   183   182    1
    86    21    22   ar
    87    72    71    1
    88    72    73    1
    89   177   175   ar
    90   176   175   ar
    91   142   141    1
    92   142   143    2
    93    79    73   am
    94    79    80    1
    95    25    26   ar
    96   141   144    1
    97    64    71   am
    98    64    63    1
    99   144   145    1
   100   175   174    1
   101    62    63    1
   102    73    74    2
   103    80    81    1
   104    89    88    1
   105    89    83    1
   106   146   145    2
   107    22    24   ar
   108   182   185    1
   109   182   181    1
   110   145   147   am
   111   173   172    2
   112    88    87    1
   113    63    66    1
   114    26    24   ar
   115    26    27    1
   116   172   171    1
   117    83    81   am
   118    83    84    1
   119   174   171    1
   120    81    82    2
   121    66    67    1
   122   171   170    1
   123    87    84    1
   124    84    85    1
   125    67    68    1
   126    93    92    2
   127    90    85   am
   128    90    91    1
   129    85    86    2
   130   170   163   am
   131    91    92    1
   132    92    94   am
   133    68    69   ar
   134    68    70   ar
   135   164   163    2
   136   163   162    1
   137   152   153    1
   138    94    95    1
   139    96    97    2
   140    96    95    1
   141    95    98    1
   142    38    37   ar
   143    38    36   ar
   144   155   154    2
   145    37    35   ar
   146   162   161    1
   147   162   165    1
   148   154   153    1
   149   154   161   am
   150   153   156    1
   151    36    34   ar
   152   165   166    1
   153    98    99    1
   154    35    33   ar
   155   156   157    1
   156    99   100    1
   157   112   110    1
   158    34    33   ar
   159    33    32    1
   160   166   167    1
   161   110   109    1
   162   110   111    1
   163   100   101    1
   164   109   106    1
   165   157   158    1
   166   101   102    2
   167   107   106    1
   168   107   108    2
   169   168   167   ar
   170   159   158    2
   171   105   106    1
   172    31    30    2
   173   158   160   am
   174   167   169   ar
   175    32    29    1
   176    45    43    1
   177   104   102    1
   178   102   103    1
   179    29    30    1
   180    29    28    1
   181    44    43    1
   182    61    59   ar
   183    43    40    1
   184    51    52    1
   185    51    50    1
   186    59    60   ar
   187    59    58    1
   188    52    46    1
   189    50    47    1
   190    58    57    1
   191    40    39    1
   192    40    41    1
   193    46    47    1
   194    47    48    1
   195    41    42    2
   196    57    54    1
   197    53    48   am
   198    53    54    1
   199    48    49    2
   200    54    55    1
   201    55    56    2
