@<TRIPOS>MOLECULE
tmp/6a0kB01.pdb
 97 92 0 0 0
SMALL
GASTEIGER

@<TRIPOS>ATOM
      1  N         -8.9890  -92.3530  -26.7370 N.3    79  HIS79      -0.1241
      2  CA        -7.6130  -92.5990  -26.3200 C.3    79  HIS79       0.1621
      3  C         -6.7360  -93.0890  -27.4610 C.2    79  HIS79       0.2264
      4  O         -5.4870  -93.0170  -27.4070 O.2    79  HIS79      -0.2867
      5  CB        -7.5690  -93.5290  -25.1050 C.3    79  HIS79       0.0745
      6  CG        -8.2580  -94.8550  -25.3050 C.ar   79  HIS79       0.0817
      7  ND1       -7.7450  -95.8620  -26.0930 N.ar   79  HIS79      -0.2268
      8  CD2       -9.4420  -95.3170  -24.8350 C.ar   79  HIS79       0.1154
      9  CE1       -8.5770  -96.8890  -26.0780 C.ar   79  HIS79       0.1986
     10  NE2       -9.6190  -96.5790  -25.3280 N.ar   79  HIS79      -0.2212
     11  N         -5.8110  -95.9690  -28.6380 N.3    81  TYR81      -0.1241
     12  CA        -5.0980  -97.2320  -28.5820 C.3    81  TYR81       0.1605
     13  C         -5.6830  -98.2920  -29.5030 C.2    81  TYR81       0.2264
     14  O         -5.0810  -99.3070  -29.6350 O.2    81  TYR81      -0.2867
     15  CB        -4.9890  -97.7430  -27.1280 C.3    81  TYR81       0.0534
     16  CG        -3.8910  -96.9760  -26.4110 C.ar   81  TYR81      -0.0201
     17  CD1       -2.5700  -97.2980  -26.5800 C.ar   81  TYR81      -0.0009
     18  CD2       -4.1980  -95.9160  -25.6330 C.ar   81  TYR81      -0.0009
     19  CE1       -1.5720  -96.5480  -25.9580 C.ar   81  TYR81       0.0417
     20  CE2       -3.2550  -95.1930  -24.9840 C.ar   81  TYR81       0.0417
     21  CZ        -1.9380  -95.4820  -25.1690 C.ar   81  TYR81       0.1957
     22  OH        -0.9900  -94.6970  -24.5430 O.3    81  TYR81      -0.2866
     23  N         -1.2920 -104.6030  -30.3540 N.3   121  HIS121     -0.1241
     24  CA        -2.6790 -104.7170  -30.7710 C.3   121  HIS121      0.1621
     25  C         -3.1810 -103.5380  -31.6090 C.2   121  HIS121      0.2264
     26  O         -2.5690 -102.5220  -31.6020 O.2   121  HIS121     -0.2867
     27  CB        -3.5620 -104.8430  -29.5350 C.3   121  HIS121      0.0745
     28  CG        -3.3180 -103.7940  -28.5040 C.ar  121  HIS121      0.0817
     29  ND1       -2.6180 -104.0220  -27.3480 N.ar  121  HIS121     -0.2268
     30  CD2       -3.7020 -102.5010  -28.4550 C.ar  121  HIS121      0.1154
     31  CE1       -2.5630 -102.9100  -26.6490 C.ar  121  HIS121      0.1986
     32  NE2       -3.2270 -101.9780  -27.2880 N.ar  121  HIS121     -0.2212
     33  N         -5.6740 -107.4960  -26.3890 N.3   163  CYS163     -0.1221
     34  CA        -5.0750 -106.8820  -25.2140 C.3   163  CYS163      0.1808
     35  C         -5.9490 -107.1260  -24.0020 C.2   163  CYS163      0.2601
     36  O         -7.0400 -106.5860  -23.9120 O.2   163  CYS163     -0.2717
     37  CB        -4.9100 -105.3650  -25.4430 C.3   163  CYS163      0.0970
     38  SG        -3.9570 -104.6010  -24.1280 S.3   163  CYS163     -0.0800
     39  N         -5.5010 -107.9880  -23.0940 N.am  164  SER164     -0.1952
     40  CA        -6.1220 -108.2270  -21.7980 C.3   164  SER164      0.1924
     41  C         -7.6330 -108.4970  -21.8260 C.2   164  SER164      0.2314
     42  O         -8.3580 -108.0370  -20.9890 O.2   164  SER164     -0.2863
     43  CB        -5.8030 -107.0730  -20.8620 C.3   164  SER164      0.2116
     44  OG        -4.3770 -106.8600  -20.8560 O.3   164  SER164     -0.2180
     45  N         -9.7640 -107.5260  -23.9940 N.3   166  CYS166     -0.1235
     46  CA       -10.6270 -106.4890  -24.5050 C.3   166  CYS166      0.1677
     47  C        -11.0480 -106.7640  -25.9660 C.2   166  CYS166      0.2270
     48  O        -10.1980 -106.7810  -26.8740 O.2   166  CYS166     -0.2867
     49  CB        -9.9500 -105.1300  -24.3050 C.3   166  CYS166      0.0956
     50  SG       -10.8600 -103.6850  -24.9280 S.3   166  CYS166     -0.0801
     51  N        -12.3190 -105.0650  -28.4500 N.3   168  TYR168     -0.1227
     52  CA       -12.0450 -104.1060  -29.4780 C.3   168  TYR168      0.1736
     53  C        -10.5330 -103.8730  -29.7110 C.2   168  TYR168      0.2595
     54  O        -10.1670 -103.1780  -30.6440 O.2   168  TYR168     -0.2718
     55  CB       -12.8360 -102.8150  -29.2610 C.3   168  TYR168      0.0548
     56  CG       -12.4450 -101.9550  -28.0790 C.ar  168  TYR168     -0.0200
     57  CD1      -11.3770 -101.0540  -28.1880 C.ar  168  TYR168     -0.0009
     58  CD2      -13.1780 -101.9660  -26.8940 C.ar  168  TYR168     -0.0009
     59  CE1      -11.0020 -100.2570  -27.1460 C.ar  168  TYR168      0.0417
     60  CE2      -12.8180 -101.1340  -25.8280 C.ar  168  TYR168      0.0417
     61  CZ       -11.7090 -100.3030  -25.9680 C.ar  168  TYR168      0.1957
     62  OH       -11.2990  -99.4420  -24.9800 O.3   168  TYR168     -0.2866
     63  N         -9.6880 -104.5340  -28.9250 N.am  169  LEU169     -0.1980
     64  CA        -8.2400 -104.5450  -29.1130 C.3   169  LEU169      0.1596
     65  C         -7.6610 -105.9620  -29.4870 C.2   169  LEU169      0.2287
     66  O         -7.0240 -106.6340  -28.6600 O.2   169  LEU169     -0.2864
     67  CB        -7.6030 -104.0410  -27.8340 C.3   169  LEU169      0.0297
     68  CG        -8.0730 -102.6760  -27.3080 C.3   169  LEU169      0.0022
     69  CD1       -7.5130 -102.4310  -25.9000 C.3   169  LEU169      0.0001
     70  CD2       -7.7960 -101.5440  -28.2680 C.3   169  LEU169      0.0001
     71  N         -2.6790  -93.0310  -17.1910 N.3   297  ASP297     -0.1239
     72  CA        -3.0480  -94.2690  -16.5850 C.3   297  ASP297      0.1674
     73  C         -2.9440  -94.1790  -15.0660 C.2   297  ASP297      0.2266
     74  O         -2.9360  -95.2040  -14.4170 O.2   297  ASP297     -0.2867
     75  CB        -2.1380  -95.4140  -17.0640 C.3   297  ASP297      0.1410
     76  CG        -2.0880  -95.5800  -18.6060 C.2   297  ASP297      0.3668
     77  OD1       -3.1730  -95.5800  -19.1980 O.co2 297  ASP297     -0.2456
     78  OD2       -0.9500  -95.7350  -19.1880 O.co2 297  ASP297     -0.2456
     79  N         -7.9250  -92.8030  -14.7640 N.3   341  ASP341     -0.1239
     80  CA        -8.5710  -92.9280  -16.0370 C.3   341  ASP341      0.1674
     81  C        -10.0460  -93.3830  -15.9100 C.2   341  ASP341      0.2266
     82  O        -10.2780  -94.4340  -15.4390 O.2   341  ASP341     -0.2867
     83  CB        -7.7910  -93.9430  -16.8010 C.3   341  ASP341      0.1410
     84  CG        -8.3380  -94.2490  -18.1910 C.2   341  ASP341      0.3668
     85  OD1       -9.1980  -93.5450  -18.7600 O.co2 341  ASP341     -0.2456
     86  OD2       -7.8930  -95.3380  -18.7070 O.co2 341  ASP341     -0.2456
     87  N         -8.0490  -87.5190  -17.5190 N.3   345  ARG345     -0.1245
     88  CA        -8.0110  -87.0780  -18.8970 C.3   345  ARG345      0.1563
     89  C         -8.9330  -85.8840  -19.1240 C.2   345  ARG345      0.2260
     90  O         -9.5190  -85.7230  -20.2100 O.2   345  ARG345     -0.2867
     91  CB        -8.3640  -88.2000  -19.8450 C.3   345  ARG345      0.0307
     92  CG        -7.5270  -89.4150  -19.5090 C.3   345  ARG345      0.0489
     93  CD        -7.9480  -90.6760  -20.1920 C.3   345  ARG345      0.2205
     94  NE        -6.8960  -91.6460  -20.0020 N.pl3 345  ARG345     -0.0865
     95  CZ        -6.7810  -92.7860  -20.6460 C.cat 345  ARG345      0.5346
     96  NH1       -7.6880  -93.1420  -21.5670 N.pl3 345  ARG345      0.1354
     97  NH2       -5.7410  -93.5470  -20.3810 N.pl3 345  ARG345      0.1354
@<TRIPOS>BOND
     1    25    26    2
     2    25    24    1
     3    24    23    1
     4    24    27    1
     5    54    53    2
     6    53    52    1
     7    53    63   am
     8    14    13    2
     9    27    28    1
    10    13    12    1
    11    65    64    1
    12    65    66    2
    13    52    55    1
    14    52    51    1
    15    55    56    1
    16    64    63    1
    17    64    67    1
    18    11    12    1
    19    12    15    1
    20    28    30   ar
    21    28    29   ar
    22    30    32   ar
    23    70    68    1
    24    57    56   ar
    25    57    59   ar
    26    56    58   ar
    27    67    68    1
    28     3     4    2
    29     3     2    1
    30    29    31   ar
    31    68    69    1
    32    32    31   ar
    33    59    61   ar
    34    15    16    1
    35    58    60   ar
    36    48    47    2
    37     1     2    1
    38    17    16   ar
    39    17    19   ar
    40    16    18   ar
    41    33    34    1
    42     2     5    1
    43     7     9   ar
    44     7     6   ar
    45     9    10   ar
    46    61    60   ar
    47    61    62    1
    48    47    46    1
    49    19    21   ar
    50    18    20   ar
    51    37    34    1
    52    37    38    1
    53    10     8   ar
    54     6     5    1
    55     6     8   ar
    56    34    35    1
    57    21    20   ar
    58    21    22    1
    59    50    49    1
    60    46    49    1
    61    46    45    1
    62    35    36    2
    63    35    39   am
    64    39    40    1
    65    41    40    1
    66    41    42    2
    67    40    43    1
    68    96    95    1
    69    43    44    1
    70    95    97    1
    71    95    94    2
    72    90    89    2
    73    93    94    1
    74    93    92    1
    75    91    92    1
    76    91    88    1
    77    77    76   ar
    78    78    76   ar
    79    89    88    1
    80    88    87    1
    81    85    84   ar
    82    86    84   ar
    83    76    75    1
    84    84    83    1
    85    71    72    1
    86    75    72    1
    87    83    80    1
    88    72    73    1
    89    80    81    1
    90    80    79    1
    91    81    82    2
    92    73    74    2
