@<TRIPOS>MOLECULE
tmp/6a0kB00.pdb
 144 138 0 0 0
SMALL
GASTEIGER

@<TRIPOS>ATOM
      1  N         -8.9890  -92.3530  -26.7370 N.3    79  HIS79      -0.1241
      2  CA        -7.6130  -92.5990  -26.3200 C.3    79  HIS79       0.1621
      3  C         -6.7360  -93.0890  -27.4610 C.2    79  HIS79       0.2264
      4  O         -5.4870  -93.0170  -27.4070 O.2    79  HIS79      -0.2867
      5  CB        -7.5690  -93.5290  -25.1050 C.3    79  HIS79       0.0745
      6  CG        -8.2580  -94.8550  -25.3050 C.ar   79  HIS79       0.0817
      7  ND1       -7.7450  -95.8620  -26.0930 N.ar   79  HIS79      -0.2268
      8  CD2       -9.4420  -95.3170  -24.8350 C.ar   79  HIS79       0.1154
      9  CE1       -8.5770  -96.8890  -26.0780 C.ar   79  HIS79       0.1986
     10  NE2       -9.6190  -96.5790  -25.3280 N.ar   79  HIS79      -0.2212
     11  N         -5.8110  -95.9690  -28.6380 N.3    81  TYR81      -0.1241
     12  CA        -5.0980  -97.2320  -28.5820 C.3    81  TYR81       0.1605
     13  C         -5.6830  -98.2920  -29.5030 C.2    81  TYR81       0.2264
     14  O         -5.0810  -99.3070  -29.6350 O.2    81  TYR81      -0.2867
     15  CB        -4.9890  -97.7430  -27.1280 C.3    81  TYR81       0.0534
     16  CG        -3.8910  -96.9760  -26.4110 C.ar   81  TYR81      -0.0201
     17  CD1       -2.5700  -97.2980  -26.5800 C.ar   81  TYR81      -0.0009
     18  CD2       -4.1980  -95.9160  -25.6330 C.ar   81  TYR81      -0.0009
     19  CE1       -1.5720  -96.5480  -25.9580 C.ar   81  TYR81       0.0417
     20  CE2       -3.2550  -95.1930  -24.9840 C.ar   81  TYR81       0.0417
     21  CZ        -1.9380  -95.4820  -25.1690 C.ar   81  TYR81       0.1957
     22  OH        -0.9900  -94.6970  -24.5430 O.3    81  TYR81      -0.2866
     23  N         -1.2920 -104.6030  -30.3540 N.3   121  HIS121     -0.1241
     24  CA        -2.6790 -104.7170  -30.7710 C.3   121  HIS121      0.1621
     25  C         -3.1810 -103.5380  -31.6090 C.2   121  HIS121      0.2264
     26  O         -2.5690 -102.5220  -31.6020 O.2   121  HIS121     -0.2867
     27  CB        -3.5620 -104.8430  -29.5350 C.3   121  HIS121      0.0745
     28  CG        -3.3180 -103.7940  -28.5040 C.ar  121  HIS121      0.0817
     29  ND1       -2.6180 -104.0220  -27.3480 N.ar  121  HIS121     -0.2268
     30  CD2       -3.7020 -102.5010  -28.4550 C.ar  121  HIS121      0.1154
     31  CE1       -2.5630 -102.9100  -26.6490 C.ar  121  HIS121      0.1986
     32  NE2       -3.2270 -101.9780  -27.2880 N.ar  121  HIS121     -0.2212
     33  N         -5.6740 -107.4960  -26.3890 N.3   163  CYS163     -0.1235
     34  CA        -5.0750 -106.8820  -25.2140 C.3   163  CYS163      0.1677
     35  C         -5.9490 -107.1260  -24.0020 C.2   163  CYS163      0.2270
     36  O         -7.0400 -106.5860  -23.9120 O.2   163  CYS163     -0.2867
     37  CB        -4.9100 -105.3650  -25.4430 C.3   163  CYS163      0.0956
     38  SG        -3.9570 -104.6010  -24.1280 S.3   163  CYS163     -0.0801
     39  N         -9.6880 -104.5340  -28.9250 N.3   169  LEU169     -0.1245
     40  CA        -8.2400 -104.5450  -29.1130 C.3   169  LEU169      0.1561
     41  C         -7.6610 -105.9620  -29.4870 C.2   169  LEU169      0.2260
     42  O         -7.0240 -106.6340  -28.6600 O.2   169  LEU169     -0.2867
     43  CB        -7.6030 -104.0410  -27.8340 C.3   169  LEU169      0.0270
     44  CG        -8.0730 -102.6760  -27.3080 C.3   169  LEU169      0.0019
     45  CD1       -7.5130 -102.4310  -25.9000 C.3   169  LEU169      0.0001
     46  CD2       -7.7960 -101.5440  -28.2680 C.3   169  LEU169      0.0001
     47  N          7.7410  -94.2740  -27.8140 N.3   199  ARG199     -0.1245
     48  CA         7.3920  -94.8370  -26.5150 C.3   199  ARG199      0.1563
     49  C          6.6400  -96.1230  -26.8360 C.2   199  ARG199      0.2260
     50  O          5.7530  -96.1410  -27.6820 O.2   199  ARG199     -0.2867
     51  CB         6.5720  -93.8390  -25.7170 C.3   199  ARG199      0.0307
     52  CG         6.0540  -94.3790  -24.3880 C.3   199  ARG199      0.0489
     53  CD         4.6920  -94.9950  -24.5300 C.3   199  ARG199      0.2205
     54  NE         4.0870  -95.2570  -23.2200 N.pl3 199  ARG199     -0.0865
     55  CZ         2.8650  -95.7940  -23.0370 C.cat 199  ARG199      0.5346
     56  NH1        2.1690  -96.1570  -24.0640 N.pl3 199  ARG199      0.1354
     57  NH2        2.3270  -95.9270  -21.8150 N.pl3 199  ARG199      0.1354
     58  N          4.1800  -98.9940  -26.1860 N.3   201  ASP201     -0.1225
     59  CA         2.9960  -99.3740  -25.4500 C.3   201  ASP201      0.1805
     60  C          3.0050 -100.9130  -25.0600 C.2   201  ASP201      0.2597
     61  O          3.2450 -101.7740  -25.9330 O.2   201  ASP201     -0.2718
     62  CB         1.7800  -99.1150  -26.3200 C.3   201  ASP201      0.1424
     63  CG         0.5100  -99.2670  -25.5310 C.2   201  ASP201      0.3668
     64  OD1        0.4080  -98.7080  -24.4290 O.co2 201  ASP201     -0.2456
     65  OD2       -0.3490 -100.0650  -25.8620 O.co2 201  ASP201     -0.2456
     66  N          2.7590 -101.2420  -23.7820 N.am  202  VAL202     -0.1980
     67  CA         2.6700 -102.6530  -23.2710 C.3   202  VAL202      0.1595
     68  C          3.7070 -103.5760  -23.9190 C.2   202  VAL202      0.2287
     69  O          3.3830 -104.6680  -24.4090 O.2   202  VAL202     -0.2864
     70  CB         1.2240 -103.2640  -23.2660 C.3   202  VAL202      0.0276
     71  CG1        0.3340 -102.5420  -22.2980 C.3   202  VAL202      0.0022
     72  CG2        0.5690 -103.3080  -24.6480 C.3   202  VAL202      0.0022
     73  N          5.9060 -105.4580  -22.8540 N.3   204  TYR204     -0.1241
     74  CA         5.9570 -106.7570  -22.1950 C.3   204  TYR204      0.1605
     75  C          4.9350 -107.7690  -22.7590 C.2   204  TYR204      0.2264
     76  O          5.1170 -108.9440  -22.5300 O.2   204  TYR204     -0.2867
     77  CB         5.7880 -106.6140  -20.6510 C.3   204  TYR204      0.0534
     78  CG         4.8440 -105.5300  -20.2640 C.ar  204  TYR204     -0.0201
     79  CD1        3.4880 -105.7430  -20.3360 C.ar  204  TYR204     -0.0009
     80  CD2        5.3130 -104.2170  -19.8890 C.ar  204  TYR204     -0.0009
     81  CE1        2.6100 -104.7360  -20.0080 C.ar  204  TYR204      0.0417
     82  CE2        4.4200 -103.2020  -19.5370 C.ar  204  TYR204      0.0417
     83  CZ         3.0720 -103.4780  -19.6480 C.ar  204  TYR204      0.1957
     84  OH         2.1420 -102.5670  -19.3450 O.3   204  TYR204     -0.2866
     85  N          7.2800  -98.5330  -21.8650 N.3   230  GLU230     -0.1245
     86  CA         6.3650  -98.6140  -20.7400 C.3   230  GLU230      0.1567
     87  C          6.7120  -99.8160  -19.9040 C.2   230  GLU230      0.2260
     88  O          6.7230 -100.9760  -20.3890 O.2   230  GLU230     -0.2867
     89  CB         4.9090  -98.7390  -21.1990 C.3   230  GLU230      0.0388
     90  CG         3.9740  -98.7780  -20.0560 C.3   230  GLU230      0.1160
     91  CD         2.5460  -98.9950  -20.5090 C.2   230  GLU230      0.3649
     92  OE1        2.2710  -99.4290  -21.6670 O.co2 230  GLU230     -0.2457
     93  OE2        1.6820  -98.6970  -19.7170 O.co2 230  GLU230     -0.2457
     94  N          6.0090 -100.8560  -15.6150 N.3   232  TRP232     -0.1241
     95  CA         5.5340 -100.5100  -14.2800 C.3   232  TRP232      0.1605
     96  C          6.3460 -101.1130  -13.1300 C.2   232  TRP232      0.2264
     97  O          6.2150 -100.7210  -12.0310 O.2   232  TRP232     -0.2867
     98  CB         4.0420 -100.8780  -14.1190 C.3   232  TRP232      0.0550
     99  CG         3.1690 -100.1310  -15.0140 C.ar  232  TRP232      0.0003
    100  CD1        3.0540 -100.2880  -16.3250 C.ar  232  TRP232      0.0946
    101  CD2        2.2950  -99.0730  -14.6540 C.ar  232  TRP232      0.0152
    102  NE1        2.1550  -99.4160  -16.8390 N.ar  232  TRP232     -0.2442
    103  CE2        1.6630  -98.6500  -15.8210 C.ar  232  TRP232      0.0810
    104  CE3        1.9720  -98.4300  -13.4450 C.ar  232  TRP232      0.0012
    105  CZ2        0.7430  -97.5850  -15.8260 C.ar  232  TRP232      0.0191
    106  CZ3        1.0450  -97.3840  -13.4550 C.ar  232  TRP232      0.0001
    107  CH2        0.4390  -96.9830  -14.6360 C.ar  232  TRP232      0.0015
    108  N         -1.6150  -90.5940  -18.0300 N.3   296  HIS296     -0.1226
    109  CA        -2.9550  -90.9500  -18.4240 C.3   296  HIS296      0.1752
    110  C         -3.5110  -92.3140  -17.9080 C.2   296  HIS296      0.2596
    111  O         -4.7150  -92.6100  -18.0400 O.2   296  HIS296     -0.2718
    112  CB        -3.0240  -90.9030  -19.9730 C.3   296  HIS296      0.0759
    113  CG        -2.2400  -91.9640  -20.6670 C.ar  296  HIS296      0.0818
    114  ND1       -0.8760  -92.1290  -20.4770 N.ar  296  HIS296     -0.2268
    115  CD2       -2.5850  -92.7810  -21.6720 C.ar  296  HIS296      0.1154
    116  CE1       -0.4330  -93.0380  -21.3130 C.ar  296  HIS296      0.1986
    117  NE2       -1.4570  -93.4660  -22.0320 N.ar  296  HIS296     -0.2212
    118  N         -2.6790  -93.0310  -17.1910 N.am  297  ASP297     -0.1974
    119  CA        -3.0480  -94.2690  -16.5850 C.3   297  ASP297      0.1709
    120  C         -2.9440  -94.1790  -15.0660 C.2   297  ASP297      0.2293
    121  O         -2.9360  -95.2040  -14.4170 O.2   297  ASP297     -0.2864
    122  CB        -2.1380  -95.4140  -17.0640 C.3   297  ASP297      0.1436
    123  CG        -2.0880  -95.5800  -18.6060 C.2   297  ASP297      0.3671
    124  OD1       -3.1730  -95.5800  -19.1980 O.co2 297  ASP297     -0.2456
    125  OD2       -0.9500  -95.7350  -19.1880 O.co2 297  ASP297     -0.2456
    126  N         -7.9250  -92.8030  -14.7640 N.3   341  ASP341     -0.1239
    127  CA        -8.5710  -92.9280  -16.0370 C.3   341  ASP341      0.1674
    128  C        -10.0460  -93.3830  -15.9100 C.2   341  ASP341      0.2266
    129  O        -10.2780  -94.4340  -15.4390 O.2   341  ASP341     -0.2867
    130  CB        -7.7910  -93.9430  -16.8010 C.3   341  ASP341      0.1410
    131  CG        -8.3380  -94.2490  -18.1910 C.2   341  ASP341      0.3668
    132  OD1       -9.1980  -93.5450  -18.7600 O.co2 341  ASP341     -0.2456
    133  OD2       -7.8930  -95.3380  -18.7070 O.co2 341  ASP341     -0.2456
    134  N         -8.0490  -87.5190  -17.5190 N.3   345  ARG345     -0.1245
    135  CA        -8.0110  -87.0780  -18.8970 C.3   345  ARG345      0.1563
    136  C         -8.9330  -85.8840  -19.1240 C.2   345  ARG345      0.2260
    137  O         -9.5190  -85.7230  -20.2100 O.2   345  ARG345     -0.2867
    138  CB        -8.3640  -88.2000  -19.8450 C.3   345  ARG345      0.0307
    139  CG        -7.5270  -89.4150  -19.5090 C.3   345  ARG345      0.0489
    140  CD        -7.9480  -90.6760  -20.1920 C.3   345  ARG345      0.2205
    141  NE        -6.8960  -91.6460  -20.0020 N.pl3 345  ARG345     -0.0865
    142  CZ        -6.7810  -92.7860  -20.6460 C.cat 345  ARG345      0.5346
    143  NH1       -7.6880  -93.1420  -21.5670 N.pl3 345  ARG345      0.1354
    144  NH2       -5.7410  -93.5470  -20.3810 N.pl3 345  ARG345      0.1354
@<TRIPOS>BOND
     1    25    26    2
     2    25    24    1
     3    24    23    1
     4    24    27    1
     5    14    13    2
     6    27    28    1
     7    13    12    1
     8    41    40    1
     9    41    42    2
    10    40    39    1
    11    40    43    1
    12    11    12    1
    13    12    15    1
    14    28    30   ar
    15    28    29   ar
    16    30    32   ar
    17    46    44    1
    18    43    44    1
    19    47    48    1
    20    50    49    2
    21     3     4    2
    22     3     2    1
    23    29    31   ar
    24    44    45    1
    25    32    31   ar
    26    15    16    1
    27    49    48    1
    28     1     2    1
    29    17    16   ar
    30    17    19   ar
    31    48    51    1
    32    16    18   ar
    33    33    34    1
    34     2     5    1
    35    62    63    1
    36    62    59    1
    37    58    59    1
    38     7     9   ar
    39     7     6   ar
    40     9    10   ar
    41    19    21   ar
    42    61    60    2
    43    65    63   ar
    44    51    52    1
    45    18    20   ar
    46    63    64   ar
    47    59    60    1
    48    37    34    1
    49    37    38    1
    50    10     8   ar
    51     6     5    1
    52     6     8   ar
    53    34    35    1
    54    21    20   ar
    55    21    22    1
    56    60    66   am
    57    72    70    1
    58    53    52    1
    59    53    54    1
    60    69    68    2
    61    56    55    1
    62    35    36    2
    63    68    67    1
    64    66    67    1
    65    67    70    1
    66    70    71    1
    67    54    55    2
    68    55    57    1
    69    73    74    1
    70    75    76    2
    71    75    74    1
    72    74    77    1
    73   117   115   ar
    74   117   116   ar
    75    85    86    1
    76   115   113   ar
    77    92    91   ar
    78   143   142    1
    79   116   114   ar
    80    89    86    1
    81    89    90    1
    82    86    87    1
    83   113   114   ar
    84   113   112    1
    85    77    78    1
    86   142   144    1
    87   142   141    2
    88    91    90    1
    89    91    93   ar
    90    88    87    2
    91    79    78   ar
    92    79    81   ar
    93    78    80   ar
    94   137   136    2
    95   140   141    1
    96   140   139    1
    97    81    83   ar
    98   112   109    1
    99    80    82   ar
   100   138   139    1
   101   138   135    1
   102    83    82   ar
   103    83    84    1
   104   124   123   ar
   105   125   123   ar
   106   136   135    1
   107   135   134    1
   108   132   131   ar
   109   133   131   ar
   110   123   122    1
   111   109   108    1
   112   109   110    1
   113   131   130    1
   114   111   110    2
   115   110   118   am
   116   118   119    1
   117   122   119    1
   118   102   100   ar
   119   102   103   ar
   120   130   127    1
   121   119   120    1
   122   100    99   ar
   123   127   128    1
   124   127   126    1
   125   128   129    2
   126   105   103   ar
   127   105   107   ar
   128   103   101   ar
   129    94    95    1
   130   120   121    2
   131    99   101   ar
   132    99    98    1
   133   101   104   ar
   134   107   106   ar
   135    95    98    1
   136    95    96    1
   137   106   104   ar
   138    96    97    2
