@<TRIPOS>MOLECULE
tmp/6a0lA00.pdb
 168 162 0 0 0
SMALL
GASTEIGER

@<TRIPOS>ATOM
      1  N          8.4540   26.6970   20.3710 N.3    76  HIS76      -0.1241
      2  CA         7.0360   26.3170   20.6980 C.3    76  HIS76       0.1621
      3  C          6.1440   27.4870   21.1200 C.2    76  HIS76       0.2264
      4  O          4.9460   27.4540   20.9150 O.2    76  HIS76      -0.2867
      5  CB         6.9640   25.1770   21.7260 C.3    76  HIS76       0.0745
      6  CG         7.6900   25.4440   23.0050 C.ar   76  HIS76       0.0817
      7  ND1        7.0680   25.9470   24.1120 N.ar   76  HIS76      -0.2268
      8  CD2        8.9770   25.2330   23.3720 C.ar   76  HIS76       0.1154
      9  CE1        7.9240   26.0570   25.1060 C.ar   76  HIS76       0.1986
     10  NE2        9.0990   25.6360   24.6800 N.ar   76  HIS76      -0.2212
     11  N          5.3090   28.6870   24.1500 N.3    78  TYR78      -0.1241
     12  CA         4.7210   28.6400   25.4840 C.3    78  TYR78       0.1605
     13  C          5.4390   29.5300   26.5540 C.2    78  TYR78       0.2264
     14  O          4.9280   29.6730   27.6450 O.2    78  TYR78      -0.2867
     15  CB         4.5270   27.1840   25.9500 C.3    78  TYR78       0.0534
     16  CG         3.4670   26.4630   25.1250 C.ar   78  TYR78      -0.0201
     17  CD1        2.1470   26.7260   25.3500 C.ar   78  TYR78      -0.0009
     18  CD2        3.7870   25.5450   24.0970 C.ar   78  TYR78      -0.0009
     19  CE1        1.1590   26.0970   24.6290 C.ar   78  TYR78       0.0417
     20  CE2        2.8050   24.9160   23.3640 C.ar   78  TYR78       0.0417
     21  CZ         1.4870   25.2110   23.6250 C.ar   78  TYR78       0.1957
     22  OH         0.4340   24.6350   22.9600 O.3    78  TYR78      -0.2866
     23  N          0.8220   30.4030   33.0330 N.3   118  HIS118     -0.1241
     24  CA         2.2090   30.8630   33.0630 C.3   118  HIS118      0.1621
     25  C          2.6290   31.6440   31.8280 C.2   118  HIS118      0.2264
     26  O          1.9750   31.6050   30.8480 O.2   118  HIS118     -0.2867
     27  CB         3.1730   29.6880   33.1740 C.3   118  HIS118      0.0745
     28  CG         2.8610   28.5430   32.2610 C.ar  118  HIS118      0.0817
     29  ND1        3.2670   28.4940   30.9500 N.ar  118  HIS118     -0.2268
     30  CD2        2.2220   27.3850   32.4880 C.ar  118  HIS118      0.1154
     31  CE1        2.8640   27.3730   30.4070 C.ar  118  HIS118      0.1986
     32  NE2        2.2130   26.6900   31.3160 N.ar  118  HIS118     -0.2212
     33  N          5.5000   26.3440   35.8270 N.3   160  CYS160     -0.1221
     34  CA         4.7710   25.2290   35.1850 C.3   160  CYS160      0.1808
     35  C          5.6020   23.9680   35.2670 C.2   160  CYS160      0.2601
     36  O          6.6190   23.8620   34.6180 O.2   160  CYS160     -0.2717
     37  CB         4.4530   25.5390   33.7210 C.3   160  CYS160      0.0970
     38  SG         3.3830   24.2980   32.9140 S.3   160  CYS160     -0.0800
     39  N          5.1790   23.0270   36.1000 N.am  161  SER161     -0.1952
     40  CA         5.8630   21.7190   36.2570 C.3   161  SER161      0.1924
     41  C          7.3800   21.8080   36.5380 C.2   161  SER161      0.2314
     42  O          8.1880   20.9760   36.0960 O.2   161  SER161     -0.2863
     43  CB         5.5880   20.8820   35.0440 C.3   161  SER161      0.2116
     44  OG         4.1980   20.9120   34.7800 O.3   161  SER161     -0.2180
     45  N          9.6390   23.8320   35.4830 N.3   163  CYS163     -0.1235
     46  CA        10.4700   24.3650   34.3860 C.3   163  CYS163      0.1677
     47  C         10.7960   25.8670   34.5990 C.2   163  CYS163      0.2270
     48  O          9.9040   26.7550   34.6080 O.2   163  CYS163     -0.2867
     49  CB         9.7430   24.1670   33.0630 C.3   163  CYS163      0.0956
     50  SG        10.5220   25.0140   31.6780 S.3   163  CYS163     -0.0801
     51  N         12.1900   28.3410   32.9450 N.3   165  TYR165     -0.1227
     52  CA        11.9180   29.3980   31.9560 C.3   165  TYR165      0.1736
     53  C         10.4200   29.7070   31.7890 C.2   165  TYR165      0.2595
     54  O         10.0670   30.6060   31.0280 O.2   165  TYR165     -0.2718
     55  CB        12.6190   29.1370   30.5980 C.3   165  TYR165      0.0548
     56  CG        12.0790   28.0060   29.7780 C.ar  165  TYR165     -0.0200
     57  CD1       10.9340   28.1570   29.0280 C.ar  165  TYR165     -0.0009
     58  CD2       12.7480   26.7840   29.7170 C.ar  165  TYR165     -0.0009
     59  CE1       10.4330   27.1200   28.2530 C.ar  165  TYR165      0.0417
     60  CE2       12.2670   25.7340   28.9330 C.ar  165  TYR165      0.0417
     61  CZ        11.0840   25.9070   28.2080 C.ar  165  TYR165      0.1957
     62  OH        10.5410   24.8770   27.4170 O.3   165  TYR165     -0.2866
     63  N          9.5740   28.9730   32.5140 N.am  166  LEU166     -0.1980
     64  CA         8.1380   29.2470   32.6350 C.3   166  LEU166      0.1596
     65  C          7.6960   29.6230   34.0520 C.2   166  LEU166      0.2287
     66  O          7.0910   28.8080   34.7390 O.2   166  LEU166     -0.2864
     67  CB         7.3340   28.0130   32.1320 C.3   166  LEU166      0.0297
     68  CG         7.7160   27.4440   30.7420 C.3   166  LEU166      0.0022
     69  CD1        7.1740   26.0510   30.5360 C.3   166  LEU166      0.0001
     70  CD2        7.2290   28.3360   29.6090 C.3   166  LEU166      0.0001
     71  N         -8.5730   27.8160   22.9070 N.3   196  ARG196     -0.1245
     72  CA        -8.1520   26.5800   23.5510 C.3   196  ARG196      0.1563
     73  C         -7.3530   26.9370   24.8340 C.2   196  ARG196      0.2260
     74  O         -6.5210   27.8390   24.8360 O.2   196  ARG196     -0.2867
     75  CB        -7.2380   25.6920   22.6710 C.3   196  ARG196      0.0307
     76  CG        -7.1240   24.2960   23.3100 C.3   196  ARG196      0.0489
     77  CD        -5.8300   23.5310   23.3750 C.3   196  ARG196      0.2205
     78  NE        -4.6590   24.1760   23.9340 N.pl3 196  ARG196     -0.0865
     79  CZ        -3.5670   23.5340   24.3810 C.cat 196  ARG196      0.5346
     80  NH1       -3.4620   22.1930   24.3910 N.pl3 196  ARG196      0.1354
     81  NH2       -2.5510   24.2580   24.8470 N.pl3 196  ARG196      0.1354
     82  N         -4.6920   26.2670   27.5620 N.3   198  ASP198     -0.1225
     83  CA        -3.5080   25.5500   27.9330 C.3   198  ASP198      0.1805
     84  C         -3.6120   25.1680   29.4270 C.2   198  ASP198      0.2597
     85  O         -3.9020   26.0420   30.2510 O.2   198  ASP198     -0.2718
     86  CB        -2.2680   26.3960   27.6900 C.3   198  ASP198      0.1424
     87  CG        -1.0040   25.5700   27.7760 C.2   198  ASP198      0.3668
     88  OD1       -1.0560   24.4360   27.2430 O.co2 198  ASP198     -0.2456
     89  OD2        0.0190   26.0330   28.3540 O.co2 198  ASP198     -0.2456
     90  N         -3.3750   23.8830   29.7370 N.am  199  VAL199     -0.1980
     91  CA        -3.3480   23.3370   31.0920 C.3   199  VAL199      0.1595
     92  C         -4.2840   24.0140   32.1130 C.2   199  VAL199      0.2287
     93  O         -3.8380   24.4730   33.1740 O.2   199  VAL199     -0.2864
     94  CB        -1.8850   23.1700   31.6600 C.3   199  VAL199      0.0276
     95  CG1       -1.0860   22.1760   30.8510 C.3   199  VAL199      0.0022
     96  CG2       -1.1080   24.4730   31.7270 C.3   199  VAL199      0.0022
     97  N         -6.5180   22.8830   34.1950 N.3   201  TYR201     -0.1241
     98  CA        -6.3410   22.2140   35.4720 C.3   201  TYR201      0.1605
     99  C         -5.1870   22.7590   36.4390 C.2   201  TYR201      0.2264
    100  O         -5.2010   22.4510   37.6120 O.2   201  TYR201     -0.2867
    101  CB        -6.1510   20.6670   35.2250 C.3   201  TYR201      0.0534
    102  CG        -5.1440   20.3170   34.1240 C.ar  201  TYR201     -0.0201
    103  CD1       -3.7800   20.1850   34.4210 C.ar  201  TYR201     -0.0009
    104  CD2       -5.5500   20.0950   32.8080 C.ar  201  TYR201     -0.0009
    105  CE1       -2.8540   19.8590   33.4460 C.ar  201  TYR201      0.0417
    106  CE2       -4.6280   19.7720   31.8120 C.ar  201  TYR201      0.0417
    107  CZ        -3.2770   19.6400   32.1520 C.ar  201  TYR201      0.1957
    108  OH        -2.3320   19.3090   31.2150 O.3   201  TYR201     -0.2866
    109  N         -7.9170   21.8370   27.3390 N.3   227  GLU227     -0.1245
    110  CA        -6.9440   20.7520   27.3410 C.3   227  GLU227      0.1567
    111  C         -7.2310   19.8810   28.5710 C.2   227  GLU227      0.2260
    112  O         -7.3200   20.4090   29.6880 O.2   227  GLU227     -0.2867
    113  CB        -5.5120   21.2780   27.4070 C.3   227  GLU227      0.0388
    114  CG        -4.5270   20.1310   27.2880 C.3   227  GLU227      0.1160
    115  CD        -3.0880   20.4640   27.5990 C.2   227  GLU227      0.3649
    116  OE1       -2.8050   21.5340   28.1890 O.co2 227  GLU227     -0.2457
    117  OE2       -2.2370   19.6040   27.2680 O.co2 227  GLU227     -0.2457
    118  N         -6.3630   15.5040   29.4700 N.3   229  TRP229     -0.1241
    119  CA        -5.9320   14.1530   29.1160 C.3   229  TRP229      0.1605
    120  C         -6.7690   13.0080   29.7290 C.2   229  TRP229      0.2264
    121  O         -6.6720   11.8930   29.3230 O.2   229  TRP229     -0.2867
    122  CB        -4.4250   13.9600   29.4210 C.3   229  TRP229      0.0550
    123  CG        -3.5320   14.8540   28.5780 C.ar  229  TRP229      0.0003
    124  CD1       -3.3780   16.1760   28.7040 C.ar  229  TRP229      0.0946
    125  CD2       -2.7600   14.4810   27.4590 C.ar  229  TRP229      0.0152
    126  NE1       -2.5670   16.6680   27.7450 N.ar  229  TRP229     -0.2442
    127  CE2       -2.1440   15.6420   26.9720 C.ar  229  TRP229      0.0810
    128  CE3       -2.4870   13.2820   26.8370 C.ar  229  TRP229      0.0012
    129  CZ2       -1.2940   15.6330   25.8850 C.ar  229  TRP229      0.0191
    130  CZ3       -1.6280   13.2860   25.7580 C.ar  229  TRP229      0.0001
    131  CH2       -1.0510   14.4460   25.2980 C.ar  229  TRP229      0.0015
    132  N          0.6450   18.0020   18.6410 N.3   293  HIS293     -0.1226
    133  CA         2.0160   18.4170   19.0840 C.3   293  HIS293      0.1752
    134  C          2.5910   17.7820   20.3900 C.2   293  HIS293      0.2596
    135  O          3.8080   17.9320   20.6730 O.2   293  HIS293     -0.2718
    136  CB         2.1290   19.9570   19.1740 C.3   293  HIS293      0.0759
    137  CG         1.3130   20.5860   20.2560 C.ar  293  HIS293      0.0818
    138  ND1        0.0000   20.2390   20.5190 N.ar  293  HIS293     -0.2268
    139  CD2        1.6050   21.6000   21.1040 C.ar  293  HIS293      0.1154
    140  CE1       -0.4720   20.9900   21.4950 C.ar  293  HIS293      0.1986
    141  NE2        0.4850   21.8230   21.8750 N.ar  293  HIS293     -0.2212
    142  N          1.7480   17.1020   21.1980 N.am  294  ASP294     -0.1974
    143  CA         2.2400   16.4730   22.4390 C.3   294  ASP294      0.1709
    144  C          2.2230   14.9370   22.3260 C.2   294  ASP294      0.2293
    145  O          2.3830   14.2410   23.3190 O.2   294  ASP294     -0.2864
    146  CB         1.4850   16.9880   23.6660 C.3   294  ASP294      0.1436
    147  CG         1.4740   18.5570   23.7830 C.2   294  ASP294      0.3671
    148  OD1        2.5690   19.1330   23.7170 O.co2 294  ASP294     -0.2456
    149  OD2        0.3850   19.2000   23.9880 O.co2 294  ASP294     -0.2456
    150  N          7.3050   14.7100   20.6760 N.3   338  ASP338     -0.1239
    151  CA         8.0560   15.9700   20.8440 C.3   338  ASP338      0.1674
    152  C          9.5130   15.8220   21.2920 C.2   338  ASP338      0.2266
    153  O          9.7550   15.3110   22.3410 O.2   338  ASP338     -0.2867
    154  CB         7.3080   16.8400   21.8410 C.3   338  ASP338      0.1410
    155  CG         8.0210   18.1710   22.1660 C.2   338  ASP338      0.3668
    156  OD1        8.8220   18.6740   21.3930 O.co2 338  ASP338     -0.2456
    157  OD2        7.7680   18.7100   23.2240 O.co2 338  ASP338     -0.2456
    158  N          7.1930   17.4950   15.3950 N.3   342  ARG342     -0.1245
    159  CA         7.1440   18.8950   15.0210 C.3   342  ARG342      0.1563
    160  C          8.1420   19.0600   13.8700 C.2   342  ARG342      0.2260
    161  O          8.9410   20.0040   13.8190 O.2   342  ARG342     -0.2867
    162  CB         7.5170   19.7730   16.2290 C.3   342  ARG342      0.0307
    163  CG         6.8030   19.3550   17.5190 C.3   342  ARG342      0.0489
    164  CD         6.9500   20.3880   18.6210 C.3   342  ARG342      0.2205
    165  NE         5.9770   20.1760   19.6930 N.pl3 342  ARG342     -0.0865
    166  CZ         6.0770   20.6530   20.9400 C.cat 342  ARG342      0.5346
    167  NH1        7.1050   21.4070   21.2990 N.pl3 342  ARG342      0.1354
    168  NH2        5.1240   20.3930   21.8270 N.pl3 342  ARG342      0.1354
@<TRIPOS>BOND
     1   161   160    2
     2   160   159    1
     3   159   158    1
     4   159   162    1
     5   162   163    1
     6   163   164    1
     7   164   165    1
     8   132   133    1
     9   133   136    1
    10   133   134    1
    11   136   137    1
    12   165   166    2
    13   137   138   ar
    14   137   139   ar
    15     1     2    1
    16   134   135    2
    17   134   142   am
    18   138   140   ar
    19   150   151    1
    20     2     3    1
    21     2     5    1
    22   151   152    1
    23   151   154    1
    24     4     3    2
    25   166   167    1
    26   166   168    1
    27   139   141   ar
    28   142   143    1
    29   152   153    2
    30   156   155   ar
    31   140   141   ar
    32     5     6    1
    33   154   155    1
    34   155   157   ar
    35   144   143    1
    36   144   145    2
    37   143   146    1
    38    75    76    1
    39    75    72    1
    40    71    72    1
    41    22    21    1
    42     6     8   ar
    43     6     7   ar
    44    76    77    1
    45    20    21   ar
    46    20    18   ar
    47     8    10   ar
    48    77    78    1
    49    72    73    1
    50    21    19   ar
    51   146   147    1
    52   148   147   ar
    53   147   149   ar
    54    78    79    2
    55    18    16   ar
    56     7     9   ar
    57    11    12    1
    58    79    80    1
    59    79    81    1
    60    19    17   ar
    61    10     9   ar
    62    73    74    2
    63    16    17   ar
    64    16    15    1
    65   131   130   ar
    66   131   129   ar
    67    12    15    1
    68    12    13    1
    69   130   128   ar
    70   129   127   ar
    71    13    14    2
    72   128   125   ar
    73   127   125   ar
    74   127   126   ar
    75    88    87   ar
    76   117   115   ar
    77   114   113    1
    78   114   115    1
    79   109   110    1
    80   110   113    1
    81   110   111    1
    82    62    61    1
    83   125   123   ar
    84    82    83    1
    85   115   116   ar
    86    86    87    1
    87    86    83    1
    88   126   124   ar
    89    87    89   ar
    90    83    84    1
    91    61    59   ar
    92    61    60   ar
    93    59    57   ar
    94   111   112    2
    95   123   124   ar
    96   123   122    1
    97    60    58   ar
    98    57    56   ar
    99   119   122    1
   100   119   118    1
   101   119   120    1
   102   121   120    2
   103    84    90   am
   104    84    85    2
   105    70    68    1
   106    58    56   ar
   107    90    91    1
   108    56    55    1
   109    31    29   ar
   110    31    32   ar
   111    69    68    1
   112    55    52    1
   113    68    67    1
   114    26    25    2
   115    95    94    1
   116    29    28   ar
   117    54    53    2
   118    91    94    1
   119    91    92    1
   120   108   107    1
   121    32    30   ar
   122    94    96    1
   123    50    49    1
   124    53    52    1
   125    53    63   am
   126   106   107   ar
   127   106   104   ar
   128    25    24    1
   129    52    51    1
   130    92    93    2
   131    67    64    1
   132   107   105   ar
   133    28    30   ar
   134    28    27    1
   135    63    64    1
   136    64    65    1
   137   104   102   ar
   138    38    37    1
   139    23    24    1
   140    49    46    1
   141    24    27    1
   142   105   103   ar
   143    37    34    1
   144    65    66    2
   145   102   103   ar
   146   102   101    1
   147    97    98    1
   148    46    47    1
   149    46    45    1
   150    47    48    2
   151    36    35    2
   152    44    43    1
   153    43    40    1
   154    34    35    1
   155    34    33    1
   156   101    98    1
   157    35    39   am
   158    98    99    1
   159    42    41    2
   160    39    40    1
   161    40    41    1
   162    99   100    2
