@<TRIPOS>MOLECULE
tmp/6a0rA01.pdb
 95 92 0 0 0
SMALL
GASTEIGER

@<TRIPOS>ATOM
      1  N        -46.0560   10.5900    1.5040 N.3   151  GLY151     -0.1225
      2  CA       -44.9730   10.2330    2.3600 C.3   151  GLY151      0.1811
      3  C        -44.5230    8.7840    2.3190 C.2   151  GLY151      0.2280
      4  O        -43.3900    8.4750    2.3930 O.2   151  GLY151     -0.2866
      5  N        -42.5150    7.9300   -0.7770 N.3   154  LEU154     -0.1231
      6  CA       -41.1840    8.5240   -0.7600 C.3   154  LEU154      0.1693
      7  C        -40.3070    7.7050    0.1140 C.2   154  LEU154      0.2592
      8  O        -39.1750    7.3070   -0.2150 O.2   154  LEU154     -0.2718
      9  CB       -41.2810    9.9820   -0.2180 C.3   154  LEU154      0.0284
     10  CG       -39.9380   10.6770    0.0100 C.3   154  LEU154      0.0019
     11  CD1      -39.1970   10.6560   -1.2850 C.3   154  LEU154      0.0001
     12  CD2      -40.2420   12.1260    0.4100 C.3   154  LEU154      0.0001
     13  N        -40.8180    7.4340    1.2900 N.am  155  TYR155     -0.1976
     14  CA       -40.0660    6.6360    2.2900 C.3   155  TYR155      0.1639
     15  C        -39.6580    5.3250    1.6730 C.2   155  TYR155      0.2290
     16  O        -38.4940    4.9550    1.7500 O.2   155  TYR155     -0.2864
     17  CB       -40.8560    6.4240    3.5920 C.3   155  TYR155      0.0560
     18  CG       -40.1020    5.5850    4.6020 C.ar  155  TYR155     -0.0198
     19  CD1      -39.1000    6.1530    5.4160 C.ar  155  TYR155     -0.0009
     20  CD2      -40.2910    4.2330    4.6800 C.ar  155  TYR155     -0.0009
     21  CE1      -38.3860    5.3970    6.3040 C.ar  155  TYR155      0.0417
     22  CE2      -39.5490    3.4710    5.5310 C.ar  155  TYR155      0.0417
     23  CZ       -38.6330    4.0350    6.3830 C.ar  155  TYR155      0.1957
     24  OH       -37.8680    3.2530    7.2390 O.3   155  TYR155     -0.2866
     25  N        -36.8170    5.6650   -0.9510 N.3   158  GLN158     -0.1245
     26  CA       -35.5810    6.0240   -0.2910 C.3   158  GLN158      0.1566
     27  C        -34.9420    4.8550    0.3350 C.2   158  GLN158      0.2260
     28  O        -33.7300    4.7380    0.3080 O.2   158  GLN158     -0.2867
     29  CB       -35.8650    6.9980    0.8310 C.3   158  GLN158      0.0367
     30  CG       -36.1560    8.4050    0.2830 C.3   158  GLN158      0.0905
     31  CD       -36.5770    9.3760    1.3860 C.2   158  GLN158      0.2608
     32  OE1      -37.0640    8.9950    2.4590 O.2   158  GLN158     -0.2717
     33  NE2      -36.4750   10.6630    1.0920 N.am  158  GLN158     -0.0878
     34  N        -46.5080    6.3920    8.5300 N.3   178  TYR178     -0.1241
     35  CA       -46.8180    6.9630    7.2140 C.3   178  TYR178      0.1605
     36  C        -48.0010    6.2300    6.5170 C.2   178  TYR178      0.2264
     37  O        -48.7960    6.8480    5.7990 O.2   178  TYR178     -0.2867
     38  CB       -45.5720    6.9790    6.3550 C.3   178  TYR178      0.0534
     39  CG       -44.3510    7.7580    6.9620 C.ar  178  TYR178     -0.0201
     40  CD1      -44.5020    8.8230    7.9560 C.ar  178  TYR178     -0.0009
     41  CD2      -43.0630    7.4520    6.5350 C.ar  178  TYR178     -0.0009
     42  CE1      -43.3890    9.4960    8.4540 C.ar  178  TYR178      0.0417
     43  CE2      -41.9350    8.1320    7.0280 C.ar  178  TYR178      0.0417
     44  CZ       -42.0960    9.1560    7.9470 C.ar  178  TYR178      0.1957
     45  OH       -40.9140    9.7370    8.3480 O.3   178  TYR178     -0.2866
     46  N        -36.0270   15.3270    1.0610 N.3   268  ARG268     -0.1231
     47  CA       -36.1370   14.1480    1.9260 C.3   268  ARG268      0.1694
     48  C        -37.4740   14.1850    2.6040 C.2   268  ARG268      0.2593
     49  O        -37.8040   13.3660    3.4450 O.2   268  ARG268     -0.2718
     50  CB       -35.0450   14.0790    2.9960 C.3   268  ARG268      0.0321
     51  CG       -33.6100   14.0700    2.4780 C.3   268  ARG268      0.0489
     52  CD       -32.6550   14.6720    3.5270 C.3   268  ARG268      0.2205
     53  NE       -31.7460   13.7430    4.2170 N.pl3 268  ARG268     -0.0865
     54  CZ       -31.0040   14.0560    5.2940 C.cat 268  ARG268      0.5346
     55  NH1      -31.0610   15.2740    5.8640 N.pl3 268  ARG268      0.1354
     56  NH2      -30.1950   13.1280    5.8180 N.pl3 268  ARG268      0.1354
     57  N        -38.2110   15.2060    2.2910 N.am  269  GLY269     -0.1942
     58  CA       -39.5710   15.2700    2.6650 C.3   269  GLY269      0.2014
     59  C        -40.1600   15.4520    1.3230 C.2   269  GLY269      0.2638
     60  O        -39.3880   15.4770    0.3210 O.2   269  GLY269     -0.2714
     61  N        -41.4730   15.6170    1.3510 N.am  270  ASN270     -0.1972
     62  CA       -42.3050   15.7920    0.2450 C.3   270  ASN270      0.1688
     63  C        -42.0600   17.2050   -0.3860 C.2   270  ASN270      0.2292
     64  O        -41.4250   18.0190    0.3000 O.2   270  ASN270     -0.2864
     65  CB       -43.7170   15.6860    0.6340 C.3   270  ASN270      0.1181
     66  CG       -44.0400   14.1500    0.9220 C.2   270  ASN270      0.2629
     67  OD1      -43.9800   13.7720    2.0160 O.2   270  ASN270     -0.2716
     68  ND2      -43.9560   13.3300   -0.0790 N.am  270  ASN270     -0.0877
     69  N        -40.5830   22.3910    0.1420 N.3   285  THR285     -0.1203
     70  CA       -40.2730   21.0290    0.7050 C.3   285  THR285      0.1994
     71  C        -40.5720   20.9850    2.1840 C.2   285  THR285      0.2618
     72  O        -40.3930   21.9520    2.8840 O.2   285  THR285     -0.2717
     73  CB       -38.8400   20.4920    0.5560 C.3   285  THR285      0.1784
     74  OG1      -37.8780   21.1170    1.4240 O.3   285  THR285     -0.2211
     75  CG2      -38.3700   20.6790   -0.7830 C.3   285  THR285      0.0376
     76  N        -41.0680   19.8340    2.6500 N.am  286  GLY286     -0.1942
     77  CA       -41.1620   19.6750    4.1010 C.3   286  GLY286      0.1998
     78  C        -41.9100   18.3270    4.3310 C.2   286  GLY286      0.2481
     79  O        -42.2570   17.6000    3.3800 O.2   286  GLY286     -0.2729
     80  N        -42.1140   18.0450    5.5760 N.am  287  PRO287     -0.2715
     81  CA       -42.8450   16.7360    5.8680 C.3   287  PRO287      0.1536
     82  C        -44.2510   16.7640    5.3300 C.2   287  PRO287      0.2599
     83  O        -44.9650   17.7010    5.5780 O.2   287  PRO287     -0.2715
     84  CB       -42.8970   16.7070    7.3620 C.3   287  PRO287      0.0310
     85  CG       -41.9790   17.7620    7.8590 C.3   287  PRO287      0.0237
     86  CD       -41.7560   18.7990    6.7650 C.3   287  PRO287      0.0939
     87  N        -44.6570   15.6200    4.7820 N.am  288  GLY288     -0.1941
     88  CA       -45.9080   15.4670    4.0970 C.3   288  GLY288      0.2014
     89  C        -46.8520   14.4320    4.7950 C.2   288  GLY288      0.2638
     90  O        -47.8860   14.1800    4.2820 O.2   288  GLY288     -0.2714
     91  N        -46.4120   13.9360    5.9260 N.am  289  ALA289     -0.1977
     92  CA       -47.2250   12.9640    6.6570 C.3   289  ALA289      0.1597
     93  C        -46.8040   13.0440    8.1240 C.2   289  ALA289      0.2287
     94  O        -45.7690   13.6050    8.4800 O.2   289  ALA289     -0.2864
     95  CB       -46.9620   11.5900    6.0650 C.3   289  ALA289      0.0319
@<TRIPOS>BOND
     1    11    10    1
     2    25    26    1
     3    75    73    1
     4     5     6    1
     5     6     9    1
     6     6     7    1
     7    63    62    1
     8    63    64    2
     9    26    27    1
    10    26    29    1
    11     9    10    1
    12     8     7    2
    13    68    66   am
    14    10    12    1
    15     7    13   am
    16    69    70    1
    17    62    65    1
    18    62    61    1
    19    30    29    1
    20    30    31    1
    21    28    27    2
    22    60    59    2
    23    73    70    1
    24    73    74    1
    25    65    66    1
    26    70    71    1
    27    66    67    2
    28    46    47    1
    29    33    31   am
    30    13    14    1
    31    59    61   am
    32    59    58    1
    33    31    32    2
    34     1     2    1
    35    15    16    2
    36    15    14    1
    37    47    48    1
    38    47    50    1
    39    71    76   am
    40    71    72    2
    41    14    17    1
    42    57    48   am
    43    57    58    1
    44     3     2    1
    45     3     4    2
    46    51    50    1
    47    51    52    1
    48    48    49    2
    49    76    77    1
    50    79    78    2
    51    52    53    1
    52    17    18    1
    53    88    87    1
    54    88    89    1
    55    77    78    1
    56    53    54    2
    57    90    89    2
    58    78    80   am
    59    18    20   ar
    60    18    19   ar
    61    20    22   ar
    62    87    82   am
    63    89    91   am
    64    54    56    1
    65    54    55    1
    66    82    83    2
    67    82    81    1
    68    19    21   ar
    69    22    23   ar
    70    80    81    1
    71    80    86    1
    72    37    36    2
    73    81    84    1
    74    91    92    1
    75    95    92    1
    76    21    23   ar
    77    38    39    1
    78    38    35    1
    79    23    24    1
    80    36    35    1
    81    41    39   ar
    82    41    43   ar
    83    92    93    1
    84    86    85    1
    85    39    40   ar
    86    43    44   ar
    87    35    34    1
    88    84    85    1
    89    44    45    1
    90    44    42   ar
    91    40    42   ar
    92    93    94    2
