@<TRIPOS>MOLECULE
tmp/6a0tA00.pdb
 114 104 0 0 0
SMALL
GASTEIGER

@<TRIPOS>ATOM
      1  N        -60.5330   14.4360    0.8890 N.3    99  LYS99      -0.1245
      2  CA       -60.4470   14.4940   -0.5670 C.3    99  LYS99       0.1561
      3  C        -61.5250   13.6400   -1.2910 C.2    99  LYS99       0.2260
      4  O        -62.0070   14.0270   -2.3310 O.2    99  LYS99      -0.2867
      5  CB       -59.0380   14.1420   -1.0720 C.3    99  LYS99       0.0271
      6  CG       -58.4130   12.9600   -0.3480 C.3    99  LYS99       0.0035
      7  CD       -58.0250   13.3880    1.0640 C.3    99  LYS99       0.0206
      8  CE       -57.3020   12.2780    1.8170 C.3    99  LYS99       0.1093
      9  NZ       -56.7500   12.7910    3.0590 N.3    99  LYS99      -0.1314
     10  N        -56.3320   20.7240    4.2690 N.3   122  ALA122     -0.1231
     11  CA       -55.8150   19.4750    4.7930 C.3   122  ALA122      0.1694
     12  C        -56.1440   18.2640    3.9190 C.2   122  ALA122      0.2592
     13  O        -55.6650   17.1850    4.1910 O.2   122  ALA122     -0.2718
     14  CB       -56.4120   19.2380    6.2030 C.3   122  ALA122      0.0304
     15  N        -57.0200   18.4510    2.9370 N.am  123  SER123     -0.1952
     16  CA       -57.3490   17.3550    1.9970 C.3   123  SER123      0.1924
     17  C        -56.2790   17.0400    0.9560 C.2   123  SER123      0.2314
     18  O        -56.3530   16.0100    0.3220 O.2   123  SER123     -0.2863
     19  CB       -58.6890   17.7030    1.3220 C.3   123  SER123      0.2116
     20  OG       -58.5790   18.7180    0.3440 O.3   123  SER123     -0.2180
     21  N        -51.9430   17.2820    3.4900 N.3   126  ALA126     -0.1245
     22  CA       -52.1670   17.5330    4.9380 C.3   126  ALA126      0.1562
     23  C        -51.8980   19.0590    5.1580 C.2   126  ALA126      0.2260
     24  O        -52.4050   19.8890    4.3970 O.2   126  ALA126     -0.2867
     25  CB       -51.2620   16.6850    5.7200 C.3   126  ALA126      0.0290
     26  N        -48.5420   12.9910   -4.1520 N.3   149  LEU149     -0.1231
     27  CA       -49.6080   13.3790   -3.3190 C.3   149  LEU149      0.1693
     28  C        -50.0160   12.3390   -2.2430 C.2   149  LEU149      0.2592
     29  O        -50.8030   12.6830   -1.3650 O.2   149  LEU149     -0.2718
     30  CB       -50.8320   13.7500   -4.1060 C.3   149  LEU149      0.0284
     31  CG       -50.6320   14.7860   -5.2070 C.3   149  LEU149      0.0019
     32  CD1      -51.8880   15.0890   -6.0100 C.3   149  LEU149      0.0001
     33  CD2      -50.0700   16.0590   -4.5820 C.3   149  LEU149      0.0001
     34  N        -49.5310   11.1140   -2.3640 N.am  150  ASN150     -0.1960
     35  CA       -49.9910   10.0100   -1.3940 C.3   150  ASN150      0.1819
     36  C        -48.8330    9.7330   -0.4950 C.2   150  ASN150      0.2622
     37  O        -47.7140    9.3750   -0.9160 O.2   150  ASN150     -0.2715
     38  CB       -50.4970    8.8220   -2.1920 C.3   150  ASN150      0.1195
     39  CG       -51.0660    7.7420   -1.2570 C.2   150  ASN150      0.2630
     40  OD1      -50.3590    6.8890   -0.8390 O.2   150  ASN150     -0.2716
     41  ND2      -52.2850    7.9390   -0.8350 N.am  150  ASN150     -0.0877
     42  N        -49.0300    9.9990    0.7950 N.am  151  GLY151     -0.1940
     43  CA       -48.0100    9.7440    1.7750 C.3   151  GLY151      0.2014
     44  C        -47.6540    8.2790    2.0020 C.2   151  GLY151      0.2639
     45  O        -46.4990    7.9340    2.2450 O.2   151  GLY151     -0.2714
     46  N        -48.7130    7.4600    2.0270 N.am  152  THR152     -0.1950
     47  CA       -48.5150    6.0350    2.3140 C.3   152  THR152      0.1897
     48  C        -47.6230    5.3880    1.2560 C.2   152  THR152      0.2313
     49  O        -46.6610    4.6410    1.5530 O.2   152  THR152     -0.2863
     50  CB       -49.9410    5.3970    2.3840 C.3   152  THR152      0.1794
     51  OG1      -50.6740    5.9370    3.4790 O.3   152  THR152     -0.2208
     52  CG2      -49.8420    3.8290    2.5050 C.3   152  THR152      0.0378
     53  N        -50.8800    6.8730    8.5700 N.3   178  TYR178     -0.1241
     54  CA       -50.9200    7.4520    7.2050 C.3   178  TYR178      0.1605
     55  C        -52.0250    6.9020    6.2980 C.2   178  TYR178      0.2264
     56  O        -52.5080    7.5840    5.3680 O.2   178  TYR178     -0.2867
     57  CB       -49.6750    7.2920    6.4740 C.3   178  TYR178      0.0534
     58  CG       -48.4030    7.8920    7.0890 C.ar  178  TYR178     -0.0201
     59  CD1      -48.4460    8.8720    8.0980 C.ar  178  TYR178     -0.0009
     60  CD2      -47.1830    7.4250    6.6950 C.ar  178  TYR178     -0.0009
     61  CE1      -47.2720    9.4340    8.5790 C.ar  178  TYR178      0.0417
     62  CE2      -46.0100    7.9710    7.2160 C.ar  178  TYR178      0.0417
     63  CZ       -46.1000    8.9260    8.1860 C.ar  178  TYR178      0.1957
     64  OH       -44.9080    9.3910    8.6640 O.3   178  TYR178     -0.2866
     65  N        -55.3400    5.0210    4.4210 N.3   180  GLU180     -0.1245
     66  CA       -56.7950    4.9360    4.4420 C.3   180  GLU180      0.1567
     67  C        -57.2060    3.5620    5.0830 C.2   180  GLU180      0.2260
     68  O        -56.4640    2.5990    4.9990 O.2   180  GLU180     -0.2867
     69  CB       -57.3830    5.0190    3.0250 C.3   180  GLU180      0.0388
     70  CG       -57.0620    6.3150    2.2970 C.3   180  GLU180      0.1160
     71  CD       -57.4910    7.4880    3.1810 C.2   180  GLU180      0.3649
     72  OE1      -58.6790    7.8140    3.3330 O.co2 180  GLU180     -0.2457
     73  OE2      -56.5300    8.1610    3.6530 O.co2 180  GLU180     -0.2457
     74  N        -54.8910    3.8340   -1.2440 N.3   186  ASP186     -0.1239
     75  CA       -53.5510    4.3520   -1.3150 C.3   186  ASP186      0.1674
     76  C        -52.7530    3.6970   -2.4700 C.2   186  ASP186      0.2266
     77  O        -52.1820    4.3540   -3.3990 O.2   186  ASP186     -0.2867
     78  CB       -52.8210    4.1820   -0.0060 C.3   186  ASP186      0.1410
     79  CG       -53.4570    5.0060    1.1290 C.2   186  ASP186      0.3668
     80  OD1      -53.7230    6.2610    0.9360 O.co2 186  ASP186     -0.2456
     81  OD2      -53.8220    4.4020    2.1550 O.co2 186  ASP186     -0.2456
     82  N        -56.5610    7.5020   -3.9360 N.3   191  ASP191     -0.1239
     83  CA       -56.4370    8.6890   -3.0690 C.3   191  ASP191      0.1674
     84  C        -55.6300    9.8470   -3.7760 C.2   191  ASP191      0.2266
     85  O        -56.0730   11.0050   -3.7670 O.2   191  ASP191     -0.2867
     86  CB       -55.7740    8.3010   -1.7860 C.3   191  ASP191      0.1410
     87  CG       -55.4070    9.5140   -0.8770 C.2   191  ASP191      0.3668
     88  OD1      -54.2160    9.9350   -0.9920 O.co2 191  ASP191     -0.2456
     89  OD2      -56.2900    9.9160   -0.1110 O.co2 191  ASP191     -0.2456
     90  N        -57.0970   13.6510   -4.9520 N.3   195  LYS195     -0.1245
     91  CA       -56.3760   14.8970   -4.7020 C.3   195  LYS195      0.1561
     92  C        -56.0260   15.6730   -5.9490 C.2   195  LYS195      0.2260
     93  O        -56.2130   16.9010   -6.0200 O.2   195  LYS195     -0.2867
     94  CB       -55.1290   14.6310   -3.9270 C.3   195  LYS195      0.0271
     95  CG       -55.4420   14.1450   -2.4720 C.3   195  LYS195      0.0035
     96  CD       -54.2310   13.5800   -1.7980 C.3   195  LYS195      0.0206
     97  CE       -54.5350   13.1700   -0.3340 C.3   195  LYS195      0.1093
     98  NZ       -53.5160   12.2610    0.1800 N.3   195  LYS195     -0.1314
     99  N        -47.1840   14.8790    4.1720 N.3   288  GLY288     -0.1210
    100  CA       -48.4710   14.7580    3.5570 C.3   288  GLY288      0.1956
    101  C        -49.4870   13.8510    4.2130 C.2   288  GLY288      0.2611
    102  O        -50.5870   13.7260    3.6760 O.2   288  GLY288     -0.2717
    103  N        -49.1420   13.3450    5.3790 N.am  289  ALA289     -0.1979
    104  CA       -50.0930   12.4970    6.1430 C.3   289  ALA289      0.1597
    105  C        -49.6290   12.4830    7.5980 C.2   289  ALA289      0.2287
    106  O        -48.5010   12.9520    7.8910 O.2   289  ALA289     -0.2864
    107  CB       -49.9820   11.0870    5.5170 C.3   289  ALA289      0.0319
    108  N        -51.9340   16.8540    9.6270 N.3   294  THR294     -0.1218
    109  CA       -53.2210   17.1810    9.1460 C.3   294  THR294      0.1862
    110  C        -53.9650   18.1640    9.9940 C.2   294  THR294      0.2287
    111  O        -54.6680   19.0890    9.5030 O.2   294  THR294     -0.2866
    112  CB       -54.0270   15.8570    8.9140 C.3   294  THR294      0.1770
    113  OG1      -53.2050   14.9030    8.2010 O.3   294  THR294     -0.2211
    114  CG2      -55.3140   16.1640    8.1900 C.3   294  THR294      0.0375
@<TRIPOS>BOND
     1    93    92    2
     2    32    31    1
     3    92    91    1
     4    31    33    1
     5    31    30    1
     6    90    91    1
     7    91    94    1
     8    26    27    1
     9    30    27    1
    10    82    83    1
    11    94    95    1
    12    84    85    2
    13    84    83    1
    14    77    76    2
    15    27    28    1
    16    83    86    1
    17    95    96    1
    18    76    75    1
    19    34    28   am
    20    34    35    1
    21     4     3    2
    22    28    29    2
    23    38    35    1
    24    38    39    1
    25    96    97    1
    26    86    87    1
    27    35    36    1
    28    75    74    1
    29    75    78    1
    30     3     2    1
    31    39    40    2
    32    39    41   am
    33     5     2    1
    34     5     6    1
    35    88    87   ar
    36    37    36    2
    37    87    89   ar
    38     2     1    1
    39    36    42   am
    40     6     7    1
    41    97    98    1
    42    78    79    1
    43    18    17    2
    44    20    19    1
    45    42    43    1
    46    80    79   ar
    47    17    16    1
    48     7     8    1
    49    79    81   ar
    50    48    49    2
    51    48    47    1
    52    19    16    1
    53    43    44    1
    54     8     9    1
    55    16    15    1
    56    44    46   am
    57    44    45    2
    58    46    47    1
    59    70    69    1
    60    70    71    1
    61    47    50    1
    62    50    52    1
    63    50    51    1
    64    15    12   am
    65    69    66    1
    66    71    72   ar
    67    71    73   ar
    68    21    22    1
    69   100    99    1
    70   100   101    1
    71   102   101    2
    72    12    13    2
    73    12    11    1
    74   101   103   am
    75    10    11    1
    76    24    23    2
    77    65    66    1
    78    66    67    1
    79    11    14    1
    80    22    23    1
    81    22    25    1
    82    68    67    2
    83    56    55    2
    84   103   104    1
    85   107   104    1
    86   104   105    1
    87    55    54    1
    88    57    58    1
    89    57    54    1
    90    60    58   ar
    91    60    62   ar
    92    58    59   ar
    93    54    53    1
    94    62    63   ar
    95   105   106    2
    96    59    61   ar
    97    63    61   ar
    98    63    64    1
    99   114   112    1
   100   113   112    1
   101   112   109    1
   102   109   108    1
   103   109   110    1
   104   111   110    2
