@<TRIPOS>MOLECULE
tmp/6a1cA00.pdb
 165 156 0 0 0
SMALL
GASTEIGER

@<TRIPOS>ATOM
      1  N         -7.3270   14.9700   27.0910 N.3    44  LEU44      -0.1231
      2  CA        -5.9560   15.4990   27.1700 C.3    44  LEU44       0.1693
      3  C         -5.5250   16.2960   25.9670 C.2    44  LEU44       0.2593
      4  O         -4.6780   17.2140   26.0690 O.2    44  LEU44      -0.2718
      5  CB        -4.9500   14.3440   27.3320 C.3    44  LEU44       0.0284
      6  CG        -5.1960   13.5170   28.5900 C.3    44  LEU44       0.0019
      7  CD1       -4.2220   12.3780   28.7160 C.3    44  LEU44       0.0001
      8  CD2       -5.1760   14.4230   29.8130 C.3    44  LEU44       0.0001
      9  N         -6.0010   15.8940   24.8110 N.am   45  GLY45      -0.1942
     10  CA        -5.5560   16.4880   23.5770 C.3    45  GLY45       0.2014
     11  C         -6.2590   15.9650   22.3310 C.2    45  GLY45       0.2639
     12  O         -6.9140   14.9000   22.2860 O.2    45  GLY45      -0.2714
     13  N         -6.0330   16.7260   21.2800 N.am   46  ARG46      -0.1963
     14  CA        -6.7260   16.5780   20.0550 C.3    46  ARG46       0.1729
     15  C         -5.5750   16.6230   19.0760 C.2    46  ARG46       0.2616
     16  O         -4.6420   17.4420   19.2250 O.2    46  ARG46      -0.2715
     17  CB        -7.6900   17.7870   19.9500 C.3    46  ARG46       0.0348
     18  CG        -8.3430   18.0760   18.6030 C.3    46  ARG46       0.0492
     19  CD        -9.4710   17.0990   18.3290 C.3    46  ARG46       0.2205
     20  NE       -10.3230   17.5810   17.2460 N.pl3  46  ARG46      -0.0865
     21  CZ       -11.4190   16.9510   16.8120 C.cat  46  ARG46       0.5346
     22  NH1      -12.1220   17.4630   15.8260 N.pl3  46  ARG46       0.1354
     23  NH2      -11.8010   15.8060   17.3390 N.pl3  46  ARG46       0.1354
     24  N         -5.5500   15.6710   18.1550 N.am   47  GLY47      -0.1955
     25  CA        -4.5860   15.7190   17.0770 C.3    47  GLY47       0.1869
     26  C         -5.2780   15.4180   15.7690 C.2    47  GLY47       0.2309
     27  O         -6.5080   15.2650   15.7470 O.2    47  GLY47      -0.2863
     28  N         -6.0590   11.4910   15.9600 N.3    50  SER50      -0.1217
     29  CA        -6.5550   10.8830   17.1800 C.3    50  SER50       0.1889
     30  C         -7.0410   11.9060   18.1980 C.2    50  SER50       0.2288
     31  O         -6.6680   13.0580   18.1260 O.2    50  SER50      -0.2866
     32  CB        -5.4570    9.9850   17.7900 C.3    50  SER50       0.2089
     33  OG        -4.4950   10.7080   18.5420 O.3    50  SER50      -0.2183
     34  N         -7.1170   12.0280   22.4500 N.3    52  VAL52      -0.1245
     35  CA        -6.4660   11.3820   23.5800 C.3    52  VAL52       0.1561
     36  C         -7.1520   11.7190   24.8970 C.2    52  VAL52       0.2260
     37  O         -7.4360   12.8980   25.1820 O.2    52  VAL52      -0.2867
     38  CB        -4.9640   11.6920   23.6040 C.3    52  VAL52       0.0252
     39  CG1       -4.2940   10.8950   24.6760 C.3    52  VAL52       0.0019
     40  CG2       -4.3500   11.3540   22.2700 C.3    52  VAL52       0.0019
     41  N         -4.4700    5.5820   29.4290 N.3    65  VAL65      -0.1245
     42  CA        -4.6310    6.6150   28.4370 C.3    65  VAL65       0.1561
     43  C         -5.2460    5.9600   27.2170 C.2    65  VAL65       0.2260
     44  O         -4.8030    4.8900   26.8130 O.2    65  VAL65      -0.2867
     45  CB        -3.3150    7.2860   28.0390 C.3    65  VAL65       0.0252
     46  CG1       -3.5340    8.1760   26.7860 C.3    65  VAL65       0.0019
     47  CG2       -2.8180    8.1500   29.1800 C.3    65  VAL65       0.0019
     48  N         -6.3240    6.4190   23.2190 N.3    67  LYS67      -0.1245
     49  CA        -6.1520    7.1460   21.9840 C.3    67  LYS67       0.1561
     50  C         -7.1690    6.6370   20.9980 C.2    67  LYS67       0.2260
     51  O         -7.0980    5.5000   20.5490 O.2    67  LYS67      -0.2867
     52  CB        -4.6900    6.9720   21.5100 C.3    67  LYS67       0.0271
     53  CG        -4.3600    7.5860   20.1650 C.3    67  LYS67       0.0035
     54  CD        -2.8440    7.6590   20.0260 C.3    67  LYS67       0.0206
     55  CE        -2.2980    6.5550   19.2440 C.3    67  LYS67       0.1093
     56  NZ        -1.0480    7.0330   18.6520 N.3    67  LYS67      -0.1314
     57  N          0.7810    0.6430   13.1340 N.3    80  GLU80      -0.1245
     58  CA         1.0780    1.1090   14.4950 C.3    80  GLU80       0.1567
     59  C          0.8510    0.0230   15.5400 C.2    80  GLU80       0.2260
     60  O          1.6150   -0.1180   16.4950 O.2    80  GLU80      -0.2867
     61  CB         0.2900    2.3750   14.7890 C.3    80  GLU80       0.0388
     62  CG         0.5310    2.9240   16.1780 C.3    80  GLU80       0.1160
     63  CD        -0.2160    4.2130   16.5200 C.2    80  GLU80       0.3649
     64  OE1       -0.9680    4.7290   15.6850 O.co2  80  GLU80      -0.2457
     65  OE2       -0.0990    4.7050   17.6700 O.co2  80  GLU80      -0.2457
     66  N          3.7490   -1.5400   17.9300 N.3    84  LEU84      -0.1245
     67  CA         3.5690   -1.4840   19.3890 C.3    84  LEU84       0.1561
     68  C          3.6420   -2.8930   20.0320 C.2    84  LEU84       0.2260
     69  O          4.1680   -3.0520   21.1350 O.2    84  LEU84      -0.2867
     70  CB         2.2520   -0.8240   19.7600 C.3    84  LEU84       0.0270
     71  CG         2.2360    0.7180   19.6150 C.3    84  LEU84       0.0019
     72  CD1        0.7870    1.1490   19.5810 C.3    84  LEU84       0.0001
     73  CD2        2.9700    1.4510   20.7630 C.3    84  LEU84       0.0001
     74  N          6.4780    2.8170   25.4250 N.3    94  ILE94      -0.1245
     75  CA         5.0860    2.8530   25.9940 C.3    94  ILE94       0.1561
     76  C          4.4130    1.4930   25.7950 C.2    94  ILE94       0.2260
     77  O          4.5390    0.8890   24.7220 O.2    94  ILE94      -0.2867
     78  CB         4.2330    3.9640   25.3810 C.3    94  ILE94       0.0252
     79  CG1        2.9560    4.2330   26.2100 C.3    94  ILE94       0.0019
     80  CG2        3.8990    3.6990   23.9530 C.3    94  ILE94       0.0019
     81  CD1        3.2070    4.9540   27.5360 C.3    94  ILE94       0.0001
     82  N         -3.2760    2.5720   26.5430 N.3   112  PHE112     -0.1241
     83  CA        -1.8820    2.5360   27.0030 C.3   112  PHE112      0.1605
     84  C         -1.7960    2.6370   28.5030 C.2   112  PHE112      0.2264
     85  O         -2.6740    3.1910   29.1310 O.2   112  PHE112     -0.2867
     86  CB        -1.1290    3.7170   26.4350 C.3   112  PHE112      0.0534
     87  CG        -1.0490    3.6980   24.9270 C.ar  112  PHE112     -0.0203
     88  CD1       -0.0320    3.0240   24.2790 C.ar  112  PHE112     -0.0042
     89  CD2       -1.9870    4.3860   24.1710 C.ar  112  PHE112     -0.0042
     90  CE1        0.0370    3.0030   22.9180 C.ar  112  PHE112     -0.0003
     91  CE2       -1.9080    4.3930   22.7850 C.ar  112  PHE112     -0.0003
     92  CZ        -0.8770    3.7200   22.1550 C.ar  112  PHE112     -0.0000
     93  N         -0.6540    4.3970   31.8380 N.3   114  HIS114     -0.1226
     94  CA        -0.6870    5.7880   32.1550 C.3   114  HIS114      0.1752
     95  C          0.6840    6.2780   32.6710 C.2   114  HIS114      0.2595
     96  O          1.2910    5.5980   33.4870 O.2   114  HIS114     -0.2718
     97  CB        -1.7320    6.0070   33.2260 C.3   114  HIS114      0.0759
     98  CG        -1.8780    7.4320   33.6380 C.ar  114  HIS114      0.0818
     99  ND1       -1.2800    7.9330   34.7710 N.ar  114  HIS114     -0.2268
    100  CD2       -2.5390    8.4640   33.0760 C.ar  114  HIS114      0.1154
    101  CE1       -1.5610    9.2080   34.8870 C.ar  114  HIS114      0.1986
    102  NE2       -2.3230    9.5590   33.8720 N.ar  114  HIS114     -0.2212
    103  N          1.1440    7.4160   32.1630 N.am  115  VAL115     -0.1980
    104  CA         2.3600    8.1140   32.6440 C.3   115  VAL115      0.1595
    105  C          1.9240    9.4760   33.1870 C.2   115  VAL115      0.2287
    106  O          1.2590   10.2580   32.4800 O.2   115  VAL115     -0.2864
    107  CB         3.4390    8.2430   31.5580 C.3   115  VAL115      0.0276
    108  CG1        4.6950    8.9430   32.1060 C.3   115  VAL115      0.0022
    109  CG2        3.7170    6.8930   30.9900 C.3   115  VAL115      0.0022
    110  N          2.7140   12.6010   33.5760 N.3   117  ASN117     -0.1240
    111  CA         3.7510   13.4020   33.0210 C.3   117  ASN117      0.1653
    112  C          3.8070   14.8210   33.5910 C.2   117  ASN117      0.2266
    113  O          2.8050   15.4790   33.7920 O.2   117  ASN117     -0.2867
    114  CB         3.7580   13.2890   31.5090 C.3   117  ASN117      0.1155
    115  CG         2.9130   14.2420   30.8510 C.2   117  ASN117      0.2627
    116  OD1        1.6890   14.2100   31.0480 O.2   117  ASN117     -0.2716
    117  ND2        3.5210   15.1340   30.0250 N.am  117  ASN117     -0.0877
    118  N          7.3120   16.3570   22.6750 N.3   159  HIS159     -0.1241
    119  CA         5.9300   15.9690   22.9330 C.3   159  HIS159      0.1621
    120  C          5.7760   14.4520   22.9480 C.2   159  HIS159      0.2264
    121  O          4.8930   13.9620   23.6320 O.2   159  HIS159     -0.2867
    122  CB         4.9440   16.5110   21.8850 C.3   159  HIS159      0.0745
    123  CG         3.5060   16.1260   22.1750 C.ar  159  HIS159      0.0817
    124  ND1        2.9450   14.9250   21.7660 N.ar  159  HIS159     -0.2268
    125  CD2        2.5460   16.7500   22.9030 C.ar  159  HIS159      0.1154
    126  CE1        1.7020   14.8390   22.2140 C.ar  159  HIS159      0.1986
    127  NE2        1.4370   15.9380   22.9000 N.ar  159  HIS159     -0.2212
    128  N          7.3840   11.2160   27.2210 N.3   162  MET162     -0.1245
    129  CA         6.6630   11.4810   28.4520 C.3   162  MET162      0.1570
    130  C          7.5750   11.2090   29.6160 C.2   162  MET162      0.2261
    131  O          8.2380   10.1660   29.6730 O.2   162  MET162     -0.2867
    132  CB         5.4900   10.5470   28.5280 C.3   162  MET162      0.0387
    133  CG         4.4240   10.7910   27.5480 C.3   162  MET162      0.0595
    134  SD         2.9690    9.8440   27.9340 S.3   162  MET162     -0.1393
    135  CE         2.3270   10.9420   29.1740 C.3   162  MET162      0.0692
    136  N          6.5340    7.6130   23.2370 N.3   173  ILE173     -0.1231
    137  CA         5.1640    7.4110   22.7680 C.3   173  ILE173      0.1692
    138  C          4.9860    7.7750   21.2810 C.2   173  ILE173      0.2592
    139  O          5.9220    8.2110   20.5930 O.2   173  ILE173     -0.2718
    140  CB         4.1940    8.2430   23.6240 C.3   173  ILE173      0.0266
    141  CG1        4.4110    9.7590   23.4630 C.3   173  ILE173      0.0019
    142  CG2        4.2780    7.8560   25.0980 C.3   173  ILE173      0.0020
    143  CD1        3.1810   10.5490   23.9560 C.3   173  ILE173      0.0001
    144  N          3.7220    7.6610   20.8340 N.am  174  ASP174     -0.1960
    145  CA         3.2870    7.9860   19.4610 C.3   174  ASP174      0.1840
    146  C          4.0890    7.3750   18.3420 C.2   174  ASP174      0.2622
    147  O          4.8480    8.0550   17.6340 O.2   174  ASP174     -0.2715
    148  CB         3.0920    9.4480   19.1950 C.3   174  ASP174      0.1450
    149  CG         2.0090    9.6770   18.0160 C.2   174  ASP174      0.3671
    150  OD1        1.5130    8.6730   17.3300 O.co2 174  ASP174     -0.2456
    151  OD2        1.6640   10.8640   17.7830 O.co2 174  ASP174     -0.2456
    152  N          3.7710    6.1010   18.1250 N.am  175  TRP175     -0.1974
    153  CA         4.3550    5.2720   17.1790 C.3   175  TRP175      0.1640
    154  C          3.6310    5.2600   15.8340 C.2   175  TRP175      0.2290
    155  O          3.8630    4.4010   15.0390 O.2   175  TRP175     -0.2864
    156  CB         4.5410    3.9030   17.7690 C.3   175  TRP175      0.0576
    157  CG         5.5200    3.8980   18.9360 C.ar  175  TRP175      0.0006
    158  CD1        5.2540    4.2630   20.2320 C.ar  175  TRP175      0.0946
    159  CD2        6.9570    3.6820   18.8790 C.ar  175  TRP175      0.0152
    160  NE1        6.4170    4.1810   20.9860 N.ar  175  TRP175     -0.2442
    161  CE2        7.4450    3.7720   20.1840 C.ar  175  TRP175      0.0810
    162  CE3        7.8390    3.2900   17.8740 C.ar  175  TRP175      0.0012
    163  CZ2        8.7780    3.6310   20.4670 C.ar  175  TRP175      0.0191
    164  CZ3        9.1540    3.0940   18.1620 C.ar  175  TRP175      0.0001
    165  CH2        9.6310    3.2870   19.4310 C.ar  175  TRP175      0.0015
@<TRIPOS>BOND
     1    57    58    1
     2    58    61    1
     3    58    59    1
     4    61    62    1
     5   155   154    2
     6    59    60    2
     7    64    63   ar
     8    27    26    2
     9    26    25    1
    10    22    21    1
    11   154   153    1
    12    28    29    1
    13    62    63    1
    14    63    65   ar
    15    21    20    2
    16    21    23    1
    17    25    24    1
    18   153   156    1
    19   153   152    1
    20    29    32    1
    21    29    30    1
    22    20    19    1
    23   150   149   ar
    24   147   146    2
    25   156   157    1
    26   151   149   ar
    27    32    33    1
    28   162   164   ar
    29   162   159   ar
    30    66    67    1
    31   149   148    1
    32   152   146   am
    33    31    30    2
    34    24    15   am
    35   164   165   ar
    36    19    18    1
    37   146   145    1
    38    18    17    1
    39    56    55    1
    40   159   157   ar
    41   159   161   ar
    42   157   158   ar
    43    15    16    2
    44    15    14    1
    45   148   145    1
    46    55    54    1
    47    67    70    1
    48    67    68    1
    49   165   163   ar
    50   145   144    1
    51    72    71    1
    52    71    70    1
    53    71    73    1
    54    17    14    1
    55    54    53    1
    56    68    69    2
    57    14    13    1
    58    53    52    1
    59   161   163   ar
    60   161   160   ar
    61   158   160   ar
    62    51    50    2
    63   139   138    2
    64   144   138   am
    65    50    49    1
    66    13    11   am
    67   138   137    1
    68    52    49    1
    69   124   123   ar
    70   124   126   ar
    71   122   123    1
    72   122   119    1
    73    49    48    1
    74    92    91   ar
    75    92    90   ar
    76   123   125   ar
    77   126   127   ar
    78    40    38    1
    79    12    11    2
    80    11    10    1
    81    34    35    1
    82   118   119    1
    83   137   136    1
    84   137   140    1
    85    91    89   ar
    86   127   125   ar
    87    90    88   ar
    88   119   120    1
    89   120   121    2
    90   141   140    1
    91   141   143    1
    92    10     9    1
    93    35    38    1
    94    35    36    1
    95    38    39    1
    96   140   142    1
    97    80    78    1
    98    89    87   ar
    99    88    87   ar
   100    77    76    2
   101     9     3   am
   102    36    37    2
   103    87    86    1
   104    78    75    1
   105    78    79    1
   106    74    75    1
   107    76    75    1
   108     3     4    2
   109     3     2    1
   110    79    81    1
   111    86    83    1
   112    82    83    1
   113    46    45    1
   114    44    43    2
   115    83    84    1
   116     1     2    1
   117     2     5    1
   118    43    42    1
   119   128   129    1
   120     5     6    1
   121   133   134    1
   122   133   132    1
   123   134   135    1
   124    45    42    1
   125    45    47    1
   126    42    41    1
   127   129   132    1
   128   129   130    1
   129    84    85    2
   130     6     7    1
   131     6     8    1
   132   130   131    2
   133   117   115   am
   134   115   116    2
   135   115   114    1
   136   109   107    1
   137   114   111    1
   138   107   108    1
   139   107   104    1
   140    93    94    1
   141    94    95    1
   142    94    97    1
   143   103   104    1
   144   103    95   am
   145   106   105    2
   146   104   105    1
   147    95    96    2
   148   111   110    1
   149   111   112    1
   150   100    98   ar
   151   100   102   ar
   152    97    98    1
   153   112   113    2
   154    98    99   ar
   155   102   101   ar
   156    99   101   ar
