@<TRIPOS>MOLECULE
tmp/6a1fA01.pdb
 114 107 0 0 0
SMALL
GASTEIGER

@<TRIPOS>ATOM
      1  N        -26.9650   10.7140  -31.9930 N.3    37  PHE37      -0.1241
      2  CA       -27.5830   11.4700  -33.0850 C.3    37  PHE37       0.1605
      3  C        -27.8220   10.6800  -34.3660 C.2    37  PHE37       0.2264
      4  O        -28.5830   11.1460  -35.2110 O.2    37  PHE37      -0.2867
      5  CB       -26.7060   12.6530  -33.4400 C.3    37  PHE37       0.0534
      6  CG       -25.3420   12.2600  -33.8930 C.ar   37  PHE37      -0.0203
      7  CD1      -24.2720   12.3200  -33.0170 C.ar   37  PHE37      -0.0042
      8  CD2      -25.1450   11.7690  -35.1900 C.ar   37  PHE37      -0.0042
      9  CE1      -23.0010   11.9360  -33.4420 C.ar   37  PHE37      -0.0003
     10  CE2      -23.8950   11.3560  -35.5910 C.ar   37  PHE37      -0.0003
     11  CZ       -22.8200   11.4550  -34.7290 C.ar   37  PHE37      -0.0000
     12  N        -22.5610   13.4590  -41.6130 N.3    55  LYS55      -0.1245
     13  CA       -23.2350   13.1160  -40.3640 C.3    55  LYS55       0.1561
     14  C        -24.6990   12.8620  -40.7400 C.2    55  LYS55       0.2260
     15  O        -25.4090   13.7930  -41.1780 O.2    55  LYS55      -0.2867
     16  CB       -23.0880   14.2840  -39.3880 C.3    55  LYS55       0.0271
     17  CG       -23.7090   14.0830  -38.0180 C.3    55  LYS55       0.0035
     18  CD       -23.4480   15.3210  -37.1490 C.3    55  LYS55       0.0206
     19  CE       -23.9890   15.0960  -35.7610 C.3    55  LYS55       0.1093
     20  NZ       -23.6930   16.2780  -34.9000 N.3    55  LYS55      -0.1314
     21  N        -28.0440   22.8380  -34.9450 N.3    70  GLU70      -0.1245
     22  CA       -26.6340   22.7690  -35.2520 C.3    70  GLU70       0.1567
     23  C        -26.3540   23.4010  -36.6120 C.2    70  GLU70       0.2260
     24  O        -25.3920   24.1650  -36.7420 O.2    70  GLU70      -0.2867
     25  CB       -26.1590   21.3020  -35.2380 C.3    70  GLU70       0.0388
     26  CG       -24.6850   21.1840  -35.5250 C.3    70  GLU70       0.1160
     27  CD       -24.0860   19.8200  -35.3280 C.2    70  GLU70       0.3649
     28  OE1      -24.8000   18.8140  -35.5540 O.co2  70  GLU70      -0.2457
     29  OE2      -22.8800   19.8050  -34.9180 O.co2  70  GLU70      -0.2457
     30  N        -23.8030   26.5360  -37.2410 N.3    74  LEU74      -0.1245
     31  CA       -22.6400   26.3740  -38.1010 C.3    74  LEU74       0.1561
     32  C        -22.7030   27.3150  -39.2830 C.2    74  LEU74       0.2260
     33  O        -21.6670   27.8780  -39.6660 O.2    74  LEU74      -0.2867
     34  CB       -22.5510   24.9270  -38.5730 C.3    74  LEU74       0.0270
     35  CG       -22.1760   23.8790  -37.5120 C.3    74  LEU74       0.0019
     36  CD1      -22.5540   22.4850  -38.0190 C.3    74  LEU74       0.0001
     37  CD2      -20.7060   23.9160  -37.0780 C.3    74  LEU74       0.0001
     38  N        -15.2900   23.2220  -36.6630 N.3    89  VAL89      -0.1245
     39  CA       -15.4530   22.3770  -37.8590 C.3    89  VAL89       0.1561
     40  C        -16.2680   23.0930  -38.9270 C.2    89  VAL89       0.2260
     41  O        -17.2280   23.8250  -38.6150 O.2    89  VAL89      -0.2867
     42  CB       -16.0840   21.0260  -37.4930 C.3    89  VAL89       0.0252
     43  CG1      -17.5370   21.1580  -37.0080 C.3    89  VAL89       0.0019
     44  CG2      -15.9760   20.0730  -38.6730 C.3    89  VAL89       0.0019
     45  N        -19.4230   17.6430  -43.8020 N.3   105  PHE105     -0.1241
     46  CA       -18.3050   18.3530  -43.1980 C.3   105  PHE105      0.1605
     47  C        -17.0070   18.0250  -43.8870 C.2   105  PHE105      0.2264
     48  O        -16.8560   16.9880  -44.5530 O.2   105  PHE105     -0.2867
     49  CB       -18.1430   17.8800  -41.7560 C.3   105  PHE105      0.0534
     50  CG       -19.2560   18.2790  -40.8370 C.ar  105  PHE105     -0.0203
     51  CD1      -19.2550   19.5330  -40.2190 C.ar  105  PHE105     -0.0042
     52  CD2      -20.2950   17.3820  -40.5220 C.ar  105  PHE105     -0.0042
     53  CE1      -20.2450   19.8960  -39.3220 C.ar  105  PHE105     -0.0003
     54  CE2      -21.2790   17.7360  -39.6120 C.ar  105  PHE105     -0.0003
     55  CZ       -21.2770   18.9940  -39.0270 C.ar  105  PHE105     -0.0000
     56  N        -11.0090   11.8920  -32.0810 N.3   111  ASN111     -0.1240
     57  CA       -11.2610   12.9330  -31.0410 C.3   111  ASN111      0.1653
     58  C        -10.2320   12.8480  -29.9010 C.2   111  ASN111      0.2266
     59  O         -9.3670   11.9650  -29.8550 O.2   111  ASN111     -0.2867
     60  CB       -12.7180   12.8690  -30.5900 C.3   111  ASN111      0.1155
     61  CG       -13.0290   11.6480  -29.7920 C.2   111  ASN111      0.2627
     62  OD1      -12.3290   11.3140  -28.8380 O.2   111  ASN111     -0.2716
     63  ND2      -14.1550   10.9980  -30.1120 N.am  111  ASN111     -0.0877
     64  N        -14.3790   14.3080  -26.2120 N.3   158  GLU158     -0.1231
     65  CA       -14.9940   13.6470  -27.3710 C.3   158  GLU158      0.1699
     66  C        -15.4930   14.6470  -28.4150 C.2   158  GLU158      0.2592
     67  O        -15.7270   14.2630  -29.5500 O.2   158  GLU158     -0.2718
     68  CB       -16.1770   12.7660  -26.9320 C.3   158  GLU158      0.0402
     69  CG       -15.8030   11.5670  -26.0520 C.3   158  GLU158      0.1161
     70  CD       -15.7120   11.8490  -24.5170 C.2   158  GLU158      0.3649
     71  OE1      -15.8680   10.8400  -23.7670 O.co2 158  GLU158     -0.2457
     72  OE2      -15.4660   12.9980  -23.9980 O.co2 158  GLU158     -0.2457
     73  N        -15.7100   15.9140  -28.0280 N.am  159  ASN159     -0.1974
     74  CA       -16.2150   16.9170  -28.9770 C.3   159  ASN159      0.1688
     75  C        -15.1360   17.8470  -29.4930 C.2   159  ASN159      0.2292
     76  O        -15.4320   18.9130  -30.0390 O.2   159  ASN159     -0.2864
     77  CB       -17.3700   17.7130  -28.3730 C.3   159  ASN159      0.1181
     78  CG       -18.6340   16.9250  -28.3140 C.2   159  ASN159      0.2629
     79  OD1      -18.8310   16.0090  -29.1060 O.2   159  ASN159     -0.2716
     80  ND2      -19.5110   17.2760  -27.3840 N.am  159  ASN159     -0.0877
     81  N        -11.8830   17.4050  -32.1140 N.3   161  LEU161     -0.1245
     82  CA       -11.2500   16.4300  -33.0580 C.3   161  LEU161      0.1561
     83  C         -9.9630   16.9600  -33.6100 C.2   161  LEU161      0.2260
     84  O         -9.8320   18.1270  -33.9160 O.2   161  LEU161     -0.2867
     85  CB       -12.2110   16.1090  -34.2130 C.3   161  LEU161      0.0270
     86  CG       -13.1710   14.9440  -33.9310 C.3   161  LEU161      0.0019
     87  CD1      -14.1550   15.2520  -32.7850 C.3   161  LEU161      0.0001
     88  CD2      -13.9680   14.6360  -35.2080 C.3   161  LEU161      0.0001
     89  N        -16.4200   20.3680  -32.4350 N.3   173  VAL173     -0.1231
     90  CA       -17.6020   19.8260  -33.1180 C.3   173  VAL173      0.1692
     91  C        -18.7990   19.7700  -32.1910 C.2   173  VAL173      0.2592
     92  O        -18.6930   20.0460  -31.0050 O.2   173  VAL173     -0.2718
     93  CB       -17.3020   18.4050  -33.7240 C.3   173  VAL173      0.0266
     94  CG1      -16.0390   18.4540  -34.5670 C.3   173  VAL173      0.0020
     95  CG2      -17.1700   17.3460  -32.6450 C.3   173  VAL173      0.0020
     96  N        -19.9390   19.4270  -32.7800 N.am  174  ASP174     -0.1960
     97  CA       -21.1930   19.1080  -32.0540 C.3   174  ASP174      0.1840
     98  C        -21.8420   20.2770  -31.3880 C.2   174  ASP174      0.2622
     99  O        -21.7380   20.4420  -30.1740 O.2   174  ASP174     -0.2715
    100  CB       -21.0780   17.9660  -31.0250 C.3   174  ASP174      0.1450
    101  CG       -22.4540   17.6140  -30.4200 C.2   174  ASP174      0.3671
    102  OD1      -23.4980   18.0140  -30.9770 O.co2 174  ASP174     -0.2456
    103  OD2      -22.4720   16.9920  -29.3550 O.co2 174  ASP174     -0.2456
    104  N        -22.5360   21.0550  -32.2040 N.am  175  PHE175     -0.1974
    105  CA       -23.2480   22.2290  -31.7050 C.3   175  PHE175      0.1639
    106  C        -24.7420   21.9880  -31.5170 C.2   175  PHE175      0.2290
    107  O        -25.5400   22.9260  -31.4030 O.2   175  PHE175     -0.2864
    108  CB       -22.9870   23.4480  -32.5820 C.3   175  PHE175      0.0560
    109  CG       -21.5930   23.9810  -32.4550 C.ar  175  PHE175     -0.0200
    110  CD1      -21.3690   25.0780  -31.6040 C.ar  175  PHE175     -0.0042
    111  CD2      -20.4940   23.3390  -33.0760 C.ar  175  PHE175     -0.0042
    112  CE1      -20.0940   25.5790  -31.3800 C.ar  175  PHE175     -0.0003
    113  CE2      -19.2140   23.8650  -32.8680 C.ar  175  PHE175     -0.0003
    114  CZ       -19.0140   24.9730  -32.0350 C.ar  175  PHE175     -0.0000
@<TRIPOS>BOND
     1    48    47    2
     2    47    46    1
     3    45    46    1
     4    46    49    1
     5    49    50    1
     6    12    13    1
     7    15    14    2
     8    50    52   ar
     9    50    51   ar
    10    14    13    1
    11    52    54   ar
    12    13    16    1
    13    51    53   ar
    14    33    32    2
    15    54    55   ar
    16    16    17    1
    17    53    55   ar
    18    32    31    1
    19    40    41    2
    20    40    39    1
    21    44    42    1
    22    34    31    1
    23    34    35    1
    24    31    30    1
    25    36    35    1
    26    17    18    1
    27    39    42    1
    28    39    38    1
    29    35    37    1
    30    42    43    1
    31    18    19    1
    32    24    23    2
    33    23    22    1
    34    19    20    1
    35    10     8   ar
    36    10    11   ar
    37    28    27   ar
    38    26    27    1
    39    26    25    1
    40    27    29   ar
    41    22    25    1
    42    22    21    1
    43     4     3    2
    44    88    86    1
    45     8     6   ar
    46    11     9   ar
    47    94    93    1
    48     3     2    1
    49    85    86    1
    50    85    82    1
    51    86    87    1
    52    84    83    2
    53     6     5    1
    54     6     7   ar
    55    93    90    1
    56    93    95    1
    57    83    82    1
    58     9     7   ar
    59     5     2    1
    60    90    89    1
    61    90    91    1
    62     2     1    1
    63   111   113   ar
    64   111   109   ar
    65    82    81    1
    66   113   114   ar
    67    96    91   am
    68    96    97    1
    69   108   109    1
    70   108   105    1
    71   109   110   ar
    72   104   105    1
    73   104    98   am
    74    91    92    2
    75    56    57    1
    76    97    98    1
    77    97   100    1
    78   114   112   ar
    79   105   106    1
    80   110   112   ar
    81   106   107    2
    82    98    99    2
    83    57    60    1
    84    57    58    1
    85   100   101    1
    86   102   101   ar
    87    60    61    1
    88   101   103   ar
    89    63    61   am
    90    76    75    2
    91    58    59    2
    92    61    62    2
    93    67    66    2
    94    75    74    1
    95    79    78    2
    96    74    77    1
    97    74    73    1
    98    66    73   am
    99    66    65    1
   100    77    78    1
   101    78    80   am
   102    65    68    1
   103    65    64    1
   104    68    69    1
   105    69    70    1
   106    70    72   ar
   107    70    71   ar
