@<TRIPOS>MOLECULE
tmp/6a1fA00.pdb
 146 137 0 0 0
SMALL
GASTEIGER

@<TRIPOS>ATOM
      1  N        -17.5610    5.6620  -40.1060 N.3    32  ILE32      -0.1231
      2  CA       -16.4180    6.0960  -39.3100 C.3    32  ILE32       0.1692
      3  C        -16.8090    6.5580  -37.9140 C.2    32  ILE32       0.2593
      4  O        -15.9480    6.9350  -37.1290 O.2    32  ILE32      -0.2718
      5  CB       -15.5810    7.1900  -39.9920 C.3    32  ILE32       0.0266
      6  CG1      -16.4150    8.4730  -40.2110 C.3    32  ILE32       0.0019
      7  CG2      -14.9960    6.6330  -41.3090 C.3    32  ILE32       0.0020
      8  CD1      -15.5720    9.6320  -40.7230 C.3    32  ILE32       0.0001
      9  N        -18.1050    6.5280  -37.6190 N.am   33  GLY33      -0.1942
     10  CA       -18.5400    6.9230  -36.2610 C.3    33  GLY33       0.2014
     11  C        -20.0180    6.7060  -36.0580 C.2    33  GLY33       0.2639
     12  O        -20.7910    6.6280  -37.0150 O.2    33  GLY33      -0.2714
     13  N        -20.4270    6.5870  -34.7870 N.am   34  LYS34      -0.1963
     14  CA       -21.8380    6.3560  -34.4690 C.3    34  LYS34       0.1728
     15  C        -22.0740    6.9160  -33.0880 C.2    34  LYS34       0.2616
     16  O        -21.2060    6.8870  -32.2320 O.2    34  LYS34      -0.2715
     17  CB       -22.2580    4.8650  -34.5580 C.3    34  LYS34       0.0311
     18  CG       -21.4350    3.9430  -33.6750 C.3    34  LYS34       0.0038
     19  CD       -21.7650    2.4770  -33.9620 C.3    34  LYS34       0.0206
     20  CE       -20.8640    1.5610  -33.1560 C.3    34  LYS34       0.1093
     21  NZ       -21.0780    0.1310  -33.5450 N.3    34  LYS34      -0.1314
     22  N        -23.2550    7.4930  -32.9160 N.am   35  GLY35      -0.1955
     23  CA       -23.6010    8.0500  -31.5890 C.3    35  GLY35       0.1869
     24  C        -25.0830    8.2680  -31.4970 C.2    35  GLY35       0.2309
     25  O        -25.8440    7.7630  -32.2950 O.2    35  GLY35      -0.2863
     26  N        -26.9650   10.7140  -31.9930 N.3    37  PHE37      -0.1241
     27  CA       -27.5830   11.4700  -33.0850 C.3    37  PHE37       0.1605
     28  C        -27.8220   10.6800  -34.3660 C.2    37  PHE37       0.2264
     29  O        -28.5830   11.1460  -35.2110 O.2    37  PHE37      -0.2867
     30  CB       -26.7060   12.6530  -33.4400 C.3    37  PHE37       0.0534
     31  CG       -25.3420   12.2600  -33.8930 C.ar   37  PHE37      -0.0203
     32  CD1      -24.2720   12.3200  -33.0170 C.ar   37  PHE37      -0.0042
     33  CD2      -25.1450   11.7690  -35.1900 C.ar   37  PHE37      -0.0042
     34  CE1      -23.0010   11.9360  -33.4420 C.ar   37  PHE37      -0.0003
     35  CE2      -23.8950   11.3560  -35.5910 C.ar   37  PHE37      -0.0003
     36  CZ       -22.8200   11.4550  -34.7290 C.ar   37  PHE37      -0.0000
     37  N        -21.8170    8.6310  -38.7410 N.3    40  VAL40      -0.1245
     38  CA       -20.9280    9.4600  -39.5510 C.3    40  VAL40       0.1561
     39  C        -20.2530    8.5470  -40.5570 C.2    40  VAL40       0.2260
     40  O        -19.6880    7.5220  -40.1570 O.2    40  VAL40      -0.2867
     41  CB       -19.8730   10.1730  -38.6980 C.3    40  VAL40       0.0252
     42  CG1      -19.0170   11.0910  -39.5850 C.3    40  VAL40       0.0019
     43  CG2      -20.5280   10.9870  -37.5790 C.3    40  VAL40       0.0019
     44  N        -16.9110   14.0270  -44.6110 N.3    53  ALA53      -0.1245
     45  CA       -17.6170   13.2620  -43.5970 C.3    53  ALA53       0.1562
     46  C        -19.0690   13.6760  -43.6340 C.2    53  ALA53       0.2260
     47  O        -19.3740   14.8890  -43.5870 O.2    53  ALA53      -0.2867
     48  CB       -17.0370   13.5530  -42.1910 C.3    53  ALA53       0.0290
     49  N        -22.5610   13.4590  -41.6130 N.3    55  LYS55      -0.1245
     50  CA       -23.2350   13.1160  -40.3640 C.3    55  LYS55       0.1561
     51  C        -24.6990   12.8620  -40.7400 C.2    55  LYS55       0.2260
     52  O        -25.4090   13.7930  -41.1780 O.2    55  LYS55      -0.2867
     53  CB       -23.0880   14.2840  -39.3880 C.3    55  LYS55       0.0271
     54  CG       -23.7090   14.0830  -38.0180 C.3    55  LYS55       0.0035
     55  CD       -23.4480   15.3210  -37.1490 C.3    55  LYS55       0.0206
     56  CE       -23.9890   15.0960  -35.7610 C.3    55  LYS55       0.1093
     57  NZ       -23.6930   16.2780  -34.9000 N.3    55  LYS55      -0.1314
     58  N        -15.2900   23.2220  -36.6630 N.3    89  VAL89      -0.1245
     59  CA       -15.4530   22.3770  -37.8590 C.3    89  VAL89       0.1561
     60  C        -16.2680   23.0930  -38.9270 C.2    89  VAL89       0.2260
     61  O        -17.2280   23.8250  -38.6150 O.2    89  VAL89      -0.2867
     62  CB       -16.0840   21.0260  -37.4930 C.3    89  VAL89       0.0252
     63  CG1      -17.5370   21.1580  -37.0080 C.3    89  VAL89       0.0019
     64  CG2      -15.9760   20.0730  -38.6730 C.3    89  VAL89       0.0019
     65  N        -19.4230   17.6430  -43.8020 N.3   105  PHE105     -0.1227
     66  CA       -18.3050   18.3530  -43.1980 C.3   105  PHE105      0.1736
     67  C        -17.0070   18.0250  -43.8870 C.2   105  PHE105      0.2595
     68  O        -16.8560   16.9880  -44.5530 O.2   105  PHE105     -0.2718
     69  CB       -18.1430   17.8800  -41.7560 C.3   105  PHE105      0.0547
     70  CG       -19.2560   18.2790  -40.8370 C.ar  105  PHE105     -0.0202
     71  CD1      -19.2550   19.5330  -40.2190 C.ar  105  PHE105     -0.0042
     72  CD2      -20.2950   17.3820  -40.5220 C.ar  105  PHE105     -0.0042
     73  CE1      -20.2450   19.8960  -39.3220 C.ar  105  PHE105     -0.0003
     74  CE2      -21.2790   17.7360  -39.6120 C.ar  105  PHE105     -0.0003
     75  CZ       -21.2770   18.9940  -39.0270 C.ar  105  PHE105     -0.0000
     76  N        -16.0100   18.8720  -43.6530 N.am  106  GLU106     -0.1965
     77  CA       -14.6640   18.4780  -43.9020 C.3   106  GLU106      0.1733
     78  C        -14.3700   17.2130  -43.0880 C.2   106  GLU106      0.2616
     79  O        -14.8530   17.0530  -41.9730 O.2   106  GLU106     -0.2715
     80  CB       -13.7120   19.6120  -43.4880 C.3   106  GLU106      0.0429
     81  CG       -13.7370   19.9280  -41.9860 C.3   106  GLU106      0.1163
     82  CD       -12.8610   21.0910  -41.6100 C.2   106  GLU106      0.3649
     83  OE1      -11.7750   21.2430  -42.2130 O.co2 106  GLU106     -0.2457
     84  OE2      -13.2450   21.8170  -40.6800 O.co2 106  GLU106     -0.2457
     85  N        -13.5580   16.3420  -43.6390 N.am  107  MET107     -0.1963
     86  CA       -13.1920   15.1320  -42.9390 C.3   107  MET107      0.1736
     87  C        -12.0850   15.3750  -41.9210 C.2   107  MET107      0.2616
     88  O        -11.0190   15.8810  -42.2840 O.2   107  MET107     -0.2715
     89  CB       -12.6950   14.1490  -43.9820 C.3   107  MET107      0.0427
     90  CG       -12.0760   12.9510  -43.3510 C.3   107  MET107      0.0599
     91  SD       -13.4170   11.8670  -42.9010 S.3   107  MET107     -0.1393
     92  CE       -12.6680   10.5580  -43.8180 C.3   107  MET107      0.0692
     93  N        -12.3730   15.0240  -40.6740 N.am  108  LEU108     -0.1963
     94  CA       -11.4010   15.1440  -39.5530 C.3   108  LEU108      0.1728
     95  C        -10.9420   13.7520  -39.1050 C.2   108  LEU108      0.2616
     96  O        -11.4360   12.7060  -39.5850 O.2   108  LEU108     -0.2715
     97  CB       -12.0360   15.9220  -38.4120 C.3   108  LEU108      0.0311
     98  CG       -12.6220   17.3110  -38.7630 C.3   108  LEU108      0.0022
     99  CD1      -13.2190   17.8880  -37.5060 C.3   108  LEU108      0.0001
    100  CD2      -11.4950   18.2200  -39.2490 C.3   108  LEU108      0.0001
    101  N         -9.9530   13.7620  -38.2050 N.am  109  SER109     -0.1950
    102  CA        -9.4090   12.5310  -37.6240 C.3   109  SER109      0.1924
    103  C        -10.1580   12.2200  -36.3210 C.2   109  SER109      0.2314
    104  O        -11.3670   12.5650  -36.1760 O.2   109  SER109     -0.2863
    105  CB        -7.8970   12.7380  -37.4660 C.3   109  SER109      0.2116
    106  OG        -7.2980   11.5690  -36.9190 O.3   109  SER109     -0.2180
    107  N        -11.0090   11.8920  -32.0810 N.3   111  ASN111     -0.1240
    108  CA       -11.2610   12.9330  -31.0410 C.3   111  ASN111      0.1653
    109  C        -10.2320   12.8480  -29.9010 C.2   111  ASN111      0.2266
    110  O         -9.3670   11.9650  -29.8550 O.2   111  ASN111     -0.2867
    111  CB       -12.7180   12.8690  -30.5900 C.3   111  ASN111      0.1155
    112  CG       -13.0290   11.6480  -29.7920 C.2   111  ASN111      0.2627
    113  OD1      -12.3290   11.3140  -28.8380 O.2   111  ASN111     -0.2716
    114  ND2      -14.1550   10.9980  -30.1120 N.am  111  ASN111     -0.0877
    115  N        -14.3790   14.3080  -26.2120 N.3   158  GLU158     -0.1245
    116  CA       -14.9940   13.6470  -27.3710 C.3   158  GLU158      0.1567
    117  C        -15.4930   14.6470  -28.4150 C.2   158  GLU158      0.2260
    118  O        -15.7270   14.2630  -29.5500 O.2   158  GLU158     -0.2867
    119  CB       -16.1770   12.7660  -26.9320 C.3   158  GLU158      0.0388
    120  CG       -15.8030   11.5670  -26.0520 C.3   158  GLU158      0.1160
    121  CD       -15.7120   11.8490  -24.5170 C.2   158  GLU158      0.3649
    122  OE1      -15.8680   10.8400  -23.7670 O.co2 158  GLU158     -0.2457
    123  OE2      -15.4660   12.9980  -23.9980 O.co2 158  GLU158     -0.2457
    124  N        -11.8830   17.4050  -32.1140 N.3   161  LEU161     -0.1245
    125  CA       -11.2500   16.4300  -33.0580 C.3   161  LEU161      0.1561
    126  C         -9.9630   16.9600  -33.6100 C.2   161  LEU161      0.2260
    127  O         -9.8320   18.1270  -33.9160 O.2   161  LEU161     -0.2867
    128  CB       -12.2110   16.1090  -34.2130 C.3   161  LEU161      0.0270
    129  CG       -13.1710   14.9440  -33.9310 C.3   161  LEU161      0.0019
    130  CD1      -14.1550   15.2520  -32.7850 C.3   161  LEU161      0.0001
    131  CD2      -13.9680   14.6360  -35.2080 C.3   161  LEU161      0.0001
    132  N        -16.4200   20.3680  -32.4350 N.3   173  VAL173     -0.1231
    133  CA       -17.6020   19.8260  -33.1180 C.3   173  VAL173      0.1692
    134  C        -18.7990   19.7700  -32.1910 C.2   173  VAL173      0.2592
    135  O        -18.6930   20.0460  -31.0050 O.2   173  VAL173     -0.2718
    136  CB       -17.3020   18.4050  -33.7240 C.3   173  VAL173      0.0266
    137  CG1      -16.0390   18.4540  -34.5670 C.3   173  VAL173      0.0020
    138  CG2      -17.1700   17.3460  -32.6450 C.3   173  VAL173      0.0020
    139  N        -19.9390   19.4270  -32.7800 N.am  174  ASP174     -0.1974
    140  CA       -21.1930   19.1080  -32.0540 C.3   174  ASP174      0.1709
    141  C        -21.8420   20.2770  -31.3880 C.2   174  ASP174      0.2293
    142  O        -21.7380   20.4420  -30.1740 O.2   174  ASP174     -0.2864
    143  CB       -21.0780   17.9660  -31.0250 C.3   174  ASP174      0.1436
    144  CG       -22.4540   17.6140  -30.4200 C.2   174  ASP174      0.3671
    145  OD1      -23.4980   18.0140  -30.9770 O.co2 174  ASP174     -0.2456
    146  OD2      -22.4720   16.9920  -29.3550 O.co2 174  ASP174     -0.2456
@<TRIPOS>BOND
     1    44    45    1
     2    68    67    2
     3    89    90    1
     4    89    86    1
     5    77    76    1
     6    77    80    1
     7    77    78    1
     8    67    76   am
     9    67    66    1
    10    92    91    1
    11    65    66    1
    12    85    78   am
    13    85    86    1
    14    46    45    1
    15    46    47    2
    16    45    48    1
    17    80    81    1
    18    90    91    1
    19    66    69    1
    20    78    79    2
    21    86    87    1
    22    88    87    2
    23    83    82   ar
    24    81    82    1
    25    87    93   am
    26    69    70    1
    27    49    50    1
    28    82    84   ar
    29     7     5    1
    30    52    51    2
    31    70    72   ar
    32    70    71   ar
    33    51    50    1
    34     8     6    1
    35    93    94    1
    36    39    40    2
    37    39    38    1
    38    72    74   ar
    39    50    53    1
    40    71    73   ar
    41     6     5    1
    42     1     2    1
    43     5     2    1
    44    74    75   ar
    45    42    41    1
    46    96    95    2
    47    94    95    1
    48    94    97    1
    49    38    37    1
    50    38    41    1
    51    53    54    1
    52    73    75   ar
    53     2     3    1
    54   100    98    1
    55    95   101   am
    56    60    61    2
    57    60    59    1
    58    98    97    1
    59    98    99    1
    60    41    43    1
    61    64    62    1
    62   101   102    1
    63    54    55    1
    64     3     9   am
    65     3     4    2
    66    59    62    1
    67    59    58    1
    68   102   105    1
    69   102   103    1
    70     9    10    1
    71    62    63    1
    72   105   106    1
    73    55    56    1
    74    12    11    2
    75   103   104    2
    76    10    11    1
    77    11    13   am
    78    56    57    1
    79    35    33   ar
    80    35    36   ar
    81    29    28    2
    82   131   129    1
    83    33    31   ar
    84    13    14    1
    85    36    34   ar
    86   137   136    1
    87    17    14    1
    88    17    18    1
    89    14    15    1
    90    28    27    1
    91   128   129    1
    92   128   125    1
    93    19    18    1
    94    19    20    1
    95   129   130    1
    96   127   126    2
    97    31    30    1
    98    31    32   ar
    99   136   133    1
   100   136   138    1
   101   126   125    1
   102    21    20    1
   103    34    32   ar
   104    30    27    1
   105   133   132    1
   106   133   134    1
   107    15    22   am
   108    15    16    2
   109    27    26    1
   110   125   124    1
   111    22    23    1
   112   139   134   am
   113   139   140    1
   114    25    24    2
   115   134   135    2
   116   107   108    1
   117   140   141    1
   118   140   143    1
   119    23    24    1
   120   141   142    2
   121   108   111    1
   122   108   109    1
   123   143   144    1
   124   145   144   ar
   125   111   112    1
   126   144   146   ar
   127   114   112   am
   128   109   110    2
   129   112   113    2
   130   118   117    2
   131   117   116    1
   132   116   119    1
   133   116   115    1
   134   119   120    1
   135   120   121    1
   136   121   123   ar
   137   121   122   ar
