@<TRIPOS>MOLECULE
tmp/6a1gB00.pdb
 154 145 0 0 0
SMALL
GASTEIGER

@<TRIPOS>ATOM
      1  N        -50.7880   21.8320  -21.4740 N.3    31  ILE31      -0.1231
      2  CA       -51.4580   21.8940  -20.1750 C.3    31  ILE31       0.1696
      3  C        -50.5440   21.5540  -19.0100 C.2    31  ILE31       0.2632
      4  O        -51.0300   21.3390  -17.8990 O.2    31  ILE31      -0.2714
      5  CB       -52.7710   21.0660  -20.1100 C.3    31  ILE31       0.0266
      6  CG1      -52.5040   19.5760  -20.3750 C.3    31  ILE31       0.0019
      7  CG2      -53.8220   21.6690  -21.0480 C.3    31  ILE31       0.0020
      8  CD1      -53.7250   18.6990  -20.3030 C.3    31  ILE31       0.0001
      9  N        -49.2300   21.5100  -19.2600 N.am   32  GLY32      -0.1718
     10  CA       -48.2550   21.2410  -18.1990 C.2    32  GLY32       0.1480
     11  C        -46.8430   20.8530  -18.6100 C.2    32  GLY32       0.2820
     12  O        -46.6300   20.1360  -19.6070 O.2    32  GLY32      -0.2669
     13  N        -45.8740   21.3290  -17.8250 N.am   33  LYS33      -0.1929
     14  CA       -44.4730   20.9210  -17.9650 C.3    33  LYS33       0.1731
     15  C        -43.9920   20.1220  -16.7470 C.2    33  LYS33       0.2616
     16  O        -44.4130   20.3750  -15.6100 O.2    33  LYS33      -0.2715
     17  CB       -43.5610   22.1400  -18.1740 C.3    33  LYS33       0.0312
     18  CG       -43.8600   22.9710  -19.4110 C.3    33  LYS33       0.0038
     19  CD       -42.6260   23.7700  -19.8070 C.3    33  LYS33       0.0206
     20  CE       -42.5090   23.9130  -21.3230 C.3    33  LYS33       0.1093
     21  NZ       -41.0970   24.1090  -21.7760 N.3    33  LYS33      -0.1314
     22  N        -43.1140   19.1530  -17.0040 N.am   34  GLY34      -0.1955
     23  CA       -42.3630   18.4720  -15.9540 C.3    34  GLY34       0.1869
     24  C        -40.9400   18.1610  -16.3840 C.2    34  GLY34       0.2309
     25  O        -40.5250   18.4590  -17.5150 O.2    34  GLY34      -0.2863
     26  N        -39.7700   15.2280  -17.0630 N.3    36  PHE36      -0.1241
     27  CA       -39.8660   14.2000  -18.1210 C.3    36  PHE36       0.1605
     28  C        -40.1350   14.8180  -19.5010 C.2    36  PHE36       0.2264
     29  O        -39.7690   14.2440  -20.5370 O.2    36  PHE36      -0.2867
     30  CB       -40.9990   13.2210  -17.7830 C.3    36  PHE36       0.0534
     31  CG       -42.3320   13.8930  -17.5540 C.ar   36  PHE36      -0.0203
     32  CD1      -42.7840   14.1440  -16.2660 C.ar   36  PHE36      -0.0042
     33  CD2      -43.1350   14.3010  -18.6360 C.ar   36  PHE36      -0.0042
     34  CE1      -44.0090   14.7740  -16.0550 C.ar   36  PHE36      -0.0003
     35  CE2      -44.3580   14.9340  -18.4230 C.ar   36  PHE36      -0.0003
     36  CZ       -44.7930   15.1660  -17.1290 C.ar   36  PHE36      -0.0000
     37  N        -47.1550   17.6640  -21.2470 N.3    39  VAL39      -0.1245
     38  CA       -48.4620   17.0770  -21.4480 C.3    39  VAL39       0.1561
     39  C        -49.3070   18.0600  -22.2520 C.2    39  VAL39       0.2260
     40  O        -49.4240   19.2490  -21.9060 O.2    39  VAL39      -0.2867
     41  CB       -49.1450   16.7070  -20.1050 C.3    39  VAL39       0.0252
     42  CG1      -50.5230   16.0820  -20.3350 C.3    39  VAL39       0.0019
     43  CG2      -48.2750   15.7430  -19.3190 C.3    39  VAL39       0.0019
     44  N        -55.1480   13.0990  -23.3020 N.3    52  ALA52      -0.1245
     45  CA       -53.9480   13.7480  -22.8110 C.3    52  ALA52       0.1562
     46  C        -52.7580   12.9470  -23.3260 C.2    52  ALA52       0.2260
     47  O        -52.6890   11.7180  -23.1500 O.2    52  ALA52      -0.2867
     48  CB       -53.9630   13.8420  -21.2830 C.3    52  ALA52       0.0290
     49  N        -48.6810   12.6280  -23.1710 N.3    54  LYS54      -0.1245
     50  CA       -47.4530   12.9120  -22.4380 C.3    54  LYS54       0.1561
     51  C        -46.2940   12.7870  -23.4290 C.2    54  LYS54       0.2260
     52  O        -46.0230   11.6990  -23.9500 O.2    54  LYS54      -0.2867
     53  CB       -47.3120   11.9360  -21.2520 C.3    54  LYS54       0.0271
     54  CG       -46.1080   12.1280  -20.3450 C.3    54  LYS54       0.0035
     55  CD       -46.2720   11.3160  -19.0740 C.3    54  LYS54       0.0206
     56  CE       -45.0030   11.2840  -18.2430 C.3    54  LYS54       0.1093
     57  NZ       -45.1720   10.4490  -17.0180 N.3    54  LYS54      -0.1314
     58  N        -54.7390    5.4590  -13.9730 N.3    88  VAL88      -0.1245
     59  CA       -54.9570    6.1100  -15.2770 C.3    88  VAL88       0.1561
     60  C        -54.5860    5.1400  -16.4070 C.2    88  VAL88       0.2260
     61  O        -53.5340    4.5090  -16.3510 O.2    88  VAL88      -0.2867
     62  CB       -54.2160    7.4730  -15.4220 C.3    88  VAL88       0.0252
     63  CG1      -52.6960    7.3060  -15.3810 C.3    88  VAL88       0.0019
     64  CG2      -54.6250    8.1610  -16.7080 C.3    88  VAL88       0.0019
     65  N        -53.0990    9.0260  -22.9760 N.3   104  PHE104     -0.1227
     66  CA       -53.9210    8.7170  -21.8270 C.3   104  PHE104      0.1736
     67  C        -55.3050    9.2590  -22.0450 C.2   104  PHE104      0.2595
     68  O        -55.4770   10.3360  -22.6560 O.2   104  PHE104     -0.2718
     69  CB       -53.3470    9.3530  -20.5510 C.3   104  PHE104      0.0547
     70  CG       -51.9990    8.8240  -20.1650 C.ar  104  PHE104     -0.0202
     71  CD1      -51.8710    7.5610  -19.5740 C.ar  104  PHE104     -0.0042
     72  CD2      -50.8510    9.5760  -20.3990 C.ar  104  PHE104     -0.0042
     73  CE1      -50.6220    7.0730  -19.2390 C.ar  104  PHE104     -0.0003
     74  CE2      -49.5920    9.0840  -20.0670 C.ar  104  PHE104     -0.0003
     75  CZ       -49.4800    7.8240  -19.4900 C.ar  104  PHE104     -0.0000
     76  N        -56.2780    8.5340  -21.4990 N.am  105  GLU105     -0.1965
     77  CA       -57.6270    9.0490  -21.3090 C.3   105  GLU105      0.1733
     78  C        -57.5520   10.4220  -20.6070 C.2   105  GLU105      0.2616
     79  O        -56.7080   10.6460  -19.7280 O.2   105  GLU105     -0.2715
     80  CB       -58.4710    8.0610  -20.4850 C.3   105  GLU105      0.0429
     81  CG       -57.7830    7.5750  -19.2190 C.3   105  GLU105      0.1163
     82  CD       -58.7030    6.9050  -18.2080 C.2   105  GLU105      0.3649
     83  OE1      -59.8970    6.6450  -18.4930 O.co2 105  GLU105     -0.2457
     84  OE2      -58.2110    6.6290  -17.1010 O.co2 105  GLU105     -0.2457
     85  N        -58.4220   11.3310  -21.0110 N.am  106  MET106     -0.1963
     86  CA       -58.4420   12.6720  -20.4300 C.3   106  MET106      0.1736
     87  C        -59.1290   12.6010  -19.0700 C.2   106  MET106      0.2616
     88  O        -60.3270   12.3220  -18.9800 O.2   106  MET106     -0.2715
     89  CB       -59.1670   13.6490  -21.3660 C.3   106  MET106      0.0427
     90  CG       -59.1720   15.1040  -20.9260 C.3   106  MET106      0.0599
     91  SD       -57.5310   15.8080  -20.9480 S.3   106  MET106     -0.1393
     92  CE       -57.8660   17.5520  -20.6940 C.3   106  MET106      0.0692
     93  N        -58.3570   12.8170  -18.0150 N.am  107  LEU107     -0.1963
     94  CA       -58.9290   12.9120  -16.6930 C.3   107  LEU107      0.1728
     95  C        -59.1830   14.3800  -16.3630 C.2   107  LEU107      0.2616
     96  O        -58.8000   15.2880  -17.1280 O.2   107  LEU107     -0.2715
     97  CB       -58.0270   12.2380  -15.6540 C.3   107  LEU107      0.0311
     98  CG       -57.6490   10.7760  -15.9070 C.3   107  LEU107      0.0022
     99  CD1      -56.7250   10.2650  -14.8250 C.3   107  LEU107      0.0001
    100  CD2      -58.8720    9.8770  -16.0010 C.3   107  LEU107      0.0001
    101  N        -59.8360   14.6000  -15.2280 N.am  108  SER108     -0.1950
    102  CA       -60.1730   15.9350  -14.7630 C.3   108  SER108      0.1924
    103  C        -59.0950   16.4500  -13.8000 C.2   108  SER108      0.2314
    104  O        -57.9550   15.9920  -13.8350 O.2   108  SER108     -0.2863
    105  CB       -61.5700   15.9130  -14.1210 C.3   108  SER108      0.2116
    106  OG       -61.9910   17.2250  -13.7950 O.3   108  SER108     -0.2180
    107  N        -56.8970   17.4470  -10.2360 N.3   110  ASN110     -0.1240
    108  CA       -56.2960   16.6540   -9.1540 C.3   110  ASN110      0.1653
    109  C        -56.7610   17.0680   -7.7500 C.2   110  ASN110      0.2266
    110  O        -57.4380   18.0990   -7.5940 O.2   110  ASN110     -0.2867
    111  CB       -54.7620   16.6400   -9.2670 C.3   110  ASN110      0.1155
    112  CG       -54.1290   18.0220   -9.1010 C.2   110  ASN110      0.2627
    113  OD1      -54.3140   18.6860   -8.0900 O.2   110  ASN110     -0.2716
    114  ND2      -53.3380   18.4300  -10.0820 N.am  110  ASN110     -0.0877
    115  N        -51.5660   16.0870   -5.7170 N.3   157  GLU157     -0.1231
    116  CA       -51.4680   16.3850   -7.1400 C.3   157  GLU157      0.1699
    117  C        -51.2710   15.1720   -8.0700 C.2   157  GLU157      0.2592
    118  O        -51.3930   15.3180   -9.2880 O.2   157  GLU157     -0.2718
    119  CB       -50.4510   17.4900   -7.4240 C.3   157  GLU157      0.0402
    120  CG       -49.0000   17.0910   -7.4540 C.3   157  GLU157      0.1161
    121  CD       -48.0930   18.3050   -7.4010 C.2   157  GLU157      0.3649
    122  OE1      -48.0580   18.9750   -6.3430 O.co2 157  GLU157     -0.2457
    123  OE2      -47.4250   18.5880   -8.4160 O.co2 157  GLU157     -0.2457
    124  N        -50.9960   13.9920   -7.5070 N.am  158  ASN158     -0.1974
    125  CA       -50.8880   12.7630   -8.3130 C.3   158  ASN158      0.1688
    126  C        -52.1050   11.8330   -8.2030 C.2   158  ASN158      0.2292
    127  O        -52.0690   10.6550   -8.6140 O.2   158  ASN158     -0.2864
    128  CB       -49.5930   12.0110   -8.0030 C.3   158  ASN158      0.1181
    129  CG       -48.3760   12.6300   -8.6680 C.2   158  ASN158      0.2629
    130  OD1      -48.4660   13.2030   -9.7470 O.2   158  ASN158     -0.2716
    131  ND2      -47.2190   12.5110   -8.0150 N.am  158  ASN158     -0.0877
    132  N        -56.0930   12.0790   -9.4020 N.3   160  LEU160     -0.1245
    133  CA       -57.0050   12.8910  -10.2250 C.3   160  LEU160      0.1561
    134  C        -58.4160   12.3650  -10.2140 C.2   160  LEU160      0.2260
    135  O        -58.6410   11.1380  -10.1340 O.2   160  LEU160     -0.2867
    136  CB       -56.5190   12.9770  -11.6790 C.3   160  LEU160      0.0270
    137  CG       -55.4530   14.0120  -12.0270 C.3   160  LEU160      0.0019
    138  CD1      -54.1270   13.7230  -11.3430 C.3   160  LEU160      0.0001
    139  CD2      -55.2650   14.0400  -13.5310 C.3   160  LEU160      0.0001
    140  N        -52.0760    8.7750  -10.8410 N.3   172  VAL172     -0.1231
    141  CA       -51.2370    9.0900  -11.9980 C.3   172  VAL172      0.1692
    142  C        -49.7600    9.1960  -11.6360 C.2   172  VAL172      0.2592
    143  O        -49.3910    9.1460  -10.4580 O.2   172  VAL172     -0.2718
    144  CB       -51.7110   10.3540  -12.7450 C.3   172  VAL172      0.0266
    145  CG1      -53.2080   10.2380  -13.0260 C.3   172  VAL172      0.0020
    146  CG2      -51.3160   11.6530  -11.9990 C.3   172  VAL172      0.0020
    147  N        -48.9320    9.3220  -12.6640 N.am  173  ASP173     -0.1974
    148  CA       -47.4950    9.5170  -12.5220 C.3   173  ASP173      0.1709
    149  C        -46.7540    8.3170  -11.9020 C.2   173  ASP173      0.2293
    150  O        -46.2770    8.3520  -10.7660 O.2   173  ASP173     -0.2864
    151  CB       -47.1470   10.8340  -11.8140 C.3   173  ASP173      0.1436
    152  CG       -45.6730   11.1660  -11.9330 C.2   173  ASP173      0.3671
    153  OD1      -45.0590   10.7540  -12.9400 O.co2 173  ASP173     -0.2456
    154  OD2      -45.1250   11.8150  -11.0220 O.co2 173  ASP173     -0.2456
@<TRIPOS>BOND
     1    52    51    2
     2    51    50    1
     3    46    47    2
     4    46    45    1
     5    44    45    1
     6    49    50    1
     7    65    66    1
     8    45    48    1
     9    68    67    2
    10    50    53    1
    11    39    40    2
    12    39    38    1
    13    67    66    1
    14    67    76   am
    15    66    69    1
    16    21    20    1
    17    76    77    1
    18     1     2    1
    19    38    37    1
    20    38    41    1
    21    89    90    1
    22    89    86    1
    23    20    19    1
    24    77    78    1
    25    77    80    1
    26    53    54    1
    27     7     5    1
    28    85    78   am
    29    85    86    1
    30    91    90    1
    31    91    92    1
    32    78    79    2
    33    69    70    1
    34    29    28    2
    35    80    81    1
    36    86    87    1
    37    72    70   ar
    38    72    74   ar
    39     6     8    1
    40     6     5    1
    41    54    55    1
    42    42    41    1
    43     2     5    1
    44     2     3    1
    45    70    71   ar
    46    41    43    1
    47    74    75   ar
    48    19    18    1
    49    12    11    2
    50    71    73   ar
    51    28    27    1
    52    75    73   ar
    53    18    17    1
    54     9     3    1
    55     9    10    2
    56    81    82    1
    57    55    56    1
    58    87    88    2
    59    87    93   am
    60     3     4    2
    61    33    35   ar
    62    33    31   ar
    63    11    10    1
    64    11    13   am
    65    83    82   ar
    66    35    36   ar
    67    56    57    1
    68    82    84   ar
    69    17    14    1
    70    27    30    1
    71    27    26    1
    72    93    94    1
    73    14    13    1
    74    14    15    1
    75    30    31    1
    76    31    32   ar
    77    25    24    2
    78    36    34   ar
    79    96    95    2
    80    22    15   am
    81    22    23    1
    82    15    16    2
    83    64    62    1
    84    94    95    1
    85    94    97    1
    86    60    61    2
    87    60    59    1
    88    24    23    1
    89    95   101   am
    90    32    34   ar
    91   100    98    1
    92    98    97    1
    93    98    99    1
    94    62    63    1
    95    62    59    1
    96    59    58    1
    97   101   102    1
    98   102   105    1
    99   102   103    1
   100   105   106    1
   101   104   103    2
   102   139   137    1
   103   145   144    1
   104   153   152   ar
   105   144   146    1
   106   144   141    1
   107   147   148    1
   108   147   142   am
   109   148   149    1
   110   148   151    1
   111   137   136    1
   112   137   138    1
   113   141   142    1
   114   141   140    1
   115   152   151    1
   116   152   154   ar
   117   149   150    2
   118   136   133    1
   119   142   143    2
   120   107   108    1
   121   133   134    1
   122   133   132    1
   123   134   135    2
   124   114   112   am
   125   130   129    2
   126   118   117    2
   127   111   108    1
   128   111   112    1
   129   108   109    1
   130   112   113    2
   131   129   131   am
   132   129   128    1
   133   127   126    2
   134   123   121   ar
   135   125   126    1
   136   125   128    1
   137   125   124    1
   138   117   124   am
   139   117   116    1
   140   109   110    2
   141   120   119    1
   142   120   121    1
   143   119   116    1
   144   121   122   ar
   145   116   115    1
