@<TRIPOS>MOLECULE
tmp/6a20A00.pdb
 132 128 0 0 0
SMALL
GASTEIGER

@<TRIPOS>ATOM
      1  N          3.8300    9.9820   -2.5630 N.3    10  ARG10      -0.1231
      2  CA         2.9060    8.9090   -2.8980 C.3    10  ARG10       0.1694
      3  C          2.2210    8.3610   -1.6520 C.2    10  ARG10       0.2592
      4  O          2.8730    7.8460   -0.7410 O.2    10  ARG10      -0.2718
      5  CB         3.6280    7.7830   -3.6410 C.3    10  ARG10       0.0321
      6  CG         2.6830    6.8050   -4.3200 C.3    10  ARG10       0.0489
      7  CD         3.4300    5.7300   -5.0880 C.3    10  ARG10       0.2205
      8  NE         2.5330    4.9800   -5.9630 N.pl3  10  ARG10      -0.0865
      9  CZ         2.8660    3.8640   -6.6010 C.cat  10  ARG10       0.5346
     10  NH1        1.9810    3.2550   -7.3780 N.pl3  10  ARG10       0.1354
     11  NH2        4.0830    3.3540   -6.4630 N.pl3  10  ARG10       0.1354
     12  N          0.8990    8.4840   -1.6210 N.am   11  VAL11      -0.1966
     13  CA         0.1020    7.9740   -0.5150 C.3    11  VAL11       0.1727
     14  C         -0.5220    6.6370   -0.8880 C.2    11  VAL11       0.2616
     15  O         -1.3840    6.5740   -1.7640 O.2    11  VAL11      -0.2715
     16  CB        -1.0160    8.9550   -0.1170 C.3    11  VAL11       0.0290
     17  CG1       -1.6870    8.4990    1.1700 C.3    11  VAL11       0.0023
     18  CG2       -0.4640   10.3650    0.0310 C.3    11  VAL11       0.0023
     19  N         -0.0830    5.5680   -0.2310 N.am   12  ARG12      -0.1964
     20  CA        -0.6490    4.2510   -0.4880 C.3    12  ARG12       0.1714
     21  C         -2.0660    4.1820    0.0740 C.2    12  ARG12       0.2458
     22  O         -2.3720    4.8300    1.0760 O.2    12  ARG12      -0.2730
     23  CB         0.2280    3.1470    0.1140 C.3    12  ARG12       0.0347
     24  CG         0.2360    3.0920    1.6320 C.3    12  ARG12       0.0492
     25  CD         0.6500    1.7110    2.1200 C.3    12  ARG12       0.2205
     26  NE         0.6890    1.6300    3.5770 N.pl3  12  ARG12      -0.0865
     27  CZ        -0.3790    1.4370    4.3430 C.cat  12  ARG12       0.5346
     28  NH1       -1.5790    1.3100    3.7930 N.pl3  12  ARG12       0.1354
     29  NH2       -0.2480    1.3750    5.6610 N.pl3  12  ARG12       0.1354
     30  N         -2.9430    3.4090   -0.5830 N.am   13  PRO13      -0.2727
     31  CA        -4.3320    3.2920   -0.1320 C.3    13  PRO13       0.1402
     32  C         -4.4520    2.5430    1.1890 C.2    13  PRO13       0.2269
     33  O         -3.5460    1.7960    1.5610 O.2    13  PRO13      -0.2865
     34  CB        -5.0040    2.5100   -1.2650 C.3    13  PRO13       0.0296
     35  CG        -3.8980    1.7330   -1.8860 C.3    13  PRO13       0.0237
     36  CD        -2.6940    2.6240   -1.8040 C.3    13  PRO13       0.0939
     37  N         -4.4670    6.7060   -4.4230 N.3    57  SER57      -0.1217
     38  CA        -5.3420    5.6790   -4.9730 C.3    57  SER57       0.1889
     39  C         -6.6070    5.5400   -4.1340 C.2    57  SER57       0.2288
     40  O         -6.5640    5.6600   -2.9090 O.2    57  SER57      -0.2866
     41  CB        -4.6070    4.3400   -5.0540 C.3    57  SER57       0.2089
     42  OG        -3.5190    4.4100   -5.9600 O.3    57  SER57      -0.2183
     43  N         -8.5290    2.8040   -3.8970 N.3    59  ASP59      -0.1225
     44  CA        -8.5960    1.4840   -3.2740 C.3    59  ASP59       0.1805
     45  C         -7.4100    0.6000   -3.6570 C.2    59  ASP59       0.2597
     46  O         -6.4580    1.0600   -4.2870 O.2    59  ASP59      -0.2718
     47  CB        -9.9130    0.7870   -3.6390 C.3    59  ASP59       0.1424
     48  CG       -10.1790    0.7740   -5.1360 C.2    59  ASP59       0.3668
     49  OD1      -11.3380    1.0160   -5.5310 O.co2  59  ASP59      -0.2456
     50  OD2       -9.2410    0.5120   -5.9180 O.co2  59  ASP59      -0.2456
     51  N         -7.4790   -0.6730   -3.2750 N.am   60  GLU60      -0.1979
     52  CA        -6.4080   -1.6240   -3.5600 C.3    60  GLU60       0.1602
     53  C         -6.7530   -2.5680   -4.7090 C.2    60  GLU60       0.2287
     54  O         -6.1080   -3.6030   -4.8780 O.2    60  GLU60      -0.2864
     55  CB        -6.0750   -2.4440   -2.3130 C.3    60  GLU60       0.0415
     56  CG        -5.1430   -1.7520   -1.3350 C.3    60  GLU60       0.1163
     57  CD        -4.7250   -2.6620   -0.1960 C.2    60  GLU60       0.3649
     58  OE1       -3.5250   -2.6740    0.1480 O.co2  60  GLU60      -0.2457
     59  OE2       -5.5970   -3.3670    0.3550 O.co2  60  GLU60      -0.2457
     60  N         -4.2410   -0.0850   -8.9320 N.3    65  LYS65      -0.1245
     61  CA        -2.8150   -0.3370   -8.7520 C.3    65  LYS65       0.1561
     62  C         -2.0720   -0.2100  -10.0800 C.2    65  LYS65       0.2260
     63  O         -1.0060    0.4120  -10.1490 O.2    65  LYS65      -0.2867
     64  CB        -2.5910   -1.7200   -8.1350 C.3    65  LYS65       0.0271
     65  CG        -3.2460   -1.8860   -6.7710 C.3    65  LYS65       0.0035
     66  CD        -3.0400   -3.2810   -6.2040 C.3    65  LYS65       0.0206
     67  CE        -1.6390   -3.4510   -5.6440 C.3    65  LYS65       0.1093
     68  NZ        -1.4900   -4.7430   -4.9210 N.3    65  LYS65      -0.1314
     69  N          8.7050    5.5570    5.7180 N.3    97  GLN97      -0.1231
     70  CA         8.7160    4.5010    6.7220 C.3    97  GLN97       0.1698
     71  C          8.4320    3.1370    6.1060 C.2    97  GLN97       0.2593
     72  O          7.9180    3.0410    4.9910 O.2    97  GLN97      -0.2718
     73  CB         7.6940    4.7960    7.8170 C.3    97  GLN97       0.0381
     74  CG         6.2580    4.7570    7.3330 C.3    97  GLN97       0.0905
     75  CD         5.2600    4.8520    8.4660 C.2    97  GLN97       0.2608
     76  OE1        4.1940    5.4440    8.3150 O.2    97  GLN97      -0.2717
     77  NE2        5.6000    4.2660    9.6080 N.am   97  GLN97      -0.0878
     78  N          8.7670    2.0840    6.8440 N.am   98  THR98      -0.1939
     79  CA         8.5370    0.7180    6.3900 C.3    98  THR98       0.2028
     80  C          7.0490    0.4460    6.1920 C.2    98  THR98       0.2643
     81  O          6.2410    0.6740    7.0920 O.2    98  THR98      -0.2714
     82  CB         9.1160   -0.3090    7.3830 C.3    98  THR98       0.1808
     83  OG1       10.5340   -0.1340    7.4790 O.3    98  THR98      -0.2208
     84  CG2        8.8160   -1.7280    6.9230 C.3    98  THR98       0.0379
     85  N          6.6950   -0.0340    5.0050 N.am   99  GLY99      -0.1939
     86  CA         5.3130   -0.3440    4.6900 C.3    99  GLY99       0.2014
     87  C          4.5790    0.7880    3.9940 C.2    99  GLY99       0.2640
     88  O          3.3840    0.6770    3.7190 O.2    99  GLY99      -0.2714
     89  N          5.2880    1.8760    3.7070 N.am  100  SER100     -0.1935
     90  CA         4.6760    3.0300    3.0530 C.3   100  SER100      0.2055
     91  C          4.5870    2.8340    1.5410 C.2   100  SER100      0.2644
     92  O          3.6510    3.3160    0.9020 O.2   100  SER100     -0.2714
     93  CB         5.4520    4.3110    3.3740 C.3   100  SER100      0.2130
     94  OG         6.8240    4.1800    3.0480 O.3   100  SER100     -0.2179
     95  N          5.5640    2.1330    0.9730 N.am  101  GLY101     -0.1939
     96  CA         5.5250    1.7950   -0.4390 C.3   101  GLY101      0.2014
     97  C          6.7790    2.1230   -1.2290 C.2   101  GLY101      0.2639
     98  O          6.7030    2.3780   -2.4300 O.2   101  GLY101     -0.2714
     99  N          7.9310    2.1100   -0.5660 N.am  102  LYS102     -0.1963
    100  CA         9.2000    2.3950   -1.2330 C.3   102  LYS102      0.1728
    101  C          9.5350    1.3340   -2.2810 C.2   102  LYS102      0.2617
    102  O          9.7280    1.6470   -3.4580 O.2   102  LYS102     -0.2715
    103  CB        10.3370    2.4920   -0.2120 C.3   102  LYS102      0.0311
    104  CG        10.2180    3.6610    0.7510 C.3   102  LYS102      0.0038
    105  CD        11.4210    3.7330    1.6820 C.3   102  LYS102      0.0206
    106  CE        11.5050    2.5120    2.5890 C.3   102  LYS102      0.1093
    107  NZ        10.3020    2.3750    3.4570 N.3   102  LYS102     -0.1314
    108  N          9.6010    0.0810   -1.8440 N.am  103  SER103     -0.1936
    109  CA         9.9430   -1.0250   -2.7310 C.3   103  SER103      0.2055
    110  C          8.8660   -1.2520   -3.7850 C.2   103  SER103      0.2643
    111  O          9.1700   -1.5840   -4.9320 O.2   103  SER103     -0.2714
    112  CB        10.1680   -2.3040   -1.9250 C.3   103  SER103      0.2130
    113  OG        11.2090   -2.1290   -0.9790 O.3   103  SER103     -0.2179
    114  N          7.6100   -1.0700   -3.3920 N.am  104  TYR104     -0.1973
    115  CA         6.4880   -1.2070   -4.3130 C.3   104  TYR104      0.1639
    116  C          6.5610   -0.1610   -5.4230 C.2   104  TYR104      0.2290
    117  O          6.0880   -0.3870   -6.5360 O.2   104  TYR104     -0.2864
    118  CB         5.1600   -1.0910   -3.5610 C.3   104  TYR104      0.0560
    119  CG         3.9390   -1.1410   -4.4530 C.ar  104  TYR104     -0.0198
    120  CD1        3.4000   -2.3550   -4.8590 C.ar  104  TYR104     -0.0009
    121  CD2        3.3250    0.0270   -4.8890 C.ar  104  TYR104     -0.0009
    122  CE1        2.2840   -2.4040   -5.6750 C.ar  104  TYR104      0.0417
    123  CE2        2.2110   -0.0120   -5.7050 C.ar  104  TYR104      0.0417
    124  CZ         1.6950   -1.2290   -6.0940 C.ar  104  TYR104      0.1957
    125  OH         0.5840   -1.2710   -6.9060 O.3   104  TYR104     -0.2866
    126  N          5.8670   -5.3310   -7.8000 N.3   109  THR109     -0.1218
    127  CA         5.6780   -6.7720   -7.6980 C.3   109  THR109      0.1862
    128  C          5.6020   -7.4060   -9.0810 C.2   109  THR109      0.2287
    129  O          5.7790   -6.7280  -10.0940 O.2   109  THR109     -0.2866
    130  CB         4.4040   -7.1230   -6.9060 C.3   109  THR109      0.1770
    131  OG1        3.2550   -6.6060   -7.5890 O.3   109  THR109     -0.2211
    132  CG2        4.4680   -6.5330   -5.5060 C.3   109  THR109      0.0375
@<TRIPOS>BOND
     1    63    62    2
     2   129   128    2
     3    62    61    1
     4   128   127    1
     5    60    61    1
     6    61    64    1
     7    64    65    1
     8   126   127    1
     9   127   130    1
    10   131   130    1
    11    10     9    1
    12   125   124    1
    13   130   132    1
    14    65    66    1
    15     9    11    1
    16     9     8    2
    17   117   116    2
    18    66    67    1
    19   124   123   ar
    20   124   122   ar
    21     8     7    1
    22    42    41    1
    23    50    48   ar
    24   123   121   ar
    25   122   120   ar
    26    67    68    1
    27    49    48   ar
    28   116   115    1
    29    48    47    1
    30     7     6    1
    31    41    38    1
    32    38    37    1
    33    38    39    1
    34   111   110    2
    35   121   119   ar
    36    54    53    2
    37   120   119   ar
    38    53    52    1
    39   119   118    1
    40     6     5    1
    41   115   118    1
    42   115   114    1
    43    46    45    2
    44    39    40    2
    45    43    44    1
    46   110   114   am
    47   110   109    1
    48    45    51   am
    49    45    44    1
    50     5     2    1
    51    47    44    1
    52    52    51    1
    53    52    55    1
    54   102   101    2
    55     2     1    1
    56     2     3    1
    57   109   112    1
    58   109   108    1
    59    98    97    2
    60    55    56    1
    61   101   108   am
    62   101   100    1
    63   112   113    1
    64    35    36    1
    65    35    34    1
    66    36    30    1
    67    15    14    2
    68     3    12   am
    69     3     4    2
    70    12    13    1
    71    56    57    1
    72    34    31    1
    73   100    99    1
    74   100   103    1
    75    97    99   am
    76    97    96    1
    77    14    13    1
    78    14    19   am
    79    30    31    1
    80    30    21   am
    81    13    16    1
    82    20    19    1
    83    20    21    1
    84    20    23    1
    85    96    95    1
    86   103   104    1
    87    57    58   ar
    88    57    59   ar
    89    31    32    1
    90    16    18    1
    91    16    17    1
    92    21    22    2
    93    23    24    1
    94   104   105    1
    95    92    91    2
    96    95    91   am
    97    32    33    2
    98    91    90    1
    99    24    25    1
   100   105   106    1
   101    25    26    1
   102   106   107    1
   103    94    93    1
   104    90    93    1
   105    90    89    1
   106    26    27    2
   107    89    87   am
   108    88    87    2
   109    28    27    1
   110    87    86    1
   111    27    29    1
   112    86    85    1
   113    72    71    2
   114    85    80   am
   115    69    70    1
   116    71    70    1
   117    71    78   am
   118    80    79    1
   119    80    81    2
   120    79    78    1
   121    79    82    1
   122    70    73    1
   123    84    82    1
   124    74    73    1
   125    74    75    1
   126    82    83    1
   127    76    75    2
   128    75    77   am
