@<TRIPOS>MOLECULE
tmp/6a22G00.pdb
 228 220 0 0 0
SMALL
GASTEIGER

@<TRIPOS>ATOM
      1  N        121.0710   16.5090    1.1340 N.3    20  CYS20      -0.1221
      2  CA       121.5730   17.6500    1.9420 C.3    20  CYS20       0.1808
      3  C        122.9450   17.2500    2.4930 C.2    20  CYS20       0.2601
      4  O        123.0770   16.0810    2.8930 O.2    20  CYS20      -0.2717
      5  CB       120.6890   17.8680    3.1630 C.3    20  CYS20       0.0970
      6  SG       119.1150   18.6860    2.8080 S.3    20  CYS20      -0.0800
      7  N        123.9230   18.1460    2.5580 N.am   21  GLN21      -0.1965
      8  CA       125.2350   17.7470    3.1340 C.3    21  GLN21       0.1733
      9  C        125.0200   17.3780    4.6050 C.2    21  GLN21       0.2616
     10  O        125.5560   16.3460    5.0430 O.2    21  GLN21      -0.2715
     11  CB       126.2430   18.8900    3.0260 C.3    21  GLN21       0.0408
     12  CG       126.5570   19.3030    1.5970 C.3    21  GLN21       0.0908
     13  CD       127.8110   20.1400    1.5280 C.2    21  GLN21       0.2608
     14  OE1      127.8100   21.2540    1.0150 O.2    21  GLN21      -0.2717
     15  NE2      128.8970   19.6000    2.0530 N.am   21  GLN21      -0.0878
     16  N        124.2630   18.2000    5.3170 N.am   22  LEU22      -0.1977
     17  CA       123.9370   17.9710    6.7470 C.3    22  LEU22       0.1596
     18  C        122.4210   18.0960    6.9090 C.2    22  LEU22       0.2287
     19  O        121.8400   18.9640    6.2430 O.2    22  LEU22      -0.2864
     20  CB       124.6530   19.0260    7.5950 C.3    22  LEU22       0.0297
     21  CG       126.0860   18.6880    8.0020 C.3    22  LEU22       0.0022
     22  CD1      127.0400   18.8800    6.8340 C.3    22  LEU22       0.0001
     23  CD2      126.5220   19.5330    9.1870 C.3    22  LEU22       0.0001
     24  N        121.7300   20.7430   12.2710 N.3    27  LEU27      -0.1245
     25  CA       122.2210   22.1490   12.2790 C.3    27  LEU27       0.1561
     26  C        121.5070   22.9860   13.3490 C.2    27  LEU27       0.2260
     27  O        122.1970   23.7510   14.0420 O.2    27  LEU27      -0.2867
     28  CB       122.0270   22.7500   10.8850 C.3    27  LEU27       0.0270
     29  CG       122.9680   22.2100    9.8110 C.3    27  LEU27       0.0019
     30  CD1      123.0590   23.1720    8.6390 C.3    27  LEU27       0.0001
     31  CD2      124.3470   21.9420   10.3900 C.3    27  LEU27       0.0001
     32  N        140.2630   31.8060    0.6340 N.3    52  TRP52      -0.1241
     33  CA       139.5600   31.5150   -0.6440 C.3    52  TRP52       0.1605
     34  C        139.7240   30.0410   -1.0640 C.2    52  TRP52       0.2264
     35  O        138.7680   29.4270   -1.5440 O.2    52  TRP52      -0.2867
     36  CB       139.9860   32.4530   -1.8130 C.3    52  TRP52       0.0550
     37  CG       139.0690   33.6740   -1.9620 C.ar   52  TRP52       0.0003
     38  CD1      139.4080   35.0020   -1.8500 C.ar   52  TRP52       0.0946
     39  CD2      137.6730   33.6440   -2.2510 C.ar   52  TRP52       0.0152
     40  NE1      138.3070   35.7840   -2.0350 N.ar   52  TRP52      -0.2442
     41  CE2      137.2270   34.9760   -2.2890 C.ar   52  TRP52       0.0810
     42  CE3      136.7450   32.6070   -2.4620 C.ar   52  TRP52       0.0012
     43  CZ2      135.8980   35.2970   -2.5480 C.ar   52  TRP52       0.0191
     44  CZ3      135.4410   32.9210   -2.7040 C.ar   52  TRP52       0.0001
     45  CH2      135.0230   34.2560   -2.7550 C.ar   52  TRP52       0.0015
     46  N        137.2300   28.1510    1.2460 N.3    55  CYS55      -0.1235
     47  CA       135.8410   28.4800    0.8530 C.3    55  CYS55       0.1677
     48  C        135.5060   27.9020   -0.5470 C.2    55  CYS55       0.2270
     49  O        134.3980   27.4120   -0.8170 O.2    55  CYS55      -0.2867
     50  CB       135.4940   29.9970    0.8870 C.3    55  CYS55       0.0956
     51  SG       135.5350   30.6910    2.5400 S.3    55  CYS55      -0.0801
     52  N        134.7760   24.2640   -0.4320 N.3    58  HIS58      -0.1226
     53  CA       133.4630   24.0140    0.1380 C.3    58  HIS58       0.1752
     54  C        132.3710   24.2440   -0.8850 C.2    58  HIS58       0.2595
     55  O        131.4170   23.4860   -0.9530 O.2    58  HIS58      -0.2718
     56  CB       133.2370   24.8590    1.3870 C.3    58  HIS58       0.0759
     57  CG       133.9490   24.3400    2.5940 C.ar   58  HIS58       0.0818
     58  ND1      135.1630   24.8360    3.0120 N.ar   58  HIS58      -0.2268
     59  CD2      133.6250   23.3560    3.4630 C.ar   58  HIS58       0.1154
     60  CE1      135.5520   24.1850    4.0920 C.ar   58  HIS58       0.1986
     61  NE2      134.6370   23.2820    4.3870 N.ar   58  HIS58      -0.2212
     62  N        132.5130   25.2970   -1.6790 N.am   59  LEU59      -0.1980
     63  CA       131.5250   25.5690   -2.7160 C.3    59  LEU59       0.1596
     64  C        131.4850   24.4060   -3.6930 C.2    59  LEU59       0.2287
     65  O        130.4130   23.9320   -4.0700 O.2    59  LEU59      -0.2864
     66  CB       131.8060   26.9220   -3.4470 C.3    59  LEU59       0.0297
     67  CG       131.5760   28.2340   -2.6540 C.3    59  LEU59       0.0022
     68  CD1      132.0480   29.4290   -3.4750 C.3    59  LEU59       0.0001
     69  CD2      130.1170   28.3840   -2.3110 C.3    59  LEU59       0.0001
     70  N        129.8640   21.2510   -2.2970 N.3    62  ALA62      -0.1245
     71  CA       128.4040   21.4260   -2.2640 C.3    62  ALA62       0.1562
     72  C        127.7800   21.2730   -3.6350 C.2    62  ALA62       0.2260
     73  O        126.7470   20.6030   -3.7700 O.2    62  ALA62      -0.2867
     74  CB       128.0120   22.7660   -1.6660 C.3    62  ALA62       0.0290
     75  N        123.9540   28.4440   -2.8120 N.3    97  LEU97      -0.1245
     76  CA       123.8010   29.5820   -1.9080 C.3    97  LEU97       0.1561
     77  C        122.5590   29.3990   -1.1020 C.2    97  LEU97       0.2260
     78  O        122.6020   29.5540    0.0980 O.2    97  LEU97      -0.2867
     79  CB       123.7820   30.9260   -2.6590 C.3    97  LEU97       0.0270
     80  CG       125.1450   31.4500   -3.1160 C.3    97  LEU97       0.0019
     81  CD1      125.0120   32.8390   -3.7430 C.3    97  LEU97       0.0001
     82  CD2      126.1080   31.4800   -1.9330 C.3    97  LEU97       0.0001
     83  N        121.1840   26.7330   -0.0580 N.3    99  ARG99      -0.1231
     84  CA       121.2980   25.6880    0.9790 C.3    99  ARG99       0.1694
     85  C        122.1830   26.2250    2.1300 C.2    99  ARG99       0.2592
     86  O        121.8080   26.1750    3.3120 O.2    99  ARG99      -0.2718
     87  CB       121.8740   24.3640    0.4450 C.3    99  ARG99       0.0321
     88  CG       121.0080   23.5120   -0.4650 C.3    99  ARG99       0.0489
     89  CD       121.7020   22.2170   -0.9240 C.3    99  ARG99       0.2205
     90  NE       120.7750   21.2020   -1.4510 N.pl3  99  ARG99      -0.0865
     91  CZ       121.0520   19.9000   -1.6140 C.cat  99  ARG99       0.5346
     92  NH1      122.2690   19.4530   -1.3090 N.pl3  99  ARG99       0.1354
     93  NH2      120.1160   19.0430   -2.0940 N.pl3  99  ARG99       0.1354
     94  N        123.3500   26.7700    1.7710 N.am  100  MET100     -0.1965
     95  CA       124.2640   27.3110    2.7640 C.3   100  MET100      0.1736
     96  C        123.6100   28.4300    3.5470 C.2   100  MET100      0.2616
     97  O        123.6880   28.4580    4.7900 O.2   100  MET100     -0.2715
     98  CB       125.5490   27.7950    2.1020 C.3   100  MET100      0.0427
     99  CG       126.4080   26.6670    1.5690 C.3   100  MET100      0.0599
    100  SD       127.8160   27.2570    0.6440 S.3   100  MET100     -0.1393
    101  CE       128.7470   25.7420    0.4490 C.3   100  MET100      0.0692
    102  N        122.9780   29.3240    2.8060 N.am  101  CYS101     -0.1968
    103  CA       122.2030   30.4210    3.4330 C.3   101  CYS101      0.1712
    104  C        121.0190   29.8220    4.2920 C.2   101  CYS101      0.2296
    105  O        120.6300   30.4130    5.3070 O.2   101  CYS101     -0.2864
    106  CB       121.6950   31.5090    2.4610 C.3   101  CYS101      0.0983
    107  SG       123.0600   32.4000    1.6970 S.3   101  CYS101     -0.0798
    108  N        121.2040   27.2970    6.1930 N.3   103  ALA103     -0.1231
    109  CA       121.9280   26.9330    7.4380 C.3   103  ALA103      0.1694
    110  C        122.3620   28.2080    8.1800 C.2   103  ALA103      0.2592
    111  O        123.5810   28.4580    8.2790 O.2   103  ALA103     -0.2718
    112  CB       123.1320   26.1310    7.0200 C.3   103  ALA103      0.0304
    113  N        121.4110   28.9790    8.7360 N.am  104  TYR104     -0.1976
    114  CA       121.7120   30.3560    9.3190 C.3   104  TYR104      0.1639
    115  C        120.8870   30.6850   10.5810 C.2   104  TYR104      0.2290
    116  O        119.8190   30.1150   10.7740 O.2   104  TYR104     -0.2864
    117  CB       121.4750   31.4480    8.2210 C.3   104  TYR104      0.0560
    118  CG       121.7020   32.9510    8.5940 C.ar  104  TYR104     -0.0198
    119  CD1      122.9670   33.5400    8.5070 C.ar  104  TYR104     -0.0009
    120  CD2      120.6330   33.7860    8.9600 C.ar  104  TYR104     -0.0009
    121  CE1      123.1700   34.8720    8.7940 C.ar  104  TYR104      0.0417
    122  CE2      120.8090   35.1200    9.2530 C.ar  104  TYR104      0.0417
    123  CZ       122.0840   35.6850    9.1750 C.ar  104  TYR104      0.1957
    124  OH       122.2780   37.0420    9.4740 O.3   104  TYR104     -0.2866
    125  N        126.4150   31.9340   10.6710 N.3   111  VAL111     -0.1231
    126  CA       126.2130   30.8680    9.6560 C.3   111  VAL111      0.1692
    127  C        126.9470   29.5870   10.0370 C.2   111  VAL111      0.2592
    128  O        128.0550   29.6920   10.5280 O.2   111  VAL111     -0.2718
    129  CB       126.6880   31.3480    8.2680 C.3   111  VAL111      0.0266
    130  CG1      128.2450   31.6220    8.2160 C.3   111  VAL111      0.0020
    131  CG2      126.2480   30.3610    7.1940 C.3   111  VAL111      0.0020
    132  N        126.3780   28.3890    9.8060 N.am  112  PHE112     -0.1962
    133  CA       127.1350   27.1250   10.0290 C.3   112  PHE112      0.1771
    134  C        128.2890   27.0770    9.0620 C.2   112  PHE112      0.2620
    135  O        128.0570   27.0800    7.8510 O.2   112  PHE112     -0.2715
    136  CB       126.2660   25.8700    9.8260 C.3   112  PHE112      0.0574
    137  CG       126.9710   24.5640   10.1320 C.ar  112  PHE112     -0.0200
    138  CD1      126.8810   23.9770   11.3930 C.ar  112  PHE112     -0.0042
    139  CD2      127.7140   23.9220    9.1650 C.ar  112  PHE112     -0.0042
    140  CE1      127.5020   22.7490   11.6610 C.ar  112  PHE112     -0.0003
    141  CE2      128.3450   22.6990    9.4290 C.ar  112  PHE112     -0.0003
    142  CZ       128.2590   22.1240   10.6980 C.ar  112  PHE112     -0.0000
    143  N        129.5270   27.0200    9.5610 N.am  113  PHE113     -0.1960
    144  CA       130.7090   26.9720    8.7000 C.3   113  PHE113      0.1771
    145  C        131.7610   26.0610    9.2860 C.2   113  PHE113      0.2619
    146  O        132.3060   26.3640   10.3680 O.2   113  PHE113     -0.2715
    147  CB       131.3320   28.3610    8.5740 C.3   113  PHE113      0.0574
    148  CG       132.5610   28.4100    7.6760 C.ar  113  PHE113     -0.0200
    149  CD1      132.4240   28.3780    6.3150 C.ar  113  PHE113     -0.0042
    150  CD2      133.8220   28.5400    8.1970 C.ar  113  PHE113     -0.0042
    151  CE1      133.5270   28.4170    5.4740 C.ar  113  PHE113     -0.0003
    152  CE2      134.9520   28.6040    7.3450 C.ar  113  PHE113     -0.0003
    153  CZ       134.7920   28.5230    6.0000 C.ar  113  PHE113     -0.0000
    154  N        132.1000   24.9780    8.5850 N.am  114  GLU114     -0.1977
    155  CA       133.1310   24.0720    9.0650 C.3   114  GLU114      0.1602
    156  C        132.9160   23.6630   10.5340 C.2   114  GLU114      0.2287
    157  O        133.8210   23.8190   11.3690 O.2   114  GLU114     -0.2864
    158  CB       134.5070   24.6970    8.9130 C.3   114  GLU114      0.0415
    159  CG       134.8500   25.1250    7.4990 C.3   114  GLU114      0.1163
    160  CD       136.2900   25.5910    7.3790 C.2   114  GLU114      0.3649
    161  OE1      136.7230   25.8020    6.2260 O.co2 114  GLU114     -0.2457
    162  OE2      136.9800   25.7520    8.4270 O.co2 114  GLU114     -0.2457
    163  N        134.9000   35.6930    7.9590 N.3   123  PHE123     -0.1241
    164  CA       135.3320   35.6980    6.5760 C.3   123  PHE123      0.1605
    165  C        136.1580   36.9260    6.1280 C.2   123  PHE123      0.2264
    166  O        136.3840   37.1130    4.9170 O.2   123  PHE123     -0.2867
    167  CB       134.1170   35.5370    5.6490 C.3   123  PHE123      0.0534
    168  CG       133.3010   34.3320    5.9490 C.ar  123  PHE123     -0.0203
    169  CD1      133.5970   33.1080    5.3470 C.ar  123  PHE123     -0.0042
    170  CD2      132.2960   34.3840    6.8840 C.ar  123  PHE123     -0.0042
    171  CE1      132.8900   31.9640    5.6750 C.ar  123  PHE123     -0.0003
    172  CE2      131.5540   33.2520    7.2080 C.ar  123  PHE123     -0.0003
    173  CZ       131.8300   32.0410    6.6010 C.ar  123  PHE123     -0.0000
    174  N        138.8780   36.7700    3.2110 N.3   126  LEU126     -0.1245
    175  CA       138.4910   36.7680    1.7730 C.3   126  LEU126      0.1561
    176  C        138.6940   38.1230    1.1040 C.2   126  LEU126      0.2260
    177  O        139.0070   38.1980   -0.0870 O.2   126  LEU126     -0.2867
    178  CB       137.0320   36.3360    1.5720 C.3   126  LEU126      0.0270
    179  CG       136.6420   34.9290    2.0560 C.3   126  LEU126      0.0019
    180  CD1      135.1960   34.5920    1.8450 C.3   126  LEU126      0.0001
    181  CD2      137.4800   33.8720    1.4170 C.3   126  LEU126      0.0001
    182  N        130.9250   41.5340   -1.1890 N.3   131  LEU131     -0.1231
    183  CA       130.2530   40.2640   -1.4800 C.3   131  LEU131      0.1693
    184  C        129.7790   39.5700   -0.2200 C.2   131  LEU131      0.2591
    185  O        128.6450   39.0510   -0.1490 O.2   131  LEU131     -0.2718
    186  CB       131.1480   39.3120   -2.2520 C.3   131  LEU131      0.0284
    187  CG       130.4880   37.9770   -2.5750 C.3   131  LEU131      0.0019
    188  CD1      129.1640   38.1550   -3.2950 C.3   131  LEU131      0.0001
    189  CD2      131.4170   37.1310   -3.4170 C.3   131  LEU131      0.0001
    190  N        130.6240   39.5500    0.7980 N.am  132  ILE132     -0.1980
    191  CA       130.2490   38.8270    2.0080 C.3   132  ILE132      0.1595
    192  C        129.0230   39.4480    2.6690 C.2   132  ILE132      0.2287
    193  O        128.1230   38.7280    3.1100 O.2   132  ILE132     -0.2864
    194  CB       131.4190   38.7170    3.0220 C.3   132  ILE132      0.0276
    195  CG1      132.7190   38.2500    2.3420 C.3   132  ILE132      0.0022
    196  CG2      131.0620   37.7660    4.1490 C.3   132  ILE132      0.0022
    197  CD1      132.5490   37.1920    1.2750 C.3   132  ILE132      0.0001
    198  N        125.8750   38.5650    0.7690 N.3   135  ILE135     -0.1231
    199  CA       125.4680   37.1460    1.0190 C.3   135  ILE135      0.1692
    200  C        124.7830   37.0500    2.4120 C.2   135  ILE135      0.2592
    201  O        123.7780   36.3450    2.6120 O.2   135  ILE135     -0.2718
    202  CB       126.6280   36.0740    0.9960 C.3   135  ILE135      0.0266
    203  CG1      127.3920   36.1270   -0.3350 C.3   135  ILE135      0.0019
    204  CG2      126.0790   34.6830    1.2610 C.3   135  ILE135      0.0020
    205  CD1      128.5690   35.1870   -0.4050 C.3   135  ILE135      0.0001
    206  N        125.3440   37.7270    3.4100 N.am  136  PHE136     -0.1976
    207  CA       124.6970   37.6840    4.7380 C.3   136  PHE136      0.1639
    208  C        123.3130   38.3750    4.7480 C.2   136  PHE136      0.2290
    209  O        122.4000   37.9130    5.4180 O.2   136  PHE136     -0.2864
    210  CB       125.5980   38.2510    5.8130 C.3   136  PHE136      0.0560
    211  CG       126.4780   37.2210    6.4560 C.ar  136  PHE136     -0.0200
    212  CD1      127.6080   36.7570    5.8160 C.ar  136  PHE136     -0.0042
    213  CD2      126.1850   36.7150    7.7050 C.ar  136  PHE136     -0.0042
    214  CE1      128.4190   35.8190    6.4070 C.ar  136  PHE136     -0.0003
    215  CE2      126.9900   35.7720    8.3070 C.ar  136  PHE136     -0.0003
    216  CZ       128.0990   35.3250    7.6570 C.ar  136  PHE136     -0.0000
    217  N        120.8570   35.9100    3.1510 N.3   139  SER139     -0.1217
    218  CA       120.5390   34.9470    4.2270 C.3   139  SER139      0.1889
    219  C        119.5600   35.4490    5.2760 C.2   139  SER139      0.2288
    220  O        118.6850   34.6770    5.7080 O.2   139  SER139     -0.2866
    221  CB       121.7930   34.4610    4.9680 C.3   139  SER139      0.2089
    222  OG       122.8100   34.2010    4.0360 O.3   139  SER139     -0.2183
    223  N        130.0250   34.2110   -6.9520 N.3   211  CYS211     -0.1235
    224  CA       130.6620   33.0520   -6.3240 C.3   211  CYS211      0.1677
    225  C        131.2870   32.1280   -7.3660 C.2   211  CYS211      0.2270
    226  O        132.4620   31.7410   -7.2410 O.2   211  CYS211     -0.2867
    227  CB       129.6930   32.2900   -5.4750 C.3   211  CYS211      0.0956
    228  SG       129.0800   33.2110   -4.0700 S.3   211  CYS211     -0.0801
@<TRIPOS>BOND
     1   225   226    2
     2   225   224    1
     3   223   224    1
     4   224   227    1
     5   227   228    1
     6    65    64    2
     7    73    72    2
     8    81    80    1
     9    64    63    1
    10    72    71    1
    11    68    67    1
    12    66    63    1
    13    66    67    1
    14   189   187    1
    15   188   187    1
    16    80    79    1
    17    80    82    1
    18    75    76    1
    19    45    44   ar
    20    45    43   ar
    21    63    62    1
    22    44    42   ar
    23    79    76    1
    24    67    69    1
    25   187   186    1
    26    43    41   ar
    27    42    39   ar
    28    70    71    1
    29    41    39   ar
    30    41    40   ar
    31    71    74    1
    32   186   183    1
    33    39    37   ar
    34    93    91    1
    35    40    38   ar
    36    37    38   ar
    37    37    36    1
    38    76    77    1
    39    36    33    1
    40    62    54   am
    41    91    90    2
    42    91    92    1
    43    35    34    2
    44   183   182    1
    45   183   184    1
    46    90    89    1
    47    77    78    2
    48    34    33    1
    49    55    54    2
    50    89    88    1
    51    54    53    1
    52    49    48    2
    53    33    32    1
    54    48    47    1
    55    88    87    1
    56    52    53    1
    57   205   203    1
    58   203   202    1
    59   184   185    2
    60   184   190   am
    61   177   176    2
    62    83    84    1
    63    53    56    1
    64    87    84    1
    65   101   100    1
    66   100    99    1
    67   198   199    1
    68   190   191    1
    69    47    50    1
    70    47    46    1
    71    50    51    1
    72    84    85    1
    73   202   199    1
    74   202   204    1
    75    14    13    2
    76   199   200    1
    77   176   175    1
    78     1     2    1
    79   197   195    1
    80    56    57    1
    81   181   179    1
    82    13    12    1
    83    13    15   am
    84    99    98    1
    85   178   175    1
    86   178   179    1
    87    12    11    1
    88   107   106    1
    89    94    85   am
    90    94    95    1
    91   175   174    1
    92   180   179    1
    93     2     3    1
    94     2     5    1
    95   191   192    1
    96   191   194    1
    97    98    95    1
    98    85    86    2
    99   195   194    1
   100   200   201    2
   101   200   206   am
   102   106   103    1
   103     3     7   am
   104     3     4    2
   105     7     8    1
   106    57    58   ar
   107    57    59   ar
   108   192   193    2
   109    95    96    1
   110   102   103    1
   111   102    96   am
   112     6     5    1
   113    58    60   ar
   114   194   196    1
   115    11     8    1
   116     8     9    1
   117   217   218    1
   118   206   207    1
   119   103   104    1
   120    59    61   ar
   121    96    97    2
   122   222   221    1
   123    60    61   ar
   124   218   221    1
   125   218   219    1
   126   104   105    2
   127     9    10    2
   128     9    16   am
   129   207   208    1
   130   207   210    1
   131   208   209    2
   132   166   165    2
   133   219   220    2
   134    16    17    1
   135   169   171   ar
   136   169   168   ar
   137   151   153   ar
   138   151   149   ar
   139   167   168    1
   140   167   164    1
   141   171   173   ar
   142   210   211    1
   143   212   214   ar
   144   212   211   ar
   145   168   170   ar
   146   153   152   ar
   147   165   164    1
   148   108   109    1
   149   161   160   ar
   150    19    18    2
   151   149   148   ar
   152   214   216   ar
   153   211   213   ar
   154   164   163    1
   155   173   172   ar
   156    17    18    1
   157    17    20    1
   158    22    21    1
   159   170   172   ar
   160   112   109    1
   161   131   129    1
   162   152   150   ar
   163   160   159    1
   164   160   162   ar
   165   109   110    1
   166   159   158    1
   167    20    21    1
   168   216   215   ar
   169   148   150   ar
   170   148   147    1
   171   213   215   ar
   172   135   134    2
   173    21    23    1
   174   110   111    2
   175   110   113   am
   176   130   129    1
   177   117   118    1
   178   117   114    1
   179   129   126    1
   180   119   118   ar
   181   119   121   ar
   182   147   144    1
   183   154   155    1
   184   154   145   am
   185   118   120   ar
   186    30    29    1
   187   144   145    1
   188   144   143    1
   189   113   114    1
   190   121   123   ar
   191   158   155    1
   192   120   122   ar
   193   134   143   am
   194   134   133    1
   195   155   156    1
   196   139   141   ar
   197   139   137   ar
   198   123   122   ar
   199   123   124    1
   200   145   146    2
   201   114   115    1
   202   141   142   ar
   203   126   127    1
   204   126   125    1
   205   132   133    1
   206   132   127   am
   207    29    31    1
   208    29    28    1
   209   136   133    1
   210   136   137    1
   211   127   128    2
   212   137   138   ar
   213   156   157    2
   214   115   116    2
   215   142   140   ar
   216    28    25    1
   217   138   140   ar
   218    24    25    1
   219    25    26    1
   220    26    27    2
