@<TRIPOS>MOLECULE
tmp/6a2fB00.pdb
 91 86 0 0 0
SMALL
GASTEIGER

@<TRIPOS>ATOM
      1  N         12.3650   17.1380   -0.2360 N.3    37  TYR37      -0.1241
      2  CA        13.5350   17.4770    0.5770 C.3    37  TYR37       0.1605
      3  C         13.1360   18.2870    1.8090 C.2    37  TYR37       0.2264
      4  O         13.7950   19.2710    2.1550 O.2    37  TYR37      -0.2867
      5  CB        14.5770   18.2490   -0.2490 C.3    37  TYR37       0.0534
      6  CG        15.3070   17.4460   -1.3130 C.ar   37  TYR37      -0.0201
      7  CD1       14.6170   16.6180   -2.1980 C.ar   37  TYR37      -0.0009
      8  CD2       16.6930   17.5450   -1.4530 C.ar   37  TYR37      -0.0009
      9  CE1       15.2870   15.8990   -3.1730 C.ar   37  TYR37       0.0417
     10  CE2       17.3680   16.8320   -2.4310 C.ar   37  TYR37       0.0417
     11  CZ        16.6590   16.0120   -3.2840 C.ar   37  TYR37       0.1957
     12  OH        17.3210   15.3020   -4.2560 O.3    37  TYR37      -0.2866
     13  N         11.1310    8.6420   -4.7380 N.3    58  ALA58      -0.1245
     14  CA        11.8820    7.4920   -4.2360 C.3    58  ALA58       0.1562
     15  C         11.0450    6.2220   -4.0800 C.2    58  ALA58       0.2260
     16  O         11.5770    5.1140   -4.1360 O.2    58  ALA58      -0.2867
     17  CB        12.5640    7.8400   -2.9180 C.3    58  ALA58       0.0290
     18  N         12.4260    6.3670   -8.9970 N.3    78  LEU78      -0.1231
     19  CA        13.8920    6.3200   -9.0540 C.3    78  LEU78       0.1693
     20  C         14.5010    4.9760   -8.6450 C.2    78  LEU78       0.2591
     21  O         15.5170    4.5660   -9.1900 O.2    78  LEU78      -0.2718
     22  CB        14.5010    7.4540   -8.2270 C.3    78  LEU78       0.0284
     23  CG        14.3160    8.8820   -8.7530 C.3    78  LEU78       0.0019
     24  CD1       14.6240    9.8990   -7.6640 C.3    78  LEU78       0.0001
     25  CD2       15.1720    9.1470   -9.9870 C.3    78  LEU78       0.0001
     26  N         13.8650    4.2920   -7.6990 N.am   79  GLU79      -0.1979
     27  CA        14.3580    3.0040   -7.2140 C.3    79  GLU79       0.1602
     28  C         13.5100    1.8500   -7.7520 C.2    79  GLU79       0.2287
     29  O         13.7370    0.6820   -7.4040 O.2    79  GLU79      -0.2864
     30  CB        14.3810    2.9860   -5.6780 C.3    79  GLU79       0.0415
     31  CG        15.3270    4.0070   -5.0520 C.3    79  GLU79       0.1163
     32  CD        15.1970    4.1060   -3.5360 C.2    79  GLU79       0.3649
     33  OE1       15.0570    3.0550   -2.8720 O.co2  79  GLU79      -0.2457
     34  OE2       15.2440    5.2350   -3.0000 O.co2  79  GLU79      -0.2457
     35  N         29.0190    3.8380   -8.9180 N.3   127  MET127     -0.1245
     36  CA        28.4610    4.0550   -7.5830 C.3   127  MET127      0.1570
     37  C         28.4490    2.7480   -6.7860 C.2   127  MET127      0.2261
     38  O         28.6160    2.7530   -5.5650 O.2   127  MET127     -0.2867
     39  CB        27.0500    4.6320   -7.7090 C.3   127  MET127      0.0387
     40  CG        26.4520    5.1460   -6.4160 C.3   127  MET127      0.0595
     41  SD        26.7530    6.8890   -6.0700 S.3   127  MET127     -0.1393
     42  CE        25.4190    7.1670   -4.9060 C.3   127  MET127      0.0692
     43  N         26.0780    0.6040   -5.8860 N.3   129  ARG129     -0.1231
     44  CA        24.9540    0.2630   -5.0120 C.3   129  ARG129      0.1694
     45  C         23.8230   -0.3710   -5.8310 C.2   129  ARG129      0.2591
     46  O         23.6500   -1.5940   -5.8150 O.2   129  ARG129     -0.2718
     47  CB        24.4760    1.4890   -4.2280 C.3   129  ARG129      0.0321
     48  CG        24.8750    1.4830   -2.7530 C.3   129  ARG129      0.0489
     49  CD        25.2890    2.8590   -2.2360 C.3   129  ARG129      0.2205
     50  NE        24.4470    3.9460   -2.7360 N.pl3 129  ARG129     -0.0865
     51  CZ        23.7330    4.7820   -1.9820 C.cat 129  ARG129      0.5346
     52  NH1       23.7310    4.6890   -0.6520 N.pl3 129  ARG129      0.1354
     53  NH2       23.0170    5.7310   -2.5750 N.pl3 129  ARG129      0.1354
     54  N         23.0800    0.4560   -6.5650 N.am  130  LEU130     -0.1980
     55  CA        22.0140   -0.0190   -7.4490 C.3   130  LEU130      0.1596
     56  C         22.4850   -0.0680   -8.9000 C.2   130  LEU130      0.2287
     57  O         23.4850    0.5570   -9.2530 O.2   130  LEU130     -0.2864
     58  CB        20.7950    0.9000   -7.3510 C.3   130  LEU130      0.0297
     59  CG        20.2030    1.2760   -5.9900 C.3   130  LEU130      0.0022
     60  CD1       19.0880    2.2790   -6.2090 C.3   130  LEU130      0.0001
     61  CD2       19.6840    0.0510   -5.2480 C.3   130  LEU130      0.0001
     62  N         23.7770    7.3340  -12.4430 N.3   158  HIS158     -0.1241
     63  CA        23.9980    8.3910  -11.4530 C.3   158  HIS158      0.1621
     64  C         25.4870    8.6200  -11.1520 C.2   158  HIS158      0.2264
     65  O         26.2440    7.6600  -10.9900 O.2   158  HIS158     -0.2867
     66  CB        23.2370    8.0500  -10.1640 C.3   158  HIS158      0.0745
     67  CG        22.9690    9.2310   -9.2830 C.ar  158  HIS158      0.0817
     68  ND1       22.1810   10.2920   -9.6760 N.ar  158  HIS158     -0.2268
     69  CD2       23.3760    9.5140   -8.0220 C.ar  158  HIS158      0.1154
     70  CE1       22.1200   11.1800   -8.6990 C.ar  158  HIS158      0.1986
     71  NE2       22.8350   10.7320   -7.6840 N.ar  158  HIS158     -0.2212
     72  N         25.9680   17.9800    4.8080 N.3   339  LEU339     -0.1245
     73  CA        25.5160   18.7760    3.6560 C.3   339  LEU339      0.1561
     74  C         24.0820   19.2830    3.8170 C.2   339  LEU339      0.2260
     75  O         23.2870   18.7040    4.5600 O.2   339  LEU339     -0.2867
     76  CB        25.6570   17.9820    2.3500 C.3   339  LEU339      0.0270
     77  CG        27.0580   17.5030    1.9390 C.3   339  LEU339      0.0019
     78  CD1       26.9700   16.6070    0.7080 C.3   339  LEU339      0.0001
     79  CD2       28.0170   18.6670    1.7010 C.3   339  LEU339      0.0001
     80  N         21.5780   18.9360    2.0640 N.3   341  TYR341     -0.1241
     81  CA        20.6780   17.7930    1.8870 C.3   341  TYR341      0.1605
     82  C         20.0590   17.3650    3.2160 C.2   341  TYR341      0.2264
     83  O         18.8370   17.3000    3.3400 O.2   341  TYR341     -0.2867
     84  CB        21.4270   16.5810    1.3300 C.3   341  TYR341      0.0534
     85  CG        21.8970   16.6560   -0.1020 C.ar  341  TYR341     -0.0201
     86  CD1       21.0530   16.3090   -1.1550 C.ar  341  TYR341     -0.0009
     87  CD2       23.2120   17.0090   -0.4010 C.ar  341  TYR341     -0.0009
     88  CE1       21.4950   16.3480   -2.4680 C.ar  341  TYR341      0.0417
     89  CE2       23.6650   17.0540   -1.7110 C.ar  341  TYR341      0.0417
     90  CZ        22.8040   16.7230   -2.7410 C.ar  341  TYR341      0.1957
     91  OH        23.2620   16.7670   -4.0390 O.3   341  TYR341     -0.2866
@<TRIPOS>BOND
     1    62    63    1
     2    63    64    1
     3    63    66    1
     4    64    65    2
     5    66    67    1
     6    25    23    1
     7    68    67   ar
     8    68    70   ar
     9    67    69   ar
    10    57    56    2
    11    21    20    2
    12    19    18    1
    13    19    20    1
    14    19    22    1
    15    35    36    1
    16    56    55    1
    17    23    22    1
    18    23    24    1
    19    70    71   ar
    20    20    26   am
    21    69    71   ar
    22    28    29    2
    23    28    27    1
    24    39    36    1
    25    39    40    1
    26    26    27    1
    27    36    37    1
    28    55    58    1
    29    55    54    1
    30    58    59    1
    31    27    30    1
    32    37    38    2
    33    54    45   am
    34    40    41    1
    35    60    59    1
    36    41    42    1
    37    59    61    1
    38    43    44    1
    39    45    46    2
    40    45    44    1
    41    30    31    1
    42    31    32    1
    43    44    47    1
    44    13    14    1
    45    12    11    1
    46    14    15    1
    47    14    17    1
    48    47    48    1
    49    16    15    2
    50    91    90    1
    51    32    34   ar
    52    32    33   ar
    53    11     9   ar
    54    11    10   ar
    55     9     7   ar
    56    48    49    1
    57    90    88   ar
    58    90    89   ar
    59    50    49    1
    60    50    51    2
    61    53    51    1
    62    88    86   ar
    63    10     8   ar
    64     7     6   ar
    65    51    52    1
    66    89    87   ar
    67     8     6   ar
    68     6     5    1
    69    86    85   ar
    70    87    85   ar
    71     5     2    1
    72     1     2    1
    73    85    84    1
    74     2     3    1
    75    78    77    1
    76    84    81    1
    77    79    77    1
    78     3     4    2
    79    81    80    1
    80    81    82    1
    81    77    76    1
    82    76    73    1
    83    82    83    2
    84    73    74    1
    85    73    72    1
    86    74    75    2
