@<TRIPOS>MOLECULE
tmp/6a2jA01.pdb
 87 80 0 0 0
SMALL
GASTEIGER

@<TRIPOS>ATOM
      1  N         15.5900   -5.6690  -12.4860 N.3    97  PHE97      -0.1241
      2  CA        14.5660   -5.7410  -11.4490 C.3    97  PHE97       0.1605
      3  C         15.0170   -6.7020  -10.3430 C.2    97  PHE97       0.2264
      4  O         14.8270   -6.4340   -9.1540 O.2    97  PHE97      -0.2867
      5  CB        13.2360   -6.1940  -12.0680 C.3    97  PHE97       0.0534
      6  CG        12.1980   -6.6300  -11.0630 C.ar   97  PHE97      -0.0203
      7  CD1       12.2030   -7.9270  -10.5520 C.ar   97  PHE97      -0.0042
      8  CD2       11.2130   -5.7470  -10.6340 C.ar   97  PHE97      -0.0042
      9  CE1       11.2380   -8.3420   -9.6230 C.ar   97  PHE97      -0.0003
     10  CE2       10.2380   -6.1500   -9.7020 C.ar   97  PHE97      -0.0003
     11  CZ        10.2550   -7.4540   -9.1970 C.ar   97  PHE97      -0.0000
     12  N         15.8200   -5.9830   -6.5500 N.3   101  MET101     -0.1245
     13  CA        15.0600   -6.7270   -5.5490 C.3   101  MET101      0.1570
     14  C         16.0070   -7.4010   -4.5490 C.2   101  MET101      0.2261
     15  O         15.7550   -7.3990   -3.3440 O.2   101  MET101     -0.2867
     16  CB        14.1880   -7.7930   -6.2260 C.3   101  MET101      0.0387
     17  CG        12.8960   -7.2730   -6.8370 C.3   101  MET101      0.0595
     18  SD        11.6840   -6.8350   -5.5800 S.3   101  MET101     -0.1393
     19  CE        10.9300   -8.4260   -5.2670 C.3   101  MET101      0.0692
     20  N         15.7760   -6.2520   -0.5240 N.3   105  PHE105     -0.1241
     21  CA        15.3570   -7.1940    0.4910 C.3   105  PHE105      0.1605
     22  C         16.4730   -7.6710    1.3960 C.2   105  PHE105      0.2264
     23  O         16.2190   -8.0330    2.5510 O.2   105  PHE105     -0.2867
     24  CB        14.5920   -8.3560   -0.1420 C.3   105  PHE105      0.0534
     25  CG        13.1910   -7.9900   -0.5160 C.ar  105  PHE105     -0.0203
     26  CD1       12.9370   -7.2330   -1.6600 C.ar  105  PHE105     -0.0042
     27  CD2       12.1330   -8.3030    0.3300 C.ar  105  PHE105     -0.0042
     28  CE1       11.6510   -6.7850   -1.9550 C.ar  105  PHE105     -0.0003
     29  CE2       10.8310   -7.8590    0.0460 C.ar  105  PHE105     -0.0003
     30  CZ        10.5940   -7.0970   -1.1000 C.ar  105  PHE105     -0.0000
     31  N         16.3490   -4.9850    3.7990 N.3   108  LEU108     -0.1245
     32  CA        15.1590   -5.0150    4.6290 C.3   108  LEU108      0.1561
     33  C         15.2530   -6.0700    5.7240 C.2   108  LEU108      0.2260
     34  O         14.8760   -5.8120    6.8660 O.2   108  LEU108     -0.2867
     35  CB        13.9160   -5.2860    3.7920 C.3   108  LEU108      0.0270
     36  CG        13.3580   -4.1450    2.9500 C.3   108  LEU108      0.0019
     37  CD1       12.0970   -4.6430    2.2450 C.3   108  LEU108      0.0001
     38  CD2       13.0460   -2.9400    3.8350 C.3   108  LEU108      0.0001
     39  N          7.1490  -10.7730    9.9560 N.3   128  LEU128     -0.1245
     40  CA         7.3860  -10.2610    8.6070 C.3   128  LEU128      0.1561
     41  C          8.7830  -10.6430    8.1140 C.2   128  LEU128      0.2260
     42  O          9.0290  -10.7050    6.9030 O.2   128  LEU128     -0.2867
     43  CB         7.2610   -8.7280    8.5820 C.3   128  LEU128      0.0270
     44  CG         5.8950   -8.0600    8.8080 C.3   128  LEU128      0.0019
     45  CD1        6.0800   -6.5430    8.9720 C.3   128  LEU128      0.0001
     46  CD2        4.9660   -8.3730    7.6390 C.3   128  LEU128      0.0001
     47  N         10.4260  -11.7330    4.1810 N.3   132  ILE132     -0.1245
     48  CA        11.3630  -10.7900    3.5960 C.3   132  ILE132      0.1561
     49  C         12.6560  -11.5380    3.2740 C.2   132  ILE132      0.2260
     50  O         13.2140  -11.3970    2.1860 O.2   132  ILE132     -0.2867
     51  CB        11.6190   -9.6250    4.5730 C.3   132  ILE132      0.0252
     52  CG1       10.3730   -8.7300    4.6080 C.3   132  ILE132      0.0019
     53  CG2       12.8590   -8.8360    4.1650 C.3   132  ILE132      0.0019
     54  CD1       10.2130   -7.9370    5.8860 C.3   132  ILE132      0.0001
     55  N         12.2170  -13.6660    0.1940 N.3   135  ILE135     -0.1245
     56  CA        12.2610  -12.9530   -1.0830 C.3   135  ILE135      0.1561
     57  C         13.7010  -12.5490   -1.4100 C.2   135  ILE135      0.2260
     58  O         14.0990  -12.4890   -2.5690 O.2   135  ILE135     -0.2867
     59  CB        11.3520  -11.6930   -1.0380 C.3   135  ILE135      0.0252
     60  CG1        9.8770  -12.1190   -1.0550 C.3   135  ILE135      0.0019
     61  CG2       11.6930  -10.7620   -2.1780 C.3   135  ILE135      0.0019
     62  CD1        8.9120  -11.0140   -0.6420 C.3   135  ILE135      0.0001
     63  N          2.7870  -16.7260    0.3250 N.3   179  TYR179     -0.1241
     64  CA         3.4320  -15.6880    1.1160 C.3   179  TYR179      0.1605
     65  C          2.5970  -15.4210    2.3820 C.2   179  TYR179      0.2264
     66  O          3.1420  -15.2070    3.4740 O.2   179  TYR179     -0.2867
     67  CB         3.5770  -14.4020    0.2940 C.3   179  TYR179      0.0534
     68  CG         4.6090  -13.4580    0.8720 C.ar  179  TYR179     -0.0201
     69  CD1        5.9760  -13.7720    0.8090 C.ar  179  TYR179     -0.0009
     70  CD2        4.2260  -12.2950    1.5530 C.ar  179  TYR179     -0.0009
     71  CE1        6.9330  -12.9570    1.4140 C.ar  179  TYR179      0.0417
     72  CE2        5.1780  -11.4720    2.1640 C.ar  179  TYR179      0.0417
     73  CZ         6.5330  -11.8120    2.0920 C.ar  179  TYR179      0.1957
     74  OH         7.4890  -11.0220    2.7050 O.3   179  TYR179     -0.2866
     75  N          6.6620  -17.0020  -11.9370 N.3   299  LEU299     -0.1245
     76  CA         6.3800  -15.5690  -12.0850 C.3   299  LEU299      0.1561
     77  C          7.2540  -14.9500  -13.1880 C.2   299  LEU299      0.2260
     78  O          6.7870  -14.1120  -13.9550 O.2   299  LEU299     -0.2867
     79  CB         6.5970  -14.8240  -10.7600 C.3   299  LEU299      0.0270
     80  CG         6.2930  -13.3200  -10.8240 C.3   299  LEU299      0.0019
     81  CD1        4.7890  -13.0990  -11.0210 C.3   299  LEU299      0.0001
     82  CD2        6.7580  -12.6420   -9.5530 C.3   299  LEU299      0.0001
     83  N          6.0340  -12.9720  -16.4250 N.3   303  ALA303     -0.1245
     84  CA         6.5550  -11.6320  -16.7020 C.3   303  ALA303      0.1562
     85  C          7.0940  -11.5370  -18.1260 C.2   303  ALA303      0.2260
     86  O          6.8690  -10.5330  -18.8120 O.2   303  ALA303     -0.2867
     87  CB         7.6480  -11.2630  -15.7010 C.3   303  ALA303      0.0290
@<TRIPOS>BOND
     1    86    85    2
     2    85    84    1
     3    84    83    1
     4    84    87    1
     5    78    77    2
     6    77    76    1
     7     1     2    1
     8    76    75    1
     9    76    79    1
    10     5     2    1
    11     5     6    1
    12     2     3    1
    13     6     8   ar
    14     6     7   ar
    15    81    80    1
    16    80    79    1
    17    80    82    1
    18     8    10   ar
    19     7     9   ar
    20     3     4    2
    21    10    11   ar
    22     9    11   ar
    23    17    16    1
    24    17    18    1
    25    12    13    1
    26    16    13    1
    27    18    19    1
    28    13    14    1
    29    14    15    2
    30    58    57    2
    31    61    59    1
    32    28    26   ar
    33    28    30   ar
    34    26    25   ar
    35    57    56    1
    36    30    29   ar
    37    56    59    1
    38    56    55    1
    39    60    59    1
    40    60    62    1
    41    20    21    1
    42    25    24    1
    43    25    27   ar
    44    24    21    1
    45    29    27   ar
    46    67    68    1
    47    67    64    1
    48    63    64    1
    49    21    22    1
    50    69    68   ar
    51    69    71   ar
    52    68    70   ar
    53    64    65    1
    54    22    23    2
    55    71    73   ar
    56    70    72   ar
    57    73    72   ar
    58    73    74    1
    59    50    49    2
    60    37    36    1
    61    65    66    2
    62    36    35    1
    63    36    38    1
    64    49    48    1
    65    48    47    1
    66    48    51    1
    67    35    32    1
    68    31    32    1
    69    53    51    1
    70    51    52    1
    71    52    54    1
    72    32    33    1
    73    33    34    2
    74    42    41    2
    75    46    44    1
    76    41    40    1
    77    43    40    1
    78    43    44    1
    79    40    39    1
    80    44    45    1
