@<TRIPOS>MOLECULE
tmp/6a2jA17.pdb
 97 90 0 0 0
SMALL
GASTEIGER

@<TRIPOS>ATOM
      1  N         -2.3370  -26.2170    0.2260 N.3   230  PHE230     -0.1241
      2  CA        -2.1270  -27.5980   -0.2120 C.3   230  PHE230      0.1605
      3  C         -3.1570  -27.9770   -1.2850 C.2   230  PHE230      0.2264
      4  O         -2.8070  -28.4840   -2.3510 O.2   230  PHE230     -0.2867
      5  CB        -2.2560  -28.5420    0.9920 C.3   230  PHE230      0.0534
      6  CG        -2.0340  -29.9930    0.6650 C.ar  230  PHE230     -0.0203
      7  CD1       -0.7630  -30.4710    0.3660 C.ar  230  PHE230     -0.0042
      8  CD2       -3.1040  -30.8880    0.6520 C.ar  230  PHE230     -0.0042
      9  CE1       -0.5550  -31.8170    0.0570 C.ar  230  PHE230     -0.0003
     10  CE2       -2.9080  -32.2360    0.3440 C.ar  230  PHE230     -0.0003
     11  CZ        -1.6290  -32.7000    0.0460 C.ar  230  PHE230     -0.0000
     12  N         -2.7990  -28.7020   -5.4150 N.3   234  ILE234     -0.1245
     13  CA        -3.2430  -29.9510   -6.0360 C.3   234  ILE234      0.1561
     14  C         -4.0700  -29.6520   -7.2950 C.2   234  ILE234      0.2260
     15  O         -3.9120  -30.3220   -8.3210 O.2   234  ILE234     -0.2867
     16  CB        -4.1090  -30.8060   -5.0840 C.3   234  ILE234      0.0252
     17  CG1       -3.2350  -31.4340   -3.9960 C.3   234  ILE234      0.0019
     18  CG2       -4.8220  -31.8960   -5.8790 C.3   234  ILE234      0.0019
     19  CD1       -4.0380  -32.1020   -2.8810 C.3   234  ILE234      0.0001
     20  N         -1.7030  -28.3280   -9.9500 N.3   237  ALA237     -0.1231
     21  CA        -0.9020  -29.4180  -10.5110 C.3   237  ALA237      0.1694
     22  C         -1.7320  -30.2690  -11.4850 C.2   237  ALA237      0.2591
     23  O         -1.2300  -30.7120  -12.5200 O.2   237  ALA237     -0.2718
     24  CB        -0.3500  -30.2970   -9.3870 C.3   237  ALA237      0.0304
     25  N         -2.9980  -30.4970  -11.1430 N.am  238  VAL238     -0.1980
     26  CA        -3.8980  -31.2750  -11.9900 C.3   238  VAL238      0.1595
     27  C         -4.1560  -30.5670  -13.3260 C.2   238  VAL238      0.2287
     28  O         -4.2620  -31.2080  -14.3630 O.2   238  VAL238     -0.2864
     29  CB        -5.2420  -31.5310  -11.2670 C.3   238  VAL238      0.0276
     30  CG1       -6.3030  -32.0140  -12.2680 C.3   238  VAL238      0.0022
     31  CG2       -5.0400  -32.5800  -10.1690 C.3   238  VAL238      0.0022
     32  N         -0.9670  -31.0400  -15.2970 N.3   241  ILE241     -0.1231
     33  CA        -0.8590  -32.4310  -15.7450 C.3   241  ILE241      0.1692
     34  C         -1.8100  -32.7080  -16.9160 C.2   241  ILE241      0.2592
     35  O         -1.5380  -33.5450  -17.7740 O.2   241  ILE241     -0.2718
     36  CB        -1.1980  -33.4110  -14.5870 C.3   241  ILE241      0.0266
     37  CG1       -0.1130  -33.3370  -13.5080 C.3   241  ILE241      0.0019
     38  CG2       -1.3310  -34.8340  -15.1170 C.3   241  ILE241      0.0020
     39  CD1       -0.4620  -34.0540  -12.2200 C.3   241  ILE241      0.0001
     40  N         -2.9190  -31.9840  -16.9510 N.am  242  THR242     -0.1953
     41  CA        -3.9090  -32.1700  -17.9940 C.3   242  THR242      0.1897
     42  C         -3.7040  -31.2930  -19.2260 C.2   242  THR242      0.2313
     43  O         -3.7140  -31.7880  -20.3530 O.2   242  THR242     -0.2863
     44  CB        -5.3310  -31.9050  -17.4410 C.3   242  THR242      0.1794
     45  OG1       -5.3990  -30.5730  -16.9100 O.3   242  THR242     -0.2208
     46  CG2       -5.6700  -32.9000  -16.3370 C.3   242  THR242      0.0378
     47  N          0.9280  -30.7920  -20.4130 N.3   245  LYS245     -0.1245
     48  CA         1.7900  -31.9550  -20.5440 C.3   245  LYS245      0.1561
     49  C          2.8380  -31.7170  -21.6420 C.2   245  LYS245      0.2260
     50  O          3.9130  -32.3110  -21.6170 O.2   245  LYS245     -0.2867
     51  CB         0.9470  -33.1880  -20.8720 C.3   245  LYS245      0.0271
     52  CG         1.6290  -34.5040  -20.5500 C.3   245  LYS245      0.0035
     53  CD         0.8690  -35.6910  -21.1350 C.3   245  LYS245      0.0206
     54  CE        -0.5780  -35.7610  -20.6460 C.3   245  LYS245      0.1093
     55  NZ        -1.2880  -36.9560  -21.2170 N.3   245  LYS245     -0.1314
     56  N          4.7460  -28.5690  -16.4160 N.3   251  PHE251     -0.1241
     57  CA         4.3210  -29.8980  -15.9790 C.3   251  PHE251      0.1605
     58  C          5.1470  -30.3490  -14.7560 C.2   251  PHE251      0.2264
     59  O          4.5990  -30.6250  -13.6890 O.2   251  PHE251     -0.2867
     60  CB         4.5110  -30.8870  -17.1380 C.3   251  PHE251      0.0534
     61  CG         4.0800  -32.2920  -16.8250 C.ar  251  PHE251     -0.0203
     62  CD1        2.7590  -32.6790  -16.9870 C.ar  251  PHE251     -0.0042
     63  CD2        5.0000  -33.2290  -16.3710 C.ar  251  PHE251     -0.0042
     64  CE1        2.3590  -33.9820  -16.7030 C.ar  251  PHE251     -0.0003
     65  CE2        4.6100  -34.5280  -16.0830 C.ar  251  PHE251     -0.0003
     66  CZ         3.2840  -34.9050  -16.2520 C.ar  251  PHE251     -0.0000
     67  N          4.7130  -30.4750  -10.4010 N.3   255  ILE255     -0.1245
     68  CA         4.8400  -31.7460   -9.7060 C.3   255  ILE255      0.1561
     69  C          5.8280  -31.5340   -8.5680 C.2   255  ILE255      0.2260
     70  O          5.6120  -32.0180   -7.4570 O.2   255  ILE255     -0.2867
     71  CB         5.3360  -32.8620  -10.6540 C.3   255  ILE255      0.0252
     72  CG1        4.1680  -33.3400  -11.5270 C.3   255  ILE255      0.0019
     73  CG2        5.9370  -34.0180   -9.8560 C.3   255  ILE255      0.0019
     74  CD1        4.5660  -34.3590  -12.5920 C.3   255  ILE255      0.0001
     75  N          4.1210  -29.8050   -5.8830 N.3   258  LEU258     -0.1231
     76  CA         3.2840  -30.7440   -5.1530 C.3   258  LEU258      0.1693
     77  C          4.1140  -31.5030   -4.1290 C.2   258  LEU258      0.2591
     78  O          3.6740  -31.7430   -3.0020 O.2   258  LEU258     -0.2718
     79  CB         2.6350  -31.7340   -6.1170 C.3   258  LEU258      0.0284
     80  CG         1.6220  -32.6760   -5.4630 C.3   258  LEU258      0.0019
     81  CD1        0.5240  -31.8530   -4.7680 C.3   258  LEU258      0.0001
     82  CD2        1.0240  -33.5830   -6.5220 C.3   258  LEU258      0.0001
     83  N          5.3220  -31.8840   -4.5310 N.am  259  ILE259     -0.1980
     84  CA         6.2060  -32.6140   -3.6450 C.3   259  ILE259      0.1595
     85  C          6.7370  -31.7290   -2.5190 C.2   259  ILE259      0.2287
     86  O          6.8430  -32.1760   -1.3740 O.2   259  ILE259     -0.2864
     87  CB         7.3680  -33.2370   -4.4320 C.3   259  ILE259      0.0276
     88  CG1        6.8120  -34.3230   -5.3590 C.3   259  ILE259      0.0022
     89  CG2        8.4040  -33.8170   -3.4790 C.3   259  ILE259      0.0022
     90  CD1        7.8530  -34.9580   -6.2590 C.3   259  ILE259      0.0001
     91  N          4.0470  -31.1470    0.0840 N.3   262  THR262     -0.1218
     92  CA         3.8530  -32.3480    0.8850 C.3   262  THR262      0.1862
     93  C          4.9180  -32.4300    1.9750 C.2   262  THR262      0.2287
     94  O          4.6080  -32.6840    3.1340 O.2   262  THR262     -0.2866
     95  CB         3.9090  -33.6050   -0.0080 C.3   262  THR262      0.1770
     96  OG1        2.8330  -33.5500   -0.9540 O.3   262  THR262     -0.2211
     97  CG2        3.7900  -34.8760    0.8260 C.3   262  THR262      0.0375
@<TRIPOS>BOND
     1    49    50    2
     2    49    48    1
     3    55    54    1
     4    53    54    1
     5    53    52    1
     6    51    52    1
     7    51    48    1
     8    48    47    1
     9    43    42    2
    10    42    41    1
    11    41    44    1
    12    41    40    1
    13    35    34    2
    14    44    45    1
    15    44    46    1
    16    60    61    1
    17    60    57    1
    18    62    61   ar
    19    62    64   ar
    20    40    34   am
    21    34    33    1
    22    61    63   ar
    23    64    66   ar
    24    56    57    1
    25    63    65   ar
    26    66    65   ar
    27    57    58    1
    28    33    32    1
    29    33    36    1
    30    38    36    1
    31    58    59    2
    32    36    37    1
    33    28    27    2
    34    37    39    1
    35    27    26    1
    36    74    72    1
    37    23    22    2
    38    30    29    1
    39    26    29    1
    40    26    25    1
    41    72    71    1
    42    22    25   am
    43    22    21    1
    44    29    31    1
    45    71    73    1
    46    71    68    1
    47    21    20    1
    48    21    24    1
    49    67    68    1
    50    68    69    1
    51    69    70    2
    52    15    14    2
    53    14    13    1
    54    82    80    1
    55    90    88    1
    56    79    80    1
    57    79    76    1
    58    13    12    1
    59    13    16    1
    60    75    76    1
    61    18    16    1
    62    80    81    1
    63    88    87    1
    64    76    77    1
    65    16    17    1
    66    83    77   am
    67    83    84    1
    68    87    84    1
    69    87    89    1
    70    77    78    2
    71    17    19    1
    72    84    85    1
    73    85    86    2
    74     4     3    2
    75     3     2    1
    76    96    95    1
    77     2     1    1
    78     2     5    1
    79    95    97    1
    80    95    92    1
    81    11     9   ar
    82    11    10   ar
    83     9     7   ar
    84    91    92    1
    85    10     8   ar
    86     7     6   ar
    87     8     6   ar
    88     6     5    1
    89    92    93    1
    90    93    94    2
