@<TRIPOS>MOLECULE
tmp/6a2jA16.pdb
 84 80 0 0 0
SMALL
GASTEIGER

@<TRIPOS>ATOM
      1  N         34.4040  -25.5960  -23.3200 N.3     1  HIS1       -0.1226
      2  CA        33.0180  -25.1720  -23.6530 C.3     1  HIS1        0.1752
      3  C         32.9390  -23.8280  -24.3810 C.2     1  HIS1        0.2595
      4  O         32.6180  -23.7760  -25.5810 O.2     1  HIS1       -0.2718
      5  CB        32.1690  -25.1250  -22.3800 C.3     1  HIS1        0.0759
      6  CG        32.8680  -24.5280  -21.2060 C.ar    1  HIS1        0.0818
      7  ND1       33.2980  -23.2150  -21.1740 N.ar    1  HIS1       -0.2268
      8  CD2       33.2100  -25.0510  -19.9930 C.ar    1  HIS1        0.1154
      9  CE1       33.8640  -22.9580  -20.0090 C.ar    1  HIS1        0.1986
     10  NE2       33.8210  -24.0610  -19.2770 N.ar    1  HIS1       -0.2212
     11  N         33.1850  -22.7340  -23.6620 N.am    2  MET2       -0.1979
     12  CA        33.1280  -21.4150  -24.3010 C.3     2  MET2        0.1605
     13  C         34.5080  -20.7280  -24.2050 C.2     2  MET2        0.2287
     14  O         35.1050  -20.6400  -23.1380 O.2     2  MET2       -0.2864
     15  CB        31.9930  -20.5720  -23.6900 C.3     2  MET2        0.0413
     16  CG        30.9020  -21.3990  -23.0100 C.3     2  MET2        0.0598
     17  SD        29.2070  -21.2670  -23.7530 S.3     2  MET2       -0.1393
     18  CE        29.2010  -22.5270  -24.9740 C.3     2  MET2        0.0692
     19  N         32.6460  -17.9500  -15.9110 N.3     9  LYS9       -0.1245
     20  CA        32.1940  -19.0500  -15.0680 C.3     9  LYS9        0.1561
     21  C         32.3150  -18.7120  -13.5810 C.2     9  LYS9        0.2260
     22  O         31.7710  -19.4200  -12.7280 O.2     9  LYS9       -0.2867
     23  CB        32.9760  -20.3260  -15.3960 C.3     9  LYS9        0.0271
     24  CG        34.4820  -20.1890  -15.3330 C.3     9  LYS9        0.0035
     25  CD        35.1670  -21.4460  -15.8680 C.3     9  LYS9        0.0206
     26  CE        36.6930  -21.3320  -15.8040 C.3     9  LYS9        0.1093
     27  NZ        37.3910  -22.5270  -16.3740 N.3     9  LYS9       -0.1314
     28  N         29.0450  -17.3530  -12.4680 N.3    12  LYS12      -0.1231
     29  CA        28.1220  -18.4490  -12.2190 C.3    12  LYS12       0.1693
     30  C         28.3950  -19.0450  -10.8460 C.2    12  LYS12       0.2591
     31  O         27.4660  -19.4280  -10.1300 O.2    12  LYS12      -0.2718
     32  CB        28.2780  -19.5220  -13.2860 C.3    12  LYS12       0.0285
     33  CG        28.0250  -19.0100  -14.6740 C.3    12  LYS12       0.0035
     34  CD        28.1840  -20.1230  -15.6820 C.3    12  LYS12       0.0206
     35  CE        28.0720  -19.5980  -17.0950 C.3    12  LYS12       0.1093
     36  NZ        28.2770  -20.7120  -18.0540 N.3    12  LYS12      -0.1314
     37  N         29.6760  -19.1170  -10.4880 N.am   13  ALA13      -0.1980
     38  CA        30.0960  -19.6510   -9.1940 C.3    13  ALA13       0.1597
     39  C         29.6130  -18.7220   -8.0800 C.2    13  ALA13       0.2287
     40  O         29.1310  -19.1830   -7.0400 O.2    13  ALA13      -0.2864
     41  CB        31.6220  -19.7810   -9.1460 C.3    13  ALA13       0.0319
     42  N         25.9110  -19.1850   -7.5930 N.3    16  VAL16      -0.1231
     43  CA        25.6220  -20.3890   -6.8190 C.3    16  VAL16       0.1692
     44  C         25.9580  -20.1660   -5.3430 C.2    16  VAL16       0.2591
     45  O         25.1650  -20.5000   -4.4610 O.2    16  VAL16      -0.2718
     46  CB        26.4310  -21.6200   -7.3480 C.3    16  VAL16       0.0266
     47  CG1       26.2030  -22.8290   -6.4480 C.3    16  VAL16       0.0020
     48  CG2       26.0050  -21.9580   -8.7840 C.3    16  VAL16       0.0020
     49  N         27.1350  -19.5970   -5.0830 N.am   17  LEU17      -0.1980
     50  CA        27.5810  -19.3290   -3.7170 C.3    17  LEU17       0.1596
     51  C         26.6190  -18.4030   -2.9690 C.2    17  LEU17       0.2287
     52  O         26.1870  -18.7080   -1.8500 O.2    17  LEU17      -0.2864
     53  CB        28.9860  -18.7110   -3.7310 C.3    17  LEU17       0.0297
     54  CG        29.4980  -18.2120   -2.3750 C.3    17  LEU17       0.0022
     55  CD1       29.5590  -19.3870   -1.4010 C.3    17  LEU17       0.0001
     56  CD2       30.8770  -17.5540   -2.5260 C.3    17  LEU17       0.0001
     57  N         22.9030  -18.4330  -15.6590 N.3   148  PHE148     -0.1241
     58  CA        23.2110  -19.6630  -16.3660 C.3   148  PHE148      0.1605
     59  C         22.5350  -19.7150  -17.7390 C.2   148  PHE148      0.2264
     60  O         23.1660  -20.0670  -18.7430 O.2   148  PHE148     -0.2867
     61  CB        22.7780  -20.8730  -15.5460 C.3   148  PHE148      0.0534
     62  CG        23.7290  -21.2350  -14.4480 C.ar  148  PHE148     -0.0203
     63  CD1       23.7250  -20.5380  -13.2450 C.ar  148  PHE148     -0.0042
     64  CD2       24.6170  -22.2910  -14.6060 C.ar  148  PHE148     -0.0042
     65  CE1       24.5890  -20.8930  -12.2170 C.ar  148  PHE148     -0.0003
     66  CE2       25.4860  -22.6510  -13.5770 C.ar  148  PHE148     -0.0003
     67  CZ        25.4710  -21.9520  -12.3830 C.ar  148  PHE148     -0.0000
     68  N         24.0420  -18.0090  -20.7780 N.3   151  ASP151     -0.1225
     69  CA        25.1640  -18.6360  -21.4610 C.3   151  ASP151      0.1805
     70  C         24.7890  -19.8960  -22.2420 C.2   151  ASP151      0.2597
     71  O         25.6440  -20.7330  -22.5420 O.2   151  ASP151     -0.2718
     72  CB        26.2550  -18.9470  -20.4380 C.3   151  ASP151      0.1424
     73  CG        27.6040  -19.1030  -21.0700 C.2   151  ASP151      0.3668
     74  OD1       27.9000  -18.3280  -22.0070 O.co2 151  ASP151     -0.2456
     75  OD2       28.3690  -19.9860  -20.6290 O.co2 151  ASP151     -0.2456
     76  N         23.5060  -20.0290  -22.5680 N.am  152  LYS152     -0.1979
     77  CA        23.0260  -21.1770  -23.3300 C.3   152  LYS152      0.1596
     78  C         22.1760  -20.7340  -24.5170 C.2   152  LYS152      0.2287
     79  O         21.3810  -19.7910  -24.4020 O.2   152  LYS152     -0.2864
     80  CB        22.1980  -22.0970  -22.4390 C.3   152  LYS152      0.0298
     81  CG        22.9600  -22.6490  -21.2700 C.3   152  LYS152      0.0038
     82  CD        22.1440  -23.6620  -20.5110 C.3   152  LYS152      0.0206
     83  CE        22.9880  -24.2980  -19.4240 C.3   152  LYS152      0.1093
     84  NZ        22.2600  -25.4080  -18.7270 N.3   152  LYS152     -0.1314
@<TRIPOS>BOND
     1     4     3    2
     2    18    17    1
     3    78    79    2
     4    78    77    1
     5     3    11   am
     6     3     2    1
     7    12    13    1
     8    12    15    1
     9    12    11    1
    10    13    14    2
    11    17    16    1
    12    15    16    1
    13     2     1    1
    14     2     5    1
    15    77    76    1
    16    77    80    1
    17    76    70   am
    18    71    70    2
    19    80    81    1
    20     5     6    1
    21    70    69    1
    22    74    73   ar
    23    69    68    1
    24    69    72    1
    25    81    82    1
    26     6     7   ar
    27     6     8   ar
    28     7     9   ar
    29    73    75   ar
    30    73    72    1
    31    82    83    1
    32     9    10   ar
    33     8    10   ar
    34    83    84    1
    35    60    59    2
    36    36    35    1
    37    59    58    1
    38    35    34    1
    39    27    26    1
    40    58    57    1
    41    58    61    1
    42    19    20    1
    43    25    26    1
    44    25    24    1
    45    34    33    1
    46    61    62    1
    47    23    24    1
    48    23    20    1
    49    20    21    1
    50    33    32    1
    51    64    62   ar
    52    64    66   ar
    53    62    63   ar
    54    21    22    2
    55    66    67   ar
    56    32    29    1
    57    63    65   ar
    58    28    29    1
    59    67    65   ar
    60    29    30    1
    61    30    37   am
    62    30    31    2
    63    37    38    1
    64    38    41    1
    65    38    39    1
    66    48    46    1
    67    39    40    2
    68    42    43    1
    69    46    43    1
    70    46    47    1
    71    43    44    1
    72    44    49   am
    73    44    45    2
    74    49    50    1
    75    53    50    1
    76    53    54    1
    77    50    51    1
    78    51    52    2
    79    56    54    1
    80    54    55    1
