@<TRIPOS>MOLECULE
tmp/6a2jA02.pdb
 109 105 0 0 0
SMALL
GASTEIGER

@<TRIPOS>ATOM
      1  N         23.4840  -17.6510   -3.7370 N.3    19  THR19      -0.1203
      2  CA        22.1640  -18.2470   -3.5810 C.3    19  THR19       0.1994
      3  C         22.2100  -19.1290   -2.3420 C.2    19  THR19       0.2617
      4  O         21.3210  -19.0660   -1.4920 O.2    19  THR19      -0.2717
      5  CB        21.7600  -19.0790   -4.8220 C.3    19  THR19       0.1784
      6  OG1       21.6950  -18.2220   -5.9670 O.3    19  THR19      -0.2211
      7  CG2       20.3860  -19.7090   -4.6240 C.3    19  THR19       0.0376
      8  N         23.2700  -19.9290   -2.2460 N.am   20  PHE20      -0.1975
      9  CA        23.4930  -20.8360   -1.1240 C.3    20  PHE20       0.1639
     10  C         23.6170  -20.1010    0.2190 C.2    20  PHE20       0.2290
     11  O         23.0430  -20.5280    1.2270 O.2    20  PHE20      -0.2864
     12  CB        24.7590  -21.6630   -1.3690 C.3    20  PHE20       0.0560
     13  CG        25.2070  -22.4420   -0.1710 C.ar   20  PHE20      -0.0200
     14  CD1       24.5130  -23.5720    0.2390 C.ar   20  PHE20      -0.0042
     15  CD2       26.2970  -22.0100    0.5840 C.ar   20  PHE20      -0.0042
     16  CE1       24.8980  -24.2680    1.3950 C.ar   20  PHE20      -0.0003
     17  CE2       26.6880  -22.6880    1.7310 C.ar   20  PHE20      -0.0003
     18  CZ        25.9870  -23.8210    2.1390 C.ar   20  PHE20      -0.0000
     19  N         20.3200  -18.8130    1.2510 N.3    23  LEU23      -0.1245
     20  CA        19.4410  -19.8820    1.6870 C.3    23  LEU23       0.1561
     21  C         19.7830  -20.2020    3.1490 C.2    23  LEU23       0.2260
     22  O         18.9010  -20.4680    3.9690 O.2    23  LEU23      -0.2867
     23  CB        19.6320  -21.1220    0.8140 C.3    23  LEU23       0.0270
     24  CG        18.7740  -22.3110    1.2610 C.3    23  LEU23       0.0019
     25  CD1       17.2910  -22.0480    0.9340 C.3    23  LEU23       0.0001
     26  CD2       19.2790  -23.5810    0.5800 C.3    23  LEU23       0.0001
     27  N         16.2670  -14.3150   -0.7260 N.3   137  PHE137     -0.1241
     28  CA        16.8550  -15.5410   -1.2740 C.3   137  PHE137      0.1605
     29  C         16.3430  -15.8650   -2.6850 C.2   137  PHE137      0.2264
     30  O         17.1130  -16.2110   -3.5760 O.2   137  PHE137     -0.2867
     31  CB        16.5610  -16.7300   -0.3460 C.3   137  PHE137      0.0534
     32  CG        16.5700  -18.0690   -1.0490 C.ar  137  PHE137     -0.0203
     33  CD1       17.7540  -18.5920   -1.5730 C.ar  137  PHE137     -0.0042
     34  CD2       15.3780  -18.7840   -1.2260 C.ar  137  PHE137     -0.0042
     35  CE1       17.7600  -19.8090   -2.2670 C.ar  137  PHE137     -0.0003
     36  CE2       15.3660  -19.9990   -1.9180 C.ar  137  PHE137     -0.0003
     37  CZ        16.5630  -20.5170   -2.4430 C.ar  137  PHE137     -0.0000
     38  N         18.2690  -16.3070   -6.2530 N.3   141  LEU141     -0.1245
     39  CA        18.1210  -17.6150   -6.8930 C.3   141  LEU141      0.1561
     40  C         17.7420  -17.4680   -8.3700 C.2   141  LEU141      0.2260
     41  O         18.3420  -18.1080   -9.2420 O.2   141  LEU141     -0.2867
     42  CB        17.0350  -18.4240   -6.1790 C.3   141  LEU141      0.0270
     43  CG        16.5210  -19.6980   -6.8630 C.3   141  LEU141      0.0019
     44  CD1       17.5340  -20.8350   -6.7070 C.3   141  LEU141      0.0001
     45  CD2       15.1850  -20.1050   -6.2480 C.3   141  LEU141      0.0001
     46  N          6.4690  -30.4130  -14.9140 N.3   252  TRP252     -0.1241
     47  CA         7.3370  -30.8410  -13.8210 C.3   252  TRP252      0.1605
     48  C          7.5030  -29.7800  -12.7440 C.2   252  TRP252      0.2264
     49  O          7.7460  -30.1000  -11.5760 O.2   252  TRP252     -0.2867
     50  CB         8.7100  -31.2630  -14.3520 C.3   252  TRP252      0.0550
     51  CG         8.6610  -32.5310  -15.1420 C.ar  252  TRP252      0.0003
     52  CD1        8.7810  -32.6590  -16.4970 C.ar  252  TRP252      0.0946
     53  CD2        8.4070  -33.8470  -14.6350 C.ar  252  TRP252      0.0152
     54  NE1        8.6100  -33.9740  -16.8660 N.ar  252  TRP252     -0.2442
     55  CE2        8.3800  -34.7260  -15.7440 C.ar  252  TRP252      0.0810
     56  CE3        8.1960  -34.3700  -13.3510 C.ar  252  TRP252      0.0012
     57  CZ2        8.1490  -36.1030  -15.6090 C.ar  252  TRP252      0.0191
     58  CZ3        7.9660  -35.7420  -13.2180 C.ar  252  TRP252      0.0001
     59  CH2        7.9440  -36.5900  -14.3430 C.ar  252  TRP252      0.0015
     60  N          6.9050  -30.7930   -8.8370 N.3   256  SER256     -0.1217
     61  CA         7.8850  -30.5210   -7.8020 C.3   256  SER256      0.1889
     62  C          7.1940  -29.7020   -6.7030 C.2   256  SER256      0.2288
     63  O          7.4050  -29.9490   -5.5140 O.2   256  SER256     -0.2866
     64  CB         9.1040  -29.7800   -8.3810 C.3   256  SER256      0.2089
     65  OG         8.9070  -28.3810   -8.4810 O.3   256  SER256     -0.2183
     66  N          7.0570  -30.4780   -2.8300 N.3   260  PHE260     -0.1241
     67  CA         7.5460  -29.5820   -1.7920 C.3   260  PHE260      0.1605
     68  C          6.4500  -29.2350   -0.7800 C.2   260  PHE260      0.2264
     69  O          6.7270  -29.1050    0.4130 O.2   260  PHE260     -0.2867
     70  CB         8.1180  -28.3000   -2.4040 C.3   260  PHE260      0.0534
     71  CG         9.3890  -28.5120   -3.1710 C.ar  260  PHE260     -0.0203
     72  CD1       10.4150  -29.2950   -2.6390 C.ar  260  PHE260     -0.0042
     73  CD2        9.5730  -27.9170   -4.4170 C.ar  260  PHE260     -0.0042
     74  CE1       11.6070  -29.4810   -3.3370 C.ar  260  PHE260     -0.0003
     75  CE2       10.7680  -28.0960   -5.1290 C.ar  260  PHE260     -0.0003
     76  CZ        11.7840  -28.8790   -4.5880 C.ar  260  PHE260     -0.0000
     77  N         13.2490  -24.9310    4.8450 N.3   286  PHE286     -0.1241
     78  CA        13.8620  -25.3530    3.5900 C.3   286  PHE286      0.1605
     79  C         12.8730  -25.6890    2.4720 C.2   286  PHE286      0.2264
     80  O         13.0060  -25.1950    1.3540 O.2   286  PHE286     -0.2867
     81  CB        14.7830  -26.5650    3.8390 C.3   286  PHE286      0.0534
     82  CG        15.4410  -27.0920    2.5920 C.ar  286  PHE286     -0.0203
     83  CD1       16.4700  -26.3800    1.9790 C.ar  286  PHE286     -0.0042
     84  CD2       15.0000  -28.2740    2.0000 C.ar  286  PHE286     -0.0042
     85  CE1       17.0530  -26.8360    0.7860 C.ar  286  PHE286     -0.0003
     86  CE2       15.5720  -28.7420    0.8100 C.ar  286  PHE286     -0.0003
     87  CZ        16.6020  -28.0170    0.2020 C.ar  286  PHE286     -0.0000
     88  N         11.1660  -22.7690    1.0710 N.3   289  ALA289     -0.1231
     89  CA        12.1260  -22.0260    0.2560 C.3   289  ALA289      0.1694
     90  C         12.1580  -22.6250   -1.1630 C.2   289  ALA289      0.2592
     91  O         12.2200  -21.8930   -2.1510 O.2   289  ALA289     -0.2718
     92  CB        13.5240  -22.0880    0.8890 C.3   289  ALA289      0.0304
     93  N         12.1060  -23.9530   -1.2600 N.am  290  CYS290     -0.1970
     94  CA        12.1150  -24.6380   -2.5580 C.3   290  CYS290      0.1712
     95  C         10.8480  -24.3480   -3.3410 C.2   290  CYS290      0.2296
     96  O         10.9080  -24.0370   -4.5220 O.2   290  CYS290     -0.2864
     97  CB        12.2390  -26.1550   -2.3770 C.3   290  CYS290      0.0983
     98  SG        13.8110  -26.7090   -1.6970 S.3   290  CYS290     -0.0798
     99  N         10.6830  -20.7920   -4.4720 N.3   293  GLY293     -0.1210
    100  CA        11.6300  -20.6030   -5.5570 C.3   293  GLY293      0.1956
    101  C         10.9790  -20.9650   -6.8820 C.2   293  GLY293      0.2611
    102  O         11.0660  -20.2120   -7.8610 O.2   293  GLY293     -0.2717
    103  N         10.3160  -22.1200   -6.9140 N.am  294  VAL294     -0.1979
    104  CA         9.6330  -22.5810   -8.1180 C.3   294  VAL294      0.1595
    105  C          8.5010  -21.6220   -8.5120 C.2   294  VAL294      0.2287
    106  O          8.2580  -21.3800   -9.7010 O.2   294  VAL294     -0.2864
    107  CB         9.0330  -23.9900   -7.9180 C.3   294  VAL294      0.0276
    108  CG1        8.2260  -24.4000   -9.1630 C.3   294  VAL294      0.0022
    109  CG2       10.1360  -24.9860   -7.6420 C.3   294  VAL294      0.0022
@<TRIPOS>BOND
     1    54    52   ar
     2    54    55   ar
     3    52    51   ar
     4    55    57   ar
     5    55    53   ar
     6    57    59   ar
     7    51    53   ar
     8    51    50    1
     9    46    47    1
    10    53    56   ar
    11    50    47    1
    12    59    58   ar
    13    47    48    1
    14    56    58   ar
    15    48    49    2
    16   106   105    2
    17    41    40    2
    18   108   107    1
    19    60    61    1
    20   105   104    1
    21    65    64    1
    22    64    61    1
    23    40    39    1
    24   104   107    1
    25   104   103    1
    26   107   109    1
    27   102   101    2
    28    61    62    1
    29   103   101   am
    30    39    38    1
    31    39    42    1
    32   101   100    1
    33    43    44    1
    34    43    45    1
    35    43    42    1
    36    62    63    2
    37     6     5    1
    38   100    99    1
    39    75    76   ar
    40    75    73   ar
    41     5     7    1
    42     5     2    1
    43    76    74   ar
    44    96    95    2
    45    73    71   ar
    46     1     2    1
    47     2     3    1
    48    30    29    2
    49    95    94    1
    50    74    72   ar
    51    71    72   ar
    52    71    70    1
    53    66    67    1
    54    29    28    1
    55    94    97    1
    56    94    93    1
    57    37    35   ar
    58    37    36   ar
    59    70    67    1
    60    97    98    1
    61     3     8   am
    62     3     4    2
    63    35    33   ar
    64     8     9    1
    65    91    90    2
    66    36    34   ar
    67    67    68    1
    68    33    32   ar
    69    12     9    1
    70    12    13    1
    71    28    27    1
    72    28    31    1
    73    93    90   am
    74    34    32   ar
    75    90    89    1
    76     9    10    1
    77    32    31    1
    78    68    69    2
    79    13    14   ar
    80    13    15   ar
    81    87    85   ar
    82    87    86   ar
    83    10    11    2
    84    14    16   ar
    85    89    92    1
    86    89    88    1
    87    26    24    1
    88    15    17   ar
    89    85    83   ar
    90    86    84   ar
    91    23    24    1
    92    23    20    1
    93    25    24    1
    94    19    20    1
    95    80    79    2
    96    16    18   ar
    97    20    21    1
    98    17    18   ar
    99    83    82   ar
   100    84    82   ar
   101    79    78    1
   102    82    81    1
   103    21    22    2
   104    78    81    1
   105    78    77    1
