@<TRIPOS>MOLECULE
tmp/6a2jA18.pdb
 104 101 0 0 0
SMALL
GASTEIGER

@<TRIPOS>ATOM
      1  N         23.2700  -19.9290   -2.2460 N.3    20  PHE20      -0.1241
      2  CA        23.4930  -20.8360   -1.1240 C.3    20  PHE20       0.1605
      3  C         23.6170  -20.1010    0.2190 C.2    20  PHE20       0.2264
      4  O         23.0430  -20.5280    1.2270 O.2    20  PHE20      -0.2867
      5  CB        24.7590  -21.6630   -1.3690 C.3    20  PHE20       0.0534
      6  CG        25.2070  -22.4420   -0.1710 C.ar   20  PHE20      -0.0203
      7  CD1       24.5130  -23.5720    0.2390 C.ar   20  PHE20      -0.0042
      8  CD2       26.2970  -22.0100    0.5840 C.ar   20  PHE20      -0.0042
      9  CE1       24.8980  -24.2680    1.3950 C.ar   20  PHE20      -0.0003
     10  CE2       26.6880  -22.6880    1.7310 C.ar   20  PHE20      -0.0003
     11  CZ        25.9870  -23.8210    2.1390 C.ar   20  PHE20      -0.0000
     12  N         20.3200  -18.8130    1.2510 N.3    23  LEU23      -0.1231
     13  CA        19.4410  -19.8820    1.6870 C.3    23  LEU23       0.1693
     14  C         19.7830  -20.2020    3.1490 C.2    23  LEU23       0.2591
     15  O         18.9010  -20.4680    3.9690 O.2    23  LEU23      -0.2718
     16  CB        19.6320  -21.1220    0.8140 C.3    23  LEU23       0.0284
     17  CG        18.7740  -22.3110    1.2610 C.3    23  LEU23       0.0019
     18  CD1       17.2910  -22.0480    0.9340 C.3    23  LEU23       0.0001
     19  CD2       19.2790  -23.5810    0.5800 C.3    23  LEU23       0.0001
     20  N         21.0750  -20.1580    3.4620 N.am   24  ILE24      -0.1980
     21  CA        21.5690  -20.4270    4.8070 C.3    24  ILE24       0.1595
     22  C         21.0700  -19.3630    5.7830 C.2    24  ILE24       0.2287
     23  O         20.6730  -19.6710    6.9090 O.2    24  ILE24      -0.2864
     24  CB        23.1130  -20.4530    4.8210 C.3    24  ILE24       0.0276
     25  CG1       23.6150  -21.6570    4.0190 C.3    24  ILE24       0.0022
     26  CG2       23.6300  -20.5250    6.2500 C.3    24  ILE24       0.0022
     27  CD1       23.1930  -23.0040    4.5920 C.3    24  ILE24       0.0001
     28  N         17.0710  -20.3940    6.1090 N.3    27  ILE27      -0.1245
     29  CA        16.7950  -21.6000    6.8820 C.3    27  ILE27       0.1561
     30  C         17.6070  -21.7110    8.1690 C.2    27  ILE27       0.2260
     31  O         17.1870  -22.3820    9.1110 O.2    27  ILE27      -0.2867
     32  CB        16.9970  -22.8710    6.0290 C.3    27  ILE27       0.0252
     33  CG1       18.4900  -23.1120    5.7580 C.3    27  ILE27       0.0019
     34  CG2       16.2240  -22.7230    4.7260 C.3    27  ILE27       0.0019
     35  CD1       18.7790  -24.4230    5.0330 C.3    27  ILE27       0.0001
     36  N          7.5440  -33.7990   17.4270 N.3   274  SER274     -0.1217
     37  CA         8.8610  -33.8330   18.0540 C.3   274  SER274      0.1889
     38  C          9.0010  -32.7440   19.1120 C.2   274  SER274      0.2288
     39  O         10.0520  -32.6170   19.7440 O.2   274  SER274     -0.2866
     40  CB         9.9530  -33.6370   17.0060 C.3   274  SER274      0.2089
     41  OG         9.8520  -32.3480   16.4370 O.3   274  SER274     -0.2183
     42  N         11.7850  -30.1540   17.5830 N.3   277  ALA277     -0.1231
     43  CA        13.1790  -30.5670   17.4220 C.3   277  ALA277      0.1694
     44  C         13.6180  -29.6710   16.2520 C.2   277  ALA277      0.2592
     45  O         12.9400  -29.6110   15.2240 O.2   277  ALA277     -0.2718
     46  CB        13.2600  -32.0340   17.0330 C.3   277  ALA277      0.0304
     47  N         14.7340  -28.9700   16.4160 N.am  278  LEU278     -0.1966
     48  CA        15.2070  -28.0350   15.4010 C.3   278  LEU278      0.1728
     49  C         15.5200  -28.6140   14.0190 C.2   278  LEU278      0.2617
     50  O         15.5640  -27.8780   13.0290 O.2   278  LEU278     -0.2715
     51  CB        16.3970  -27.2410   15.9580 C.3   278  LEU278      0.0311
     52  CG        16.0720  -26.5220   17.2790 C.3   278  LEU278      0.0022
     53  CD1       17.2840  -25.7040   17.7360 C.3   278  LEU278      0.0001
     54  CD2       14.8450  -25.6110   17.1020 C.3   278  LEU278      0.0001
     55  N         15.7180  -29.9270   13.9510 N.am  279  GLY279     -0.1940
     56  CA        15.9730  -30.5690   12.6720 C.3   279  GLY279      0.2014
     57  C         14.7320  -30.4580   11.7930 C.2   279  GLY279      0.2638
     58  O         14.8400  -30.2330   10.5870 O.2   279  GLY279     -0.2714
     59  N         13.5500  -30.6150   12.3890 N.am  280  PHE280     -0.1973
     60  CA        12.3040  -30.5020   11.6330 C.3   280  PHE280      0.1639
     61  C         12.0000  -29.0340   11.3400 C.2   280  PHE280      0.2290
     62  O         11.4160  -28.7050   10.3010 O.2   280  PHE280     -0.2864
     63  CB        11.1470  -31.1750   12.3870 C.3   280  PHE280      0.0560
     64  CG        11.2620  -32.6770   12.4250 C.ar  280  PHE280     -0.0200
     65  CD1       11.2070  -33.4220   11.2430 C.ar  280  PHE280     -0.0042
     66  CD2       11.4920  -33.3470   13.6240 C.ar  280  PHE280     -0.0042
     67  CE1       11.3830  -34.8110   11.2540 C.ar  280  PHE280     -0.0003
     68  CE2       11.6700  -34.7330   13.6460 C.ar  280  PHE280     -0.0003
     69  CZ        11.6160  -35.4660   12.4560 C.ar  280  PHE280     -0.0000
     70  N         14.2580  -26.8180   10.7370 N.3   282  LEU282     -0.1231
     71  CA        15.1520  -26.5430    9.6200 C.3   282  LEU282      0.1693
     72  C         14.5270  -27.0090    8.3160 C.2   282  LEU282      0.2591
     73  O         14.5660  -26.3030    7.3050 O.2   282  LEU282     -0.2718
     74  CB        16.4880  -27.2630    9.8210 C.3   282  LEU282      0.0284
     75  CG        17.4870  -27.1150    8.6690 C.3   282  LEU282      0.0019
     76  CD1       18.0110  -25.6750    8.6110 C.3   282  LEU282      0.0001
     77  CD2       18.6310  -28.0900    8.8860 C.3   282  LEU282      0.0001
     78  N         13.9580  -28.2090    8.3430 N.am  283  ALA283     -0.1980
     79  CA        13.3130  -28.7690    7.1630 C.3   283  ALA283      0.1597
     80  C         12.1060  -27.9190    6.7240 C.2   283  ALA283      0.2287
     81  O         11.8600  -27.7360    5.5180 O.2   283  ALA283     -0.2864
     82  CB        12.8640  -30.2090    7.4560 C.3   283  ALA283      0.0319
     83  N         13.2490  -24.9310    4.8450 N.3   286  PHE286     -0.1227
     84  CA        13.8620  -25.3530    3.5900 C.3   286  PHE286      0.1736
     85  C         12.8730  -25.6890    2.4720 C.2   286  PHE286      0.2595
     86  O         13.0060  -25.1950    1.3540 O.2   286  PHE286     -0.2718
     87  CB        14.7830  -26.5650    3.8390 C.3   286  PHE286      0.0547
     88  CG        15.4410  -27.0920    2.5920 C.ar  286  PHE286     -0.0202
     89  CD1       16.4700  -26.3800    1.9790 C.ar  286  PHE286     -0.0042
     90  CD2       15.0000  -28.2740    2.0000 C.ar  286  PHE286     -0.0042
     91  CE1       17.0530  -26.8360    0.7860 C.ar  286  PHE286     -0.0003
     92  CE2       15.5720  -28.7420    0.8100 C.ar  286  PHE286     -0.0003
     93  CZ        16.6020  -28.0170    0.2020 C.ar  286  PHE286     -0.0000
     94  N         11.8830  -26.5230    2.7670 N.am  287  PHE287     -0.1976
     95  CA        10.9220  -26.8970    1.7410 C.3   287  PHE287      0.1639
     96  C         10.0700  -25.7370    1.2320 C.2   287  PHE287      0.2290
     97  O          9.7120  -25.7040    0.0510 O.2   287  PHE287     -0.2864
     98  CB        10.0460  -28.0520    2.2330 C.3   287  PHE287      0.0560
     99  CG        10.8160  -29.3280    2.4480 C.ar  287  PHE287     -0.0200
    100  CD1       11.6670  -29.8120    1.4560 C.ar  287  PHE287     -0.0042
    101  CD2       10.7400  -30.0170    3.6550 C.ar  287  PHE287     -0.0042
    102  CE1       12.4370  -30.9640    1.6710 C.ar  287  PHE287     -0.0003
    103  CE2       11.5080  -31.1700    3.8780 C.ar  287  PHE287     -0.0003
    104  CZ        12.3540  -31.6420    2.8890 C.ar  287  PHE287     -0.0000
@<TRIPOS>BOND
     1     1     2    1
     2     5     2    1
     3     5     6    1
     4     2     3    1
     5     6     7   ar
     6     6     8   ar
     7    97    96    2
     8    93    91   ar
     9    93    92   ar
    10     3     4    2
    11     7     9   ar
    12    19    17    1
    13     8    10   ar
    14    91    89   ar
    15    92    90   ar
    16    16    17    1
    17    16    13    1
    18    18    17    1
    19    96    95    1
    20    12    13    1
    21    86    85    2
    22     9    11   ar
    23   100   102   ar
    24   100    99   ar
    25   102   104   ar
    26    13    14    1
    27    10    11   ar
    28    95    98    1
    29    95    94    1
    30    89    88   ar
    31    90    88   ar
    32    98    99    1
    33    99   101   ar
    34    85    94   am
    35    85    84    1
    36    88    87    1
    37   104   103   ar
    38    14    20   am
    39    14    15    2
    40    20    21    1
    41    84    87    1
    42    84    83    1
    43   101   103   ar
    44    25    27    1
    45    25    24    1
    46    34    32    1
    47    21    24    1
    48    21    22    1
    49    24    26    1
    50    35    33    1
    51    81    80    2
    52    33    32    1
    53    22    23    2
    54    32    29    1
    55    28    29    1
    56    80    79    1
    57    29    30    1
    58    79    82    1
    59    79    78    1
    60    73    72    2
    61    30    31    2
    62    72    78   am
    63    72    71    1
    64    76    75    1
    65    75    77    1
    66    75    74    1
    67    71    74    1
    68    71    70    1
    69    62    61    2
    70    58    57    2
    71    65    67   ar
    72    65    64   ar
    73    67    69   ar
    74    61    60    1
    75    60    63    1
    76    60    59    1
    77    57    59   am
    78    57    56    1
    79    63    64    1
    80    64    66   ar
    81    69    68   ar
    82    56    55    1
    83    50    49    2
    84    66    68   ar
    85    55    49   am
    86    49    48    1
    87    45    44    2
    88    48    51    1
    89    48    47    1
    90    51    52    1
    91    44    47   am
    92    44    43    1
    93    41    40    1
    94    40    37    1
    95    46    43    1
    96    54    52    1
    97    52    53    1
    98    43    42    1
    99    36    37    1
   100    37    38    1
   101    38    39    2
