@<TRIPOS>MOLECULE
tmp/6a2jA11.pdb
 140 132 0 0 0
SMALL
GASTEIGER

@<TRIPOS>ATOM
      1  N         18.2690  -16.3070   -6.2530 N.3   141  LEU141     -0.1231
      2  CA        18.1210  -17.6150   -6.8930 C.3   141  LEU141      0.1693
      3  C         17.7420  -17.4680   -8.3700 C.2   141  LEU141      0.2591
      4  O         18.3420  -18.1080   -9.2420 O.2   141  LEU141     -0.2718
      5  CB        17.0350  -18.4240   -6.1790 C.3   141  LEU141      0.0284
      6  CG        16.5210  -19.6980   -6.8630 C.3   141  LEU141      0.0019
      7  CD1       17.5340  -20.8350   -6.7070 C.3   141  LEU141      0.0001
      8  CD2       15.1850  -20.1050   -6.2480 C.3   141  LEU141      0.0001
      9  N         16.7480  -16.6180   -8.6400 N.am  142  ILE142     -0.1980
     10  CA        16.2680  -16.4030   -9.9960 C.3   142  ILE142      0.1595
     11  C         17.2900  -15.6470  -10.8300 C.2   142  ILE142      0.2287
     12  O         17.4270  -15.8910  -12.0300 O.2   142  ILE142     -0.2864
     13  CB        14.8860  -15.6690  -10.0010 C.3   142  ILE142      0.0276
     14  CG1       13.8550  -16.5210   -9.2530 C.3   142  ILE142      0.0022
     15  CG2       14.3830  -15.4760  -11.4370 C.3   142  ILE142      0.0022
     16  CD1       13.6860  -17.9420   -9.8100 C.3   142  ILE142      0.0001
     17  N         19.7460  -18.0890  -11.8800 N.3   145  LEU145     -0.1245
     18  CA        19.1680  -18.9070  -12.9330 C.3   145  LEU145      0.1561
     19  C         19.3330  -18.2060  -14.2840 C.2   145  LEU145      0.2260
     20  O         19.6430  -18.8460  -15.2910 O.2   145  LEU145     -0.2867
     21  CB        17.6810  -19.1610  -12.6560 C.3   145  LEU145      0.0270
     22  CG        16.8260  -19.6090  -13.8600 C.3   145  LEU145      0.0019
     23  CD1       17.3080  -20.9620  -14.3800 C.3   145  LEU145      0.0001
     24  CD2       15.3460  -19.6720  -13.4530 C.3   145  LEU145      0.0001
     25  N         17.9080  -22.6790  -24.1630 N.3   155  ARG155     -0.1231
     26  CA        17.6200  -22.5130  -22.7430 C.3   155  ARG155      0.1694
     27  C         16.8890  -23.7160  -22.1840 C.2   155  ARG155      0.2593
     28  O         16.0670  -24.3370  -22.8560 O.2   155  ARG155     -0.2718
     29  CB        16.7770  -21.2600  -22.4960 C.3   155  ARG155      0.0321
     30  CG        17.5700  -19.9570  -22.4090 C.3   155  ARG155      0.0489
     31  CD        18.2640  -19.6710  -23.6990 C.3   155  ARG155      0.2205
     32  NE        19.0750  -18.4590  -23.6610 N.pl3 155  ARG155     -0.0865
     33  CZ        18.6010  -17.2250  -23.7870 C.cat 155  ARG155      0.5346
     34  NH1       17.3000  -17.0130  -23.9510 N.pl3 155  ARG155      0.1354
     35  NH2       19.4420  -16.1990  -23.7960 N.pl3 155  ARG155      0.1354
     36  N         17.1850  -24.0360  -20.9340 N.am  156  THR156     -0.1939
     37  CA        16.5560  -25.1730  -20.2860 C.3   156  THR156      0.2028
     38  C         15.2290  -24.7960  -19.6280 C.2   156  THR156      0.2642
     39  O         14.1930  -25.4080  -19.8980 O.2   156  THR156     -0.2714
     40  CB        17.4870  -25.7620  -19.2040 C.3   156  THR156      0.1808
     41  OG1       17.7940  -24.7460  -18.2340 O.3   156  THR156     -0.2208
     42  CG2       18.7880  -26.2660  -19.8380 C.3   156  THR156      0.0379
     43  N         15.2620  -23.7760  -18.7780 N.am  157  LEU157     -0.1977
     44  CA        14.0700  -23.3650  -18.0450 C.3   157  LEU157      0.1596
     45  C         13.4330  -22.0570  -18.4980 C.2   157  LEU157      0.2287
     46  O         12.2120  -21.9710  -18.6200 O.2   157  LEU157     -0.2864
     47  CB        14.3910  -23.3060  -16.5430 C.3   157  LEU157      0.0297
     48  CG        14.8910  -24.6100  -15.8960 C.3   157  LEU157      0.0022
     49  CD1       15.2000  -24.3740  -14.4240 C.3   157  LEU157      0.0001
     50  CD2       13.8370  -25.7060  -16.0370 C.3   157  LEU157      0.0001
     51  N         12.3330  -20.3890  -21.0170 N.3   159  LYS159     -0.1245
     52  CA        11.8850  -20.5670  -22.3900 C.3   159  LYS159      0.1561
     53  C         10.6070  -19.7550  -22.5290 C.2   159  LYS159      0.2260
     54  O          9.8660  -19.5940  -21.5500 O.2   159  LYS159     -0.2867
     55  CB        11.5810  -22.0490  -22.6500 C.3   159  LYS159      0.0271
     56  CG        12.7570  -22.8770  -23.1540 C.3   159  LYS159      0.0035
     57  CD        13.1730  -22.3950  -24.5460 C.3   159  LYS159      0.0206
     58  CE        13.5330  -23.5520  -25.4650 C.3   159  LYS159      0.1093
     59  NZ        14.7770  -24.2520  -25.0420 N.3   159  LYS159     -0.1314
     60  N          7.3580  -19.7150  -22.8690 N.3   161  LEU161     -0.1245
     61  CA         6.1990  -20.5900  -22.8220 C.3   161  LEU161      0.1561
     62  C          4.8860  -19.8330  -22.9310 C.2   161  LEU161      0.2260
     63  O          4.8010  -18.6530  -22.5960 O.2   161  LEU161     -0.2867
     64  CB         6.2140  -21.4090  -21.5240 C.3   161  LEU161      0.0270
     65  CG         7.4760  -22.2360  -21.2740 C.3   161  LEU161      0.0019
     66  CD1        7.3730  -22.9630  -19.9380 C.3   161  LEU161      0.0001
     67  CD2        7.6620  -23.2180  -22.4170 C.3   161  LEU161      0.0001
     68  N          2.5250  -30.8380  -22.5930 N.3   246  ASP246     -0.1239
     69  CA         3.4460  -30.5290  -23.6870 C.3   246  ASP246      0.1674
     70  C          4.4580  -29.4300  -23.3180 C.2   246  ASP246      0.2266
     71  O          5.4000  -29.1510  -24.0650 O.2   246  ASP246     -0.2867
     72  CB         2.6550  -30.1280  -24.9420 C.3   246  ASP246      0.1410
     73  CG         1.7610  -28.9170  -24.7150 C.2   246  ASP246      0.3668
     74  OD1        1.0580  -28.8670  -23.6780 O.co2 246  ASP246     -0.2456
     75  OD2        1.7540  -28.0210  -25.5870 O.co2 246  ASP246     -0.2456
     76  N          6.7440  -29.1490  -20.5160 N.3   248  LYS248     -0.1231
     77  CA         7.4140  -29.8140  -19.4050 C.3   248  LYS248      0.1693
     78  C          7.9090  -28.9730  -18.2300 C.2   248  LYS248      0.2591
     79  O          7.9330  -29.4590  -17.0990 O.2   248  LYS248     -0.2718
     80  CB         8.5720  -30.6570  -19.9500 C.3   248  LYS248      0.0285
     81  CG         8.1380  -31.7310  -20.9350 C.3   248  LYS248      0.0035
     82  CD         7.0460  -32.5960  -20.3310 C.3   248  LYS248      0.0206
     83  CE         6.4920  -33.5990  -21.3350 C.3   248  LYS248      0.1093
     84  NZ         5.3250  -34.3200  -20.7390 N.3   248  LYS248     -0.1314
     85  N          8.3120  -27.7300  -18.4810 N.am  249  GLN249     -0.1979
     86  CA         8.7820  -26.8840  -17.3880 C.3   249  GLN249      0.1601
     87  C          7.6280  -26.6370  -16.4240 C.2   249  GLN249      0.2287
     88  O          7.8090  -26.6140  -15.2020 O.2   249  GLN249     -0.2864
     89  CB         9.3170  -25.5430  -17.9070 C.3   249  GLN249      0.0394
     90  CG        10.5870  -25.6530  -18.7370 C.3   249  GLN249      0.0908
     91  CD        10.3110  -25.9470  -20.2080 C.2   249  GLN249      0.2608
     92  OE1        9.2110  -26.3610  -20.5780 O.2   249  GLN249     -0.2717
     93  NE2       11.3160  -25.7420  -21.0490 N.am  249  GLN249     -0.0878
     94  N          6.4690  -30.4130  -14.9140 N.3   252  TRP252     -0.1227
     95  CA         7.3370  -30.8410  -13.8210 C.3   252  TRP252      0.1737
     96  C          7.5030  -29.7800  -12.7440 C.2   252  TRP252      0.2596
     97  O          7.7460  -30.1000  -11.5760 O.2   252  TRP252     -0.2718
     98  CB         8.7100  -31.2630  -14.3520 C.3   252  TRP252      0.0564
     99  CG         8.6610  -32.5310  -15.1420 C.ar  252  TRP252      0.0003
    100  CD1        8.7810  -32.6590  -16.4970 C.ar  252  TRP252      0.0946
    101  CD2        8.4070  -33.8470  -14.6350 C.ar  252  TRP252      0.0152
    102  NE1        8.6100  -33.9740  -16.8660 N.ar  252  TRP252     -0.2442
    103  CE2        8.3800  -34.7260  -15.7440 C.ar  252  TRP252      0.0810
    104  CE3        8.1960  -34.3700  -13.3510 C.ar  252  TRP252      0.0012
    105  CZ2        8.1490  -36.1030  -15.6090 C.ar  252  TRP252      0.0191
    106  CZ3        7.9660  -35.7420  -13.2180 C.ar  252  TRP252      0.0001
    107  CH2        7.9440  -36.5900  -14.3430 C.ar  252  TRP252      0.0015
    108  N          7.3750  -28.5180  -13.1330 N.am  253  GLY253     -0.1957
    109  CA         7.4890  -27.4580  -12.1570 C.3   253  GLY253      0.1869
    110  C          6.4340  -27.6440  -11.0800 C.2   253  GLY253      0.2309
    111  O          6.7300  -27.5330   -9.8920 O.2   253  GLY253     -0.2863
    112  N          6.9050  -30.7930   -8.8370 N.3   256  SER256     -0.1217
    113  CA         7.8850  -30.5210   -7.8020 C.3   256  SER256      0.1889
    114  C          7.1940  -29.7020   -6.7030 C.2   256  SER256      0.2288
    115  O          7.4050  -29.9490   -5.5140 O.2   256  SER256     -0.2866
    116  CB         9.1040  -29.7800   -8.3810 C.3   256  SER256      0.2089
    117  OG         8.9070  -28.3810   -8.4810 O.3   256  SER256     -0.2183
    118  N         10.6830  -20.7920   -4.4720 N.3   293  GLY293     -0.1210
    119  CA        11.6300  -20.6030   -5.5570 C.3   293  GLY293      0.1956
    120  C         10.9790  -20.9650   -6.8820 C.2   293  GLY293      0.2611
    121  O         11.0660  -20.2120   -7.8610 O.2   293  GLY293     -0.2717
    122  N         10.3160  -22.1200   -6.9140 N.am  294  VAL294     -0.1979
    123  CA         9.6330  -22.5810   -8.1180 C.3   294  VAL294      0.1595
    124  C          8.5010  -21.6220   -8.5120 C.2   294  VAL294      0.2287
    125  O          8.2580  -21.3800   -9.7010 O.2   294  VAL294     -0.2864
    126  CB         9.0330  -23.9900   -7.9180 C.3   294  VAL294      0.0276
    127  CG1        8.2260  -24.4000   -9.1630 C.3   294  VAL294      0.0022
    128  CG2       10.1360  -24.9860   -7.6420 C.3   294  VAL294      0.0022
    129  N          9.9520  -18.7330  -10.1050 N.3   297  TYR297     -0.1241
    130  CA        10.4100  -19.0880  -11.4440 C.3   297  TYR297      0.1605
    131  C          9.2050  -18.9120  -12.3750 C.2   297  TYR297      0.2264
    132  O          9.3170  -18.3090  -13.4510 O.2   297  TYR297     -0.2867
    133  CB        10.9000  -20.5400  -11.4750 C.3   297  TYR297      0.0534
    134  CG        10.8670  -21.1690  -12.8520 C.ar  297  TYR297     -0.0201
    135  CD1       11.7120  -20.7260  -13.8630 C.ar  297  TYR297     -0.0009
    136  CD2        9.9750  -22.2020  -13.1450 C.ar  297  TYR297     -0.0009
    137  CE1       11.6790  -21.2950  -15.1360 C.ar  297  TYR297      0.0417
    138  CE2        9.9300  -22.7810  -14.4160 C.ar  297  TYR297      0.0417
    139  CZ        10.7880  -22.3230  -15.4050 C.ar  297  TYR297      0.1957
    140  OH        10.7560  -22.8900  -16.6540 O.3   297  TYR297     -0.2866
@<TRIPOS>BOND
     1    75    73   ar
     2    58    59    1
     3    58    57    1
     4    72    73    1
     5    72    69    1
     6    73    74   ar
     7    57    56    1
     8    25    26    1
     9    71    70    2
    10    34    33    1
    11    35    33    1
    12    33    32    2
    13    31    32    1
    14    31    30    1
    15    69    70    1
    16    69    68    1
    17    56    55    1
    18    62    61    1
    19    62    63    2
    20    60    61    1
    21    28    27    2
    22    61    64    1
    23    26    29    1
    24    26    27    1
    25    55    52    1
    26    53    52    1
    27    53    54    2
    28    29    30    1
    29    67    65    1
    30    52    51    1
    31    27    36   am
    32    64    65    1
    33    83    84    1
    34    83    82    1
    35    65    66    1
    36    93    91   am
    37    81    82    1
    38    81    80    1
    39    36    37    1
    40    92    91    2
    41    76    77    1
    42    37    38    1
    43    37    40    1
    44    91    90    1
    45    80    77    1
    46    39    38    2
    47    42    40    1
    48    38    43   am
    49    77    78    1
    50    40    41    1
    51    43    44    1
    52    90    89    1
    53    46    45    2
    54    45    44    1
    55    85    78   am
    56    85    86    1
    57    78    79    2
    58    44    47    1
    59    89    86    1
    60    86    87    1
    61   102   100   ar
    62   102   103   ar
    63   140   139    1
    64    47    48    1
    65   100    99   ar
    66    87    88    2
    67    50    48    1
    68    48    49    1
    69   103   105   ar
    70   103   101   ar
    71   105   107   ar
    72   139   137   ar
    73   139   138   ar
    74    20    19    2
    75    99   101   ar
    76    99    98    1
    77   137   135   ar
    78    94    95    1
    79   101   104   ar
    80   138   136   ar
    81    23    22    1
    82    98    95    1
    83   107   106   ar
    84    19    18    1
    85   135   134   ar
    86    22    24    1
    87    22    21    1
    88    95    96    1
    89   132   131    2
    90   104   106   ar
    91   136   134   ar
    92   108    96   am
    93   108   109    1
    94    18    21    1
    95    18    17    1
    96   134   133    1
    97    96    97    2
    98   131   130    1
    99   109   110    1
   100    12    11    2
   101   133   130    1
   102   130   129    1
   103    15    13    1
   104   110   111    2
   105    11    10    1
   106    13    10    1
   107    13    14    1
   108    10     9    1
   109    16    14    1
   110   125   124    2
   111     4     3    2
   112   127   126    1
   113   112   113    1
   114     9     3   am
   115   124   123    1
   116   117   116    1
   117   116   113    1
   118     3     2    1
   119   123   126    1
   120   123   122    1
   121   126   128    1
   122   121   120    2
   123   113   114    1
   124   122   120   am
   125     2     1    1
   126     2     5    1
   127   120   119    1
   128     6     7    1
   129     6     8    1
   130     6     5    1
   131   114   115    2
   132   119   118    1
