@<TRIPOS>MOLECULE
tmp/6a2jA15.pdb
 106 102 0 0 0
SMALL
GASTEIGER

@<TRIPOS>ATOM
      1  N         -4.5140  -18.0710  -19.2710 N.3   165  LYS165     -0.1245
      2  CA        -5.0580  -17.2660  -18.1810 C.3   165  LYS165      0.1561
      3  C         -5.2880  -18.0320  -16.8820 C.2   165  LYS165      0.2260
      4  O         -4.9530  -17.5390  -15.8050 O.2   165  LYS165     -0.2867
      5  CB        -6.3680  -16.5930  -18.6200 C.3   165  LYS165      0.0271
      6  CG        -6.1790  -15.4320  -19.5840 C.3   165  LYS165      0.0035
      7  CD        -5.1600  -14.4530  -19.0200 C.3   165  LYS165      0.0206
      8  CE        -5.1150  -13.1330  -19.7750 C.3   165  LYS165      0.1093
      9  NZ        -4.2260  -12.1400  -19.0870 N.3   165  LYS165     -0.1314
     10  N         -2.1220  -18.8620  -15.2070 N.3   168  GLN168     -0.1231
     11  CA        -1.5720  -17.6290  -14.6670 C.3   168  GLN168      0.1698
     12  C         -2.2450  -17.3030  -13.3430 C.2   168  GLN168      0.2592
     13  O         -1.6080  -16.8020  -12.4230 O.2   168  GLN168     -0.2718
     14  CB        -1.7650  -16.4690  -15.6450 C.3   168  GLN168      0.0381
     15  CG        -0.9440  -16.5880  -16.9060 C.3   168  GLN168      0.0905
     16  CD        -0.9610  -15.3250  -17.7560 C.2   168  GLN168      0.2608
     17  OE1       -0.6650  -14.2220  -17.2720 O.2   168  GLN168     -0.2717
     18  NE2       -1.2900  -15.4830  -19.0360 N.am  168  GLN168     -0.0878
     19  N         -3.5380  -17.5980  -13.2520 N.am  169  PHE169     -0.1962
     20  CA        -4.2880  -17.3390  -12.0370 C.3   169  PHE169      0.1771
     21  C         -3.7090  -18.2020  -10.9200 C.2   169  PHE169      0.2619
     22  O         -3.4460  -17.7190   -9.8220 O.2   169  PHE169     -0.2715
     23  CB        -5.7700  -17.6820  -12.2430 C.3   169  PHE169      0.0574
     24  CG        -6.5700  -17.7260  -10.9560 C.ar  169  PHE169     -0.0200
     25  CD1       -7.0360  -16.5530  -10.3670 C.ar  169  PHE169     -0.0042
     26  CD2       -6.8290  -18.9440  -10.3230 C.ar  169  PHE169     -0.0042
     27  CE1       -7.7490  -16.5870   -9.1660 C.ar  169  PHE169     -0.0003
     28  CE2       -7.5390  -18.9960   -9.1230 C.ar  169  PHE169     -0.0003
     29  CZ        -8.0020  -17.8150   -8.5410 C.ar  169  PHE169     -0.0000
     30  N         -3.5250  -19.4880  -11.2080 N.am  170  HIS170     -0.1973
     31  CA        -2.9710  -20.4160  -10.2340 C.3   170  HIS170      0.1656
     32  C         -1.5750  -20.0130   -9.7760 C.2   170  HIS170      0.2291
     33  O         -1.3060  -19.9390   -8.5750 O.2   170  HIS170     -0.2864
     34  CB        -2.9090  -21.8320  -10.8140 C.3   170  HIS170      0.0771
     35  CG        -4.2510  -22.4660  -11.0010 C.ar  170  HIS170      0.0820
     36  ND1       -5.2240  -22.4450  -10.0240 N.ar  170  HIS170     -0.2267
     37  CD2       -4.7730  -23.1650  -12.0370 C.ar  170  HIS170      0.1154
     38  CE1       -6.2870  -23.1040  -10.4510 C.ar  170  HIS170      0.1986
     39  NE2       -6.0390  -23.5510  -11.6690 N.ar  170  HIS170     -0.2212
     40  N          0.2500  -17.0530  -10.0090 N.3   172  ILE172     -0.1231
     41  CA         0.2850  -15.7970   -9.2790 C.3   172  ILE172      0.1692
     42  C         -0.4930  -15.8830   -7.9730 C.2   172  ILE172      0.2592
     43  O         -0.0380  -15.3960   -6.9330 O.2   172  ILE172     -0.2718
     44  CB        -0.2950  -14.6640  -10.1480 C.3   172  ILE172      0.0266
     45  CG1        0.5780  -14.4910  -11.3960 C.3   172  ILE172      0.0019
     46  CG2       -0.3970  -13.3680   -9.3320 C.3   172  ILE172      0.0020
     47  CD1        0.0080  -13.5450  -12.4300 C.3   172  ILE172      0.0001
     48  N         -1.6640  -16.5120   -8.0370 N.am  173  GLY173     -0.1957
     49  CA        -2.5010  -16.6630   -6.8650 C.3   173  GLY173      0.1869
     50  C         -1.8540  -17.5090   -5.7860 C.2   173  GLY173      0.2309
     51  O         -1.8910  -17.1560   -4.6030 O.2   173  GLY173     -0.2863
     52  N          1.1720  -15.5660   -4.1860 N.3   176  ILE176     -0.1245
     53  CA         0.7000  -14.5890   -3.2130 C.3   176  ILE176      0.1561
     54  C          0.1560  -15.2480   -1.9400 C.2   176  ILE176      0.2260
     55  O          0.4910  -14.8430   -0.8250 O.2   176  ILE176     -0.2867
     56  CB        -0.3880  -13.7000   -3.8540 C.3   176  ILE176      0.0252
     57  CG1        0.2610  -12.8410   -4.9550 C.3   176  ILE176      0.0019
     58  CG2       -1.0970  -12.8610   -2.7820 C.3   176  ILE176      0.0019
     59  CD1       -0.7310  -12.0450   -5.7940 C.3   176  ILE176      0.0001
     60  N         -5.4810  -25.0870    2.7630 N.3   228  LEU228     -0.1245
     61  CA        -6.0200  -24.4440    1.5720 C.3   228  LEU228      0.1561
     62  C         -4.9250  -24.3180    0.5090 C.2   228  LEU228      0.2260
     63  O         -5.1620  -24.5620   -0.6760 O.2   228  LEU228     -0.2867
     64  CB        -6.5880  -23.0610    1.9280 C.3   228  LEU228      0.0270
     65  CG        -6.9280  -22.1140    0.7650 C.3   228  LEU228      0.0019
     66  CD1       -7.8170  -22.8100   -0.2750 C.3   228  LEU228      0.0001
     67  CD2       -7.6130  -20.8760    1.3220 C.3   228  LEU228      0.0001
     68  N         -4.4290  -27.7240   -0.9940 N.3   231  VAL231     -0.1231
     69  CA        -5.5000  -28.0350   -1.9250 C.3   231  VAL231      0.1692
     70  C         -5.3740  -27.2630   -3.2460 C.2   231  VAL231      0.2592
     71  O         -5.5700  -27.8270   -4.3230 O.2   231  VAL231     -0.2718
     72  CB        -6.8850  -27.7350   -1.2850 C.3   231  VAL231      0.0266
     73  CG1       -7.9810  -27.7720   -2.3450 C.3   231  VAL231      0.0020
     74  CG2       -7.1840  -28.7580   -0.1980 C.3   231  VAL231      0.0020
     75  N         -5.0580  -25.9730   -3.1560 N.am  232  TRP232     -0.1976
     76  CA        -4.9150  -25.1350   -4.3390 C.3   232  TRP232      0.1640
     77  C         -3.7880  -25.7020   -5.2210 C.2   232  TRP232      0.2290
     78  O         -3.9360  -25.8350   -6.4400 O.2   232  TRP232     -0.2864
     79  CB        -4.6000  -23.6930   -3.9180 C.3   232  TRP232      0.0576
     80  CG        -4.8520  -22.6360   -4.9660 C.ar  232  TRP232      0.0006
     81  CD1       -5.0730  -22.8270   -6.3050 C.ar  232  TRP232      0.0946
     82  CD2       -4.8770  -21.2160   -4.7570 C.ar  232  TRP232      0.0152
     83  NE1       -5.2360  -21.6120   -6.9380 N.ar  232  TRP232     -0.2442
     84  CE2       -5.1190  -20.6100   -6.0120 C.ar  232  TRP232      0.0810
     85  CE3       -4.7150  -20.3940   -3.6270 C.ar  232  TRP232      0.0012
     86  CZ2       -5.2030  -19.2180   -6.1700 C.ar  232  TRP232      0.0191
     87  CZ3       -4.7990  -19.0050   -3.7870 C.ar  232  TRP232      0.0001
     88  CH2       -5.0400  -18.4370   -5.0500 C.ar  232  TRP232      0.0015
     89  N         -4.9290  -28.6410   -7.2030 N.3   235  VAL235     -0.1245
     90  CA        -5.7670  -28.2090   -8.3130 C.3   235  VAL235      0.1561
     91  C         -4.9020  -27.6280   -9.4320 C.2   235  VAL235      0.2260
     92  O         -5.1370  -27.8370  -10.6140 O.2   235  VAL235     -0.2867
     93  CB        -6.7270  -27.1070   -7.8290 C.3   235  VAL235      0.0252
     94  CG1       -7.4530  -26.4850   -8.9960 C.3   235  VAL235      0.0019
     95  CG2       -7.7170  -27.6820   -6.8440 C.3   235  VAL235      0.0019
     96  N          4.1210  -12.0940  -20.7780 N.3   306  ARG306     -0.1245
     97  CA         3.2850  -10.9110  -20.8830 C.3   306  ARG306      0.1563
     98  C          4.0230   -9.7970  -21.6140 C.2   306  ARG306      0.2260
     99  O          3.4120   -9.0130  -22.3370 O.2   306  ARG306     -0.2867
    100  CB         2.8390  -10.4490  -19.4920 C.3   306  ARG306      0.0307
    101  CG         1.8250  -11.3890  -18.8360 C.3   306  ARG306      0.0489
    102  CD         1.3870  -10.8870  -17.4610 C.3   306  ARG306      0.2205
    103  NE         0.8230   -9.5400  -17.5300 N.pl3 306  ARG306     -0.0865
    104  CZ         0.4220   -8.8320  -16.4780 C.cat 306  ARG306      0.5346
    105  NH1        0.5130   -9.3330  -15.2500 N.pl3 306  ARG306      0.1354
    106  NH2       -0.0630   -7.6100  -16.6540 N.pl3 306  ARG306      0.1354
@<TRIPOS>BOND
     1    99    98    2
     2    98    97    1
     3    97    96    1
     4    97   100    1
     5     8     9    1
     6     8     7    1
     7     6     7    1
     8     6     5    1
     9   100   101    1
    10     1     2    1
    11    18    16   am
    12   101   102    1
    13     5     2    1
    14     2     3    1
    15    16    17    2
    16    16    15    1
    17   103   102    1
    18   103   104    2
    19    15    14    1
    20     3     4    2
    21   106   104    1
    22   104   105    1
    23    14    11    1
    24    10    11    1
    25    11    12    1
    26    12    19   am
    27    12    13    2
    28    19    20    1
    29    47    45    1
    30    23    20    1
    31    23    24    1
    32    20    21    1
    33    37    39   ar
    34    37    35   ar
    35    39    38   ar
    36    45    44    1
    37    30    21   am
    38    30    31    1
    39    35    34    1
    40    35    36   ar
    41    24    25   ar
    42    24    26   ar
    43    21    22    2
    44    34    31    1
    45    92    91    2
    46    38    36   ar
    47    25    27   ar
    48    26    28   ar
    49    31    32    1
    50    44    46    1
    51    44    41    1
    52    40    41    1
    53    32    33    2
    54    91    90    1
    55    41    42    1
    56    27    29   ar
    57    28    29   ar
    58    94    93    1
    59    90    93    1
    60    90    89    1
    61    48    42   am
    62    48    49    1
    63    42    43    2
    64    93    95    1
    65    83    81   ar
    66    83    84   ar
    67    49    50    1
    68    78    77    2
    69    81    80   ar
    70    86    84   ar
    71    86    88   ar
    72    84    82   ar
    73    59    57    1
    74    50    51    2
    75    77    76    1
    76    88    87   ar
    77    80    82   ar
    78    80    79    1
    79    57    56    1
    80    82    85   ar
    81    76    79    1
    82    76    75    1
    83    71    70    2
    84    52    53    1
    85    56    53    1
    86    56    58    1
    87    87    85   ar
    88    70    75   am
    89    70    69    1
    90    53    54    1
    91    73    72    1
    92    54    55    2
    93    69    72    1
    94    69    68    1
    95    72    74    1
    96    63    62    2
    97    66    65    1
    98    62    61    1
    99    65    67    1
   100    65    64    1
   101    61    64    1
   102    61    60    1
