@<TRIPOS>MOLECULE
tmp/6a2jA06.pdb
 88 89 0 0 0
SMALL
GASTEIGER

@<TRIPOS>ATOM
      1  N          1.5620  -16.4570    8.5170 N.3   184  THR184     -0.1218
      2  CA         0.8800  -17.1440    9.6110 C.3   184  THR184      0.1862
      3  C          1.8270  -18.1150   10.3070 C.2   184  THR184      0.2287
      4  O          1.7330  -18.3280   11.5220 O.2   184  THR184     -0.2866
      5  CB        -0.3700  -17.9400    9.1260 C.3   184  THR184      0.1770
      6  OG1        0.0390  -19.0520    8.3130 O.3   184  THR184     -0.2211
      7  CG2       -1.3130  -17.0300    8.3320 C.3   184  THR184      0.0375
      8  N          4.1700  -16.1760   12.3380 N.3   187  TYR187     -0.1241
      9  CA         3.3930  -15.6410   13.4440 C.3   187  TYR187      0.1605
     10  C          3.2730  -16.6680   14.5670 C.2   187  TYR187      0.2264
     11  O          3.2900  -16.3100   15.7470 O.2   187  TYR187     -0.2867
     12  CB         2.0010  -15.2240   12.9710 C.3   187  TYR187      0.0534
     13  CG         1.2590  -14.4090   14.0020 C.ar  187  TYR187     -0.0201
     14  CD1        1.7970  -13.2150   14.4910 C.ar  187  TYR187     -0.0009
     15  CD2        0.0200  -14.8220   14.4910 C.ar  187  TYR187     -0.0009
     16  CE1        1.1180  -12.4520   15.4430 C.ar  187  TYR187      0.0417
     17  CE2       -0.6680  -14.0660   15.4400 C.ar  187  TYR187      0.0417
     18  CZ        -0.1140  -12.8840   15.9130 C.ar  187  TYR187      0.1957
     19  OH        -0.7890  -12.1410   16.8580 O.3   187  TYR187     -0.2866
     20  N         -9.7090  -25.1460   18.9820 N.3   211  PRO211     -0.2102
     21  CA        -8.9980  -24.1390   19.7780 C.3   211  PRO211      0.1504
     22  C         -9.9380  -23.3390   20.6780 C.2   211  PRO211      0.2576
     23  O        -11.0570  -23.0000   20.2850 O.2   211  PRO211     -0.2718
     24  CB        -8.3270  -23.2710   18.7150 C.3   211  PRO211      0.0282
     25  CG        -9.2930  -23.3460   17.5740 C.3   211  PRO211      0.0208
     26  CD        -9.6560  -24.8110   17.5470 C.3   211  PRO211      0.0893
     27  N         -9.4720  -23.0530   21.8900 N.am  212  THR212     -0.1939
     28  CA       -10.2490  -22.2960   22.8640 C.3   212  THR212      0.2028
     29  C         -9.3490  -21.2750   23.5570 C.2   212  THR212      0.2642
     30  O         -9.7750  -20.5920   24.4840 O.2   212  THR212     -0.2714
     31  CB       -10.8560  -23.2230   23.9530 C.3   212  THR212      0.1808
     32  OG1       -9.8010  -23.9090   24.6430 O.3   212  THR212     -0.2208
     33  CG2      -11.8030  -24.2460   23.3350 C.3   212  THR212      0.0379
     34  N         -8.0980  -21.1930   23.1100 N.am  213  GLN213     -0.1963
     35  CA        -7.1250  -20.2680   23.6840 C.3   213  GLN213      0.1733
     36  C         -6.3140  -19.5930   22.5730 C.2   213  GLN213      0.2616
     37  O         -6.1950  -20.1240   21.4680 O.2   213  GLN213     -0.2715
     38  CB        -6.1790  -21.0160   24.6350 C.3   213  GLN213      0.0408
     39  CG        -6.8820  -21.7480   25.7740 C.3   213  GLN213      0.0908
     40  CD        -5.9150  -22.2840   26.8290 C.2   213  GLN213      0.2608
     41  OE1       -5.1940  -21.5160   27.4750 O.2   213  GLN213     -0.2717
     42  NE2       -5.9010  -23.6040   27.0100 N.am  213  GLN213     -0.0878
     43  N         -5.7540  -18.4240   22.8810 N.am  214  PHE214     -0.1974
     44  CA        -4.9620  -17.6580   21.9230 C.3   214  PHE214      0.1639
     45  C         -4.0110  -18.5080   21.0770 C.2   214  PHE214      0.2290
     46  O         -4.1760  -18.6260   19.8610 O.2   214  PHE214     -0.2864
     47  CB        -4.1480  -16.5790   22.6490 C.3   214  PHE214      0.0560
     48  CG        -3.2090  -15.8170   21.7420 C.ar  214  PHE214     -0.0200
     49  CD1       -3.7080  -14.9080   20.8060 C.ar  214  PHE214     -0.0042
     50  CD2       -1.8320  -16.0380   21.8000 C.ar  214  PHE214     -0.0042
     51  CE1       -2.8500  -14.2350   19.9430 C.ar  214  PHE214     -0.0003
     52  CE2       -0.9640  -15.3700   20.9410 C.ar  214  PHE214     -0.0003
     53  CZ        -1.4740  -14.4660   20.0100 C.ar  214  PHE214     -0.0000
     54  N         -5.5160  -20.9190   18.6740 N.3   217  TRP217     -0.1227
     55  CA        -6.1150  -20.3040   17.5010 C.3   217  TRP217      0.1737
     56  C         -5.0480  -19.9770   16.4650 C.2   217  TRP217      0.2595
     57  O         -5.2570  -20.1920   15.2670 O.2   217  TRP217     -0.2718
     58  CB        -6.8900  -19.0400   17.8840 C.3   217  TRP217      0.0564
     59  CG        -8.2340  -19.3690   18.4630 C.ar  217  TRP217      0.0003
     60  CD1       -8.5770  -19.4020   19.7870 C.ar  217  TRP217      0.0946
     61  CD2       -9.4020  -19.7770   17.7360 C.ar  217  TRP217      0.0152
     62  NE1       -9.8830  -19.8070   19.9290 N.ar  217  TRP217     -0.2442
     63  CE2      -10.4160  -20.0430   18.6890 C.ar  217  TRP217      0.0810
     64  CE3       -9.6900  -19.9450   16.3720 C.ar  217  TRP217      0.0012
     65  CZ2      -11.6990  -20.4650   18.3240 C.ar  217  TRP217      0.0191
     66  CZ3      -10.9710  -20.3670   16.0060 C.ar  217  TRP217      0.0001
     67  CH2      -11.9590  -20.6210   16.9840 C.ar  217  TRP217      0.0015
     68  N         -3.9080  -19.4610   16.9300 N.am  218  VAL218     -0.1980
     69  CA        -2.8070  -19.1320   16.0300 C.3   218  VAL218      0.1595
     70  C         -2.3220  -20.4230   15.3730 C.2   218  VAL218      0.2287
     71  O         -2.1850  -20.4940   14.1490 O.2   218  VAL218     -0.2864
     72  CB        -1.6290  -18.4520   16.7850 C.3   218  VAL218      0.0276
     73  CG1       -0.4380  -18.2660   15.8410 C.3   218  VAL218      0.0022
     74  CG2       -2.0750  -17.0870   17.3320 C.3   218  VAL218      0.0022
     75  N         -4.9730  -21.7020   12.9730 N.3   221  GLY221     -0.1210
     76  CA        -5.1340  -20.8230   11.8250 C.3   221  GLY221      0.1956
     77  C         -4.0550  -21.1460   10.8020 C.2   221  GLY221      0.2611
     78  O         -4.3030  -21.1940    9.5910 O.2   221  GLY221     -0.2717
     79  N         -2.8410  -21.3640   11.2920 N.am  222  HIS222     -0.1975
     80  CA        -1.7350  -21.7150   10.4210 C.3   222  HIS222      0.1656
     81  C         -2.0130  -23.0290    9.6670 C.2   222  HIS222      0.2291
     82  O         -1.8210  -23.1030    8.4500 O.2   222  HIS222     -0.2864
     83  CB        -0.4410  -21.8380   11.2300 C.3   222  HIS222      0.0771
     84  CG         0.7440  -22.1910   10.3970 C.ar  222  HIS222      0.0820
     85  ND1        1.0460  -21.5320    9.2230 N.ar  222  HIS222     -0.2267
     86  CD2        1.6820  -23.1560   10.5400 C.ar  222  HIS222      0.1154
     87  CE1        2.1160  -22.0780    8.6780 C.ar  222  HIS222      0.1986
     88  NE2        2.5240  -23.0650    9.4570 N.ar  222  HIS222     -0.2212
@<TRIPOS>BOND
     1     6     5    1
     2     7     5    1
     3    82    81    2
     4     1     2    1
     5    87    85   ar
     6    87    88   ar
     7     5     2    1
     8    85    84   ar
     9    88    86   ar
    10    78    77    2
    11     2     3    1
    12    81    80    1
    13     3     4    2
    14    84    86   ar
    15    84    83    1
    16    80    83    1
    17    80    79    1
    18    77    79   am
    19    77    76    1
    20    76    75    1
    21     8     9    1
    22    12     9    1
    23    12    13    1
    24     9    10    1
    25    13    14   ar
    26    13    15   ar
    27    71    70    2
    28    14    16   ar
    29    15    17   ar
    30    10    11    2
    31    57    56    2
    32    70    69    1
    33    17    18   ar
    34    16    18   ar
    35    73    72    1
    36    18    19    1
    37    66    64   ar
    38    66    67   ar
    39    69    72    1
    40    69    68    1
    41    64    61   ar
    42    56    68   am
    43    56    55    1
    44    72    74    1
    45    67    65   ar
    46    55    58    1
    47    55    54    1
    48    26    25    1
    49    26    20    1
    50    25    24    1
    51    61    59   ar
    52    61    63   ar
    53    58    59    1
    54    65    63   ar
    55    59    60   ar
    56    63    62   ar
    57    24    21    1
    58    20    21    1
    59    21    22    1
    60    60    62   ar
    61    46    45    2
    62    51    53   ar
    63    51    49   ar
    64    53    52   ar
    65    23    22    2
    66    22    27   am
    67    49    48   ar
    68    52    50   ar
    69    45    44    1
    70    37    36    2
    71    48    50   ar
    72    48    47    1
    73    27    28    1
    74    44    47    1
    75    44    43    1
    76    36    43   am
    77    36    35    1
    78    28    29    1
    79    28    31    1
    80    34    29   am
    81    34    35    1
    82    33    31    1
    83    29    30    2
    84    35    38    1
    85    31    32    1
    86    38    39    1
    87    39    40    1
    88    40    42   am
    89    40    41    2
