@<TRIPOS>MOLECULE
tmp/6a2jA13.pdb
 72 67 0 0 0
SMALL
GASTEIGER

@<TRIPOS>ATOM
      1  N         -2.6520  -33.6600   15.9080 N.3   200  VAL200     -0.1231
      2  CA        -2.7070  -33.3100   14.4860 C.3   200  VAL200      0.1678
      3  C         -3.7330  -34.2550   13.8620 C.2   200  VAL200      0.2434
      4  O         -3.6840  -35.4590   14.1040 O.2   200  VAL200     -0.2733
      5  CB        -1.3490  -33.5350   13.7740 C.3   200  VAL200      0.0265
      6  CG1       -1.5010  -33.2650   12.2780 C.3   200  VAL200      0.0020
      7  CG2       -0.2740  -32.6210   14.3710 C.3   200  VAL200      0.0020
      8  N         -4.6370  -33.7450   13.0080 N.am  201  PRO201     -0.2718
      9  CA        -4.8340  -32.3720   12.5260 C.3   201  PRO201      0.1535
     10  C         -5.4860  -31.4180   13.5160 C.2   201  PRO201      0.2598
     11  O         -5.3080  -30.2060   13.4270 O.2   201  PRO201     -0.2715
     12  CB        -5.6960  -32.5760   11.2870 C.3   201  PRO201      0.0310
     13  CG        -6.5990  -33.7000   11.7280 C.3   201  PRO201      0.0237
     14  CD        -5.6130  -34.6570   12.3800 C.3   201  PRO201      0.0939
     15  N         -6.2490  -31.9660   14.4520 N.am  202  LEU202     -0.1978
     16  CA        -6.9240  -31.1420   15.4420 C.3   202  LEU202      0.1596
     17  C         -5.9720  -30.7430   16.5620 C.2   202  LEU202      0.2287
     18  O         -4.8640  -31.2720   16.6650 O.2   202  LEU202     -0.2864
     19  CB        -8.1400  -31.8850   15.9970 C.3   202  LEU202      0.0297
     20  CG        -9.1550  -32.2580   14.9070 C.3   202  LEU202      0.0022
     21  CD1      -10.3300  -32.9950   15.5240 C.3   202  LEU202      0.0001
     22  CD2       -9.6280  -31.0000   14.1940 C.3   202  LEU202      0.0001
     23  N         -3.8670  -23.3930   14.9940 N.3   220  MET220     -0.1245
     24  CA        -4.9090  -23.8830   14.0900 C.3   220  MET220      0.1570
     25  C         -5.1250  -23.0200   12.8400 C.2   220  MET220      0.2261
     26  O         -5.4400  -23.5520   11.7750 O.2   220  MET220     -0.2867
     27  CB        -6.2350  -24.0370   14.8520 C.3   220  MET220      0.0387
     28  CG        -6.2420  -25.1980   15.8420 C.3   220  MET220      0.0595
     29  SD        -5.9790  -26.8020   15.0460 S.3   220  MET220     -0.1393
     30  CE        -4.5620  -27.3420   15.8610 C.3   220  MET220      0.0692
     31  N         -2.4690  -24.0550   10.3820 N.3   223  ARG223     -0.1231
     32  CA        -2.7650  -25.3490    9.7520 C.3   223  ARG223      0.1694
     33  C         -3.8730  -25.2210    8.7170 C.2   223  ARG223      0.2591
     34  O         -3.7890  -25.8030    7.6370 O.2   223  ARG223     -0.2718
     35  CB        -3.1700  -26.3890   10.8040 C.3   223  ARG223      0.0321
     36  CG        -2.1240  -26.6230   11.8770 C.3   223  ARG223      0.0489
     37  CD        -2.6020  -27.6290   12.9030 C.3   223  ARG223      0.2205
     38  NE        -1.5900  -27.8890   13.9240 N.pl3 223  ARG223     -0.0865
     39  CZ        -1.6970  -28.8130   14.8750 C.cat 223  ARG223      0.5346
     40  NH1       -2.7780  -29.5820   14.9420 N.pl3 223  ARG223      0.1354
     41  NH2       -0.7230  -28.9630   15.7640 N.pl3 223  ARG223      0.1354
     42  N         -4.9080  -24.4530    9.0540 N.am  224  ALA224     -0.1980
     43  CA        -6.0380  -24.2330    8.1560 C.3   224  ALA224      0.1597
     44  C         -5.5920  -23.4840    6.8980 C.2   224  ALA224      0.2287
     45  O         -6.0470  -23.7800    5.7910 O.2   224  ALA224     -0.2864
     46  CB        -7.1350  -23.4450    8.8790 C.3   224  ALA224      0.0319
     47  N         -2.5580  -23.5050    5.6970 N.3   226  ALA226     -0.1231
     48  CA        -1.6970  -24.4440    4.9800 C.3   226  ALA226      0.1694
     49  C         -2.4990  -25.4600    4.1560 C.2   226  ALA226      0.2591
     50  O         -2.1110  -25.8120    3.0360 O.2   226  ALA226     -0.2718
     51  CB        -0.8010  -25.1710    5.9680 C.3   226  ALA226      0.0304
     52  N         -3.6100  -25.9340    4.7230 N.am  227  LEU227     -0.1980
     53  CA        -4.4790  -26.8970    4.0490 C.3   227  LEU227      0.1596
     54  C         -5.0300  -26.3380    2.7320 C.2   227  LEU227      0.2287
     55  O         -5.0650  -27.0350    1.7170 O.2   227  LEU227     -0.2864
     56  CB        -5.6490  -27.2810    4.9600 C.3   227  LEU227      0.0297
     57  CG        -6.7500  -28.1160    4.2920 C.3   227  LEU227      0.0022
     58  CD1       -6.2040  -29.4750    3.8900 C.3   227  LEU227      0.0001
     59  CD2       -7.9150  -28.2760    5.2380 C.3   227  LEU227      0.0001
     60  N          4.3100  -29.7710    4.6840 N.3   265  ALA265     -0.1245
     61  CA         3.2500  -30.1720    5.5970 C.3   265  ALA265      0.1562
     62  C          3.7380  -31.2340    6.5720 C.2   265  ALA265      0.2260
     63  O          3.4880  -31.1450    7.7720 O.2   265  ALA265     -0.2867
     64  CB         2.0530  -30.6960    4.8060 C.3   265  ALA265      0.0290
     65  N          4.1100  -31.1440   10.6550 N.3   269  ILE269     -0.1245
     66  CA         3.5050  -32.0800   11.5890 C.3   269  ILE269      0.1561
     67  C          4.5820  -32.6350   12.5330 C.2   269  ILE269      0.2260
     68  O          4.3520  -32.7870   13.7300 O.2   269  ILE269     -0.2867
     69  CB         2.8060  -33.2360   10.8250 C.3   269  ILE269      0.0252
     70  CG1        1.6130  -32.6750   10.0410 C.3   269  ILE269      0.0019
     71  CG2        2.3480  -34.3300   11.8070 C.3   269  ILE269      0.0019
     72  CD1        0.8610  -33.7000    9.2170 C.3   269  ILE269      0.0001
@<TRIPOS>BOND
     1    55    54    2
     2    54    53    1
     3    50    49    2
     4    58    57    1
     5    53    52    1
     6    53    56    1
     7    49    52   am
     8    49    48    1
     9    57    56    1
    10    57    59    1
    11    60    61    1
    12    64    61    1
    13    48    47    1
    14    48    51    1
    15    61    62    1
    16    45    44    2
    17    62    63    2
    18    44    43    1
    19    34    33    2
    20    43    46    1
    21    43    42    1
    22    33    42   am
    23    33    32    1
    24    72    70    1
    25    32    31    1
    26    32    35    1
    27    70    69    1
    28    65    66    1
    29    35    36    1
    30    69    66    1
    31    69    71    1
    32    12    13    1
    33    12     9    1
    34    66    67    1
    35    13    14    1
    36    26    25    2
    37    36    37    1
    38     6     5    1
    39    14     8    1
    40     9     8    1
    41     9    10    1
    42    67    68    2
    43    25    24    1
    44    37    38    1
    45     8     3   am
    46    11    10    2
    47    10    15   am
    48     5     7    1
    49     5     2    1
    50     3     4    2
    51     3     2    1
    52    38    39    2
    53    24    27    1
    54    24    23    1
    55    22    20    1
    56    15    16    1
    57     2     1    1
    58    27    28    1
    59    39    40    1
    60    39    41    1
    61    20    21    1
    62    20    19    1
    63    29    28    1
    64    29    30    1
    65    16    19    1
    66    16    17    1
    67    17    18    2
