@<TRIPOS>MOLECULE
tmp/6a2wA17.pdb
 160 154 0 0 0
SMALL
GASTEIGER

@<TRIPOS>ATOM
      1  N         -9.7000  -19.7660   24.6410 N.3    15  PHE15      -0.1241
      2  CA       -10.9640  -20.4890   24.5110 C.3    15  PHE15       0.1605
      3  C        -11.3350  -20.5820   23.0370 C.2    15  PHE15       0.2264
      4  O        -11.8830  -19.6350   22.4580 O.2    15  PHE15      -0.2867
      5  CB       -12.0730  -19.8180   25.3190 C.3    15  PHE15       0.0534
      6  CG       -13.3220  -20.6450   25.4230 C.ar   15  PHE15      -0.0203
      7  CD1      -13.3540  -21.7760   26.2300 C.ar   15  PHE15      -0.0042
      8  CD2      -14.4600  -20.3040   24.7090 C.ar   15  PHE15      -0.0042
      9  CE1      -14.5010  -22.5490   26.3260 C.ar   15  PHE15      -0.0003
     10  CE2      -15.6140  -21.0730   24.8040 C.ar   15  PHE15      -0.0003
     11  CZ       -15.6310  -22.1960   25.6130 C.ar   15  PHE15      -0.0000
     12  N        -13.0810  -23.7110   21.4200 N.3    17  PRO17      -0.2102
     13  CA       -13.6040  -25.0870   21.4060 C.3    17  PRO17       0.1504
     14  C        -13.8380  -25.6490   20.0140 C.2    17  PRO17       0.2575
     15  O        -14.0500  -26.8630   19.8880 O.2    17  PRO17      -0.2718
     16  CB       -14.9230  -24.9700   22.1830 C.3    17  PRO17       0.0282
     17  CG       -15.3220  -23.5510   22.0220 C.3    17  PRO17       0.0208
     18  CD       -14.0380  -22.7690   22.0240 C.3    17  PRO17       0.0893
     19  N        -13.8160  -24.8270   18.9670 N.am   18  LEU18      -0.1980
     20  CA       -13.9330  -25.3320   17.6070 C.3    18  LEU18       0.1596
     21  C        -12.5890  -25.3980   16.8920 C.2    18  LEU18       0.2287
     22  O        -12.5560  -25.5370   15.6670 O.2    18  LEU18      -0.2864
     23  CB       -14.9170  -24.4820   16.8050 C.3    18  LEU18       0.0297
     24  CG       -16.3430  -24.4590   17.3560 C.3    18  LEU18       0.0022
     25  CD1      -17.2710  -23.7910   16.3710 C.3    18  LEU18       0.0001
     26  CD2      -16.8220  -25.8630   17.6690 C.3    18  LEU18       0.0001
     27  N        -17.5550   -6.7230   14.6290 N.3    39  HIS39      -0.1241
     28  CA       -18.8750   -7.0410   15.1710 C.3    39  HIS39       0.1621
     29  C        -19.0630   -6.3810   16.5290 C.2    39  HIS39       0.2264
     30  O        -20.1520   -5.8780   16.8440 O.2    39  HIS39      -0.2867
     31  CB       -19.0520   -8.5680   15.2910 C.3    39  HIS39       0.0745
     32  CG       -19.3700   -9.2610   13.9900 C.ar   39  HIS39       0.0817
     33  ND1      -18.4230   -9.4790   13.0140 N.ar   39  HIS39      -0.2268
     34  CD2      -20.5210   -9.8030   13.5230 C.ar   39  HIS39       0.1154
     35  CE1      -18.9760  -10.1220   11.9970 C.ar   39  HIS39       0.1986
     36  NE2      -20.2480  -10.3280   12.2770 N.ar   39  HIS39      -0.2212
     37  N        -19.7160   -2.5100   16.2680 N.3    42  ILE42      -0.1231
     38  CA       -21.0890   -2.3270   15.8100 C.3    42  ILE42       0.1692
     39  C        -22.0610   -2.6430   16.9350 C.2    42  ILE42       0.2592
     40  O        -23.0200   -1.9000   17.1770 O.2    42  ILE42      -0.2718
     41  CB       -21.3570   -3.2010   14.5800 C.3    42  ILE42       0.0266
     42  CG1      -20.5290   -2.6790   13.3990 C.3    42  ILE42       0.0019
     43  CG2      -22.8560   -3.2210   14.2010 C.3    42  ILE42       0.0020
     44  CD1      -20.4290   -3.6910   12.2440 C.3    42  ILE42       0.0001
     45  N        -21.8340   -3.7550   17.6380 N.am   43  SER43      -0.1952
     46  CA       -22.8000   -4.1600   18.6650 C.3    43  SER43       0.1924
     47  C        -22.7800   -3.2290   19.8620 C.2    43  SER43       0.2314
     48  O        -23.8260   -3.0150   20.4970 O.2    43  SER43      -0.2863
     49  CB       -22.5460   -5.5970   19.1030 C.3    43  SER43       0.2116
     50  OG       -22.6470   -6.4870   17.9860 O.3    43  SER43      -0.2180
     51  N        -24.9110   -0.5830   18.6950 N.3    46  ALA46      -0.1245
     52  CA       -26.2790   -1.0620   18.5240 C.3    46  ALA46       0.1562
     53  C        -27.0140   -1.1670   19.8570 C.2    46  ALA46       0.2260
     54  O        -28.1810   -0.7550   19.9690 O.2    46  ALA46      -0.2867
     55  CB       -26.2660   -2.4140   17.7800 C.3    46  ALA46       0.0290
     56  N        -27.8790    2.3400   20.9740 N.3    49  GLY49      -0.1210
     57  CA       -28.9370    2.8880   20.1430 C.3    49  GLY49       0.1956
     58  C        -30.2860    2.2580   20.4220 C.2    49  GLY49       0.2611
     59  O        -31.2930    2.9540   20.5100 O.2    49  GLY49      -0.2717
     60  N        -30.3250    0.9330   20.5690 N.am   50  TYR50      -0.1976
     61  CA       -31.5930    0.2790   20.8600 C.3    50  TYR50       0.1639
     62  C        -32.1600    0.7430   22.1930 C.2    50  TYR50       0.2290
     63  O        -33.3660    0.9930   22.3190 O.2    50  TYR50      -0.2864
     64  CB       -31.3970   -1.2240   20.8600 C.3    50  TYR50       0.0560
     65  CG       -32.6870   -1.9860   20.9000 C.ar   50  TYR50      -0.0198
     66  CD1      -33.3660   -2.1580   22.0860 C.ar   50  TYR50      -0.0009
     67  CD2      -33.2020   -2.5800   19.7380 C.ar   50  TYR50      -0.0009
     68  CE1      -34.5830   -2.8750   22.1240 C.ar   50  TYR50       0.0417
     69  CE2      -34.3730   -3.2940   19.7690 C.ar   50  TYR50       0.0417
     70  CZ       -35.0630   -3.4330   20.9700 C.ar   50  TYR50       0.1957
     71  OH       -36.2320   -4.1520   20.9960 O.3    50  TYR50      -0.2866
     72  N        -33.2430    4.5090   21.9140 N.3    53  GLN53      -0.1245
     73  CA       -34.4620    4.5850   21.1100 C.3    53  GLN53       0.1566
     74  C        -35.6310    3.9430   21.8340 C.2    53  GLN53       0.2260
     75  O        -36.7530    4.4510   21.7770 O.2    53  GLN53      -0.2867
     76  CB       -34.2360    3.9290   19.7390 C.3    53  GLN53       0.0367
     77  CG       -33.2070    4.6280   18.8550 C.3    53  GLN53       0.0905
     78  CD       -32.7570    3.7700   17.6700 C.2    53  GLN53       0.2608
     79  OE1      -31.6330    3.9230   17.1420 O.2    53  GLN53      -0.2717
     80  NE2      -33.6300    2.8460   17.2540 N.am   53  GLN53      -0.0878
     81  N        -39.2070    1.9020   17.6570 N.3    75  ASN75      -0.1225
     82  CA       -37.9100    1.2660   17.8330 C.3    75  ASN75       0.1785
     83  C        -37.9350   -0.1380   17.2300 C.2    75  ASN75       0.2598
     84  O        -39.0010   -0.7010   16.9370 O.2    75  ASN75      -0.2718
     85  CB       -37.5470    1.2030   19.3240 C.3    75  ASN75       0.1169
     86  CG       -36.1210    0.7390   19.5610 C.2    75  ASN75       0.2627
     87  OD1      -35.2150    1.0600   18.7970 O.2    75  ASN75      -0.2716
     88  ND2      -35.9240   -0.0350   20.6150 N.am   75  ASN75      -0.0877
     89  N        -36.7450   -0.7090   17.0590 N.am   76  GLY76      -0.1942
     90  CA       -36.6280   -2.0850   16.6140 C.3    76  GLY76       0.2014
     91  C        -36.6800   -2.2040   15.1080 C.2    76  GLY76       0.2638
     92  O        -36.5270   -1.2320   14.3660 O.2    76  GLY76      -0.2714
     93  N        -36.9260   -3.4310   14.6530 N.am   77  PHE77      -0.1973
     94  CA       -37.0950   -3.6740   13.2230 C.3    77  PHE77       0.1639
     95  C        -38.2420   -2.8680   12.6360 C.2    77  PHE77       0.2290
     96  O        -38.2090   -2.5270   11.4440 O.2    77  PHE77      -0.2864
     97  CB       -37.3200   -5.1640   12.9780 C.3    77  PHE77       0.0560
     98  CG       -36.1560   -6.0060   13.3720 C.ar   77  PHE77      -0.0200
     99  CD1      -34.9990   -5.9850   12.6230 C.ar   77  PHE77      -0.0042
    100  CD2      -36.2130   -6.8060   14.5080 C.ar   77  PHE77      -0.0042
    101  CE1      -33.8940   -6.7510   12.9930 C.ar   77  PHE77      -0.0003
    102  CE2      -35.1310   -7.5840   14.8770 C.ar   77  PHE77      -0.0003
    103  CZ       -33.9570   -7.5500   14.1180 C.ar   77  PHE77      -0.0000
    104  N        -38.8490    0.1050   12.8230 N.3    79  ALA79      -0.1231
    105  CA       -38.3790    1.3950   12.3240 C.3    79  ALA79       0.1694
    106  C        -38.2600    1.3860   10.8150 C.2    79  ALA79       0.2592
    107  O        -38.5060    2.4060   10.1570 O.2    79  ALA79      -0.2718
    108  CB       -37.0200    1.7660   12.9280 C.3    79  ALA79       0.0304
    109  N        -37.8700    0.2510   10.2420 N.am   80  PHE80      -0.1976
    110  CA       -37.6020    0.2600    8.8100 C.3    80  PHE80       0.1639
    111  C        -38.8720    0.3940    7.9870 C.2    80  PHE80       0.2290
    112  O        -38.7950    0.8230    6.8320 O.2    80  PHE80      -0.2864
    113  CB       -36.8010   -0.9830    8.4270 C.3    80  PHE80       0.0560
    114  CG       -35.4660   -1.0310    9.0880 C.ar   80  PHE80      -0.0200
    115  CD1      -34.4790   -0.1170    8.7500 C.ar   80  PHE80      -0.0042
    116  CD2      -35.2040   -1.9490   10.0770 C.ar   80  PHE80      -0.0042
    117  CE1      -33.2550   -0.1330    9.3770 C.ar   80  PHE80      -0.0003
    118  CE2      -33.9780   -1.9690   10.7060 C.ar   80  PHE80      -0.0003
    119  CZ       -33.0050   -1.0570   10.3600 C.ar   80  PHE80      -0.0000
    120  N        -22.1980   -7.9680   21.5170 N.3   148  GLN148     -0.1231
    121  CA       -22.6880   -8.8850   20.4850 C.3   148  GLN148      0.1698
    122  C        -23.7860   -9.7900   21.0380 C.2   148  GLN148      0.2592
    123  O        -24.8380   -9.9850   20.4150 O.2   148  GLN148     -0.2718
    124  CB       -21.5290   -9.7360   19.9470 C.3   148  GLN148      0.0381
    125  CG       -20.6080   -8.9990   18.9610 C.3   148  GLN148      0.0905
    126  CD       -19.4160   -9.8240   18.5360 C.2   148  GLN148      0.2608
    127  OE1      -19.5460  -10.7370   17.7410 O.2   148  GLN148     -0.2717
    128  NE2      -18.2440   -9.5130   19.0850 N.am  148  GLN148     -0.0878
    129  N        -23.5370  -10.3840   22.1930 N.am  149  MET149     -0.1979
    130  CA       -24.5550  -11.2230   22.7970 C.3   149  MET149      0.1605
    131  C        -25.7430  -10.3840   23.2390 C.2   149  MET149      0.2287
    132  O        -26.8970  -10.8400   23.1660 O.2   149  MET149     -0.2864
    133  CB       -23.9520  -11.9880   23.9730 C.3   149  MET149      0.0413
    134  CG       -22.7960  -12.9060   23.5990 C.3   149  MET149      0.0598
    135  SD       -23.2700  -14.0680   22.3170 S.3   149  MET149     -0.1393
    136  CE       -24.7020  -14.8390   23.0590 C.3   149  MET149      0.0692
    137  N        -26.9210   -7.4570   21.9210 N.3   151  ILE151     -0.1231
    138  CA       -27.7840   -7.0430   20.8130 C.3   151  ILE151      0.1692
    139  C        -28.4890   -8.2430   20.2050 C.2   151  ILE151      0.2591
    140  O        -29.6420   -8.1280   19.7690 O.2   151  ILE151     -0.2718
    141  CB       -27.0140   -6.2240   19.7560 C.3   151  ILE151      0.0266
    142  CG1      -27.9780   -5.6660   18.7070 C.3   151  ILE151      0.0019
    143  CG2      -25.9790   -7.0300   19.0130 C.3   151  ILE151      0.0020
    144  CD1      -28.9850   -4.6710   19.2880 C.3   151  ILE151      0.0001
    145  N        -27.8350   -9.4120   20.1580 N.am  152  LEU152     -0.1980
    146  CA       -28.5440  -10.5890   19.6580 C.3   152  LEU152      0.1596
    147  C        -29.7410  -10.9100   20.5410 C.2   152  LEU152      0.2287
    148  O        -30.8400  -11.1750   20.0390 O.2   152  LEU152     -0.2864
    149  CB       -27.6070  -11.7930   19.5730 C.3   152  LEU152      0.0297
    150  CG       -28.2300  -13.0930   19.0490 C.3   152  LEU152      0.0022
    151  CD1      -28.6800  -12.9750   17.5890 C.3   152  LEU152      0.0001
    152  CD2      -27.2610  -14.2390   19.2230 C.3   152  LEU152      0.0001
    153  N        -32.5610   -8.3090   19.7780 N.3   155  MET155     -0.1245
    154  CA       -33.2110   -8.5730   18.4960 C.3   155  MET155      0.1570
    155  C        -34.0520   -9.8400   18.5520 C.2   155  MET155      0.2261
    156  O        -35.1950   -9.8580   18.0770 O.2   155  MET155     -0.2867
    157  CB       -32.1630   -8.6770   17.3840 C.3   155  MET155      0.0387
    158  CG       -31.4460   -7.3690   17.1380 C.3   155  MET155      0.0595
    159  SD       -30.4030   -7.4040   15.6800 S.3   155  MET155     -0.1393
    160  CE       -29.3260   -8.7950   16.0690 C.3   155  MET155      0.0692
@<TRIPOS>BOND
     1   112   111    2
     2   111   110    1
     3   113   110    1
     4   113   114    1
     5   115   114   ar
     6   115   117   ar
     7   110   109    1
     8   114   116   ar
     9   117   119   ar
    10   116   118   ar
    11   107   106    2
    12   109   106   am
    13   119   118   ar
    14   106   105    1
    15    96    95    2
    16    35    36   ar
    17    35    33   ar
    18    44    42    1
    19    36    34   ar
    20   105   104    1
    21   105   108    1
    22    99   101   ar
    23    99    98   ar
    24    95    94    1
    25    97    94    1
    26    97    98    1
    27   101   103   ar
    28    33    32   ar
    29    94    93    1
    30    98   100   ar
    31    42    41    1
    32    34    32   ar
    33    32    31    1
    34   103   102   ar
    35    43    41    1
    36    92    91    2
    37   100   102   ar
    38    41    38    1
    39    27    28    1
    40    93    91   am
    41    91    90    1
    42    28    31    1
    43    28    29    1
    44    22    21    2
    45   159   160    1
    46   159   158    1
    47    38    37    1
    48    38    39    1
    49    25    24    1
    50    29    30    2
    51    90    89    1
    52    23    24    1
    53    23    20    1
    54    21    20    1
    55    39    40    2
    56    39    45   am
    57    84    83    2
    58    89    83   am
    59   158   157    1
    60    79    78    2
    61    83    82    1
    62    80    78   am
    63    24    26    1
    64   157   154    1
    65   151   150    1
    66    20    19    1
    67    45    46    1
    68    81    82    1
    69    78    77    1
    70   127   126    2
    71    55    52    1
    72    82    85    1
    73    50    49    1
    74   156   155    2
    75   154   155    1
    76   154   153    1
    77    52    51    1
    78    52    53    1
    79   126   125    1
    80   126   128   am
    81    46    49    1
    82    46    47    1
    83   142   144    1
    84   142   141    1
    85    87    86    2
    86    77    76    1
    87   125   124    1
    88    19    14   am
    89   143   141    1
    90   150   152    1
    91   150   149    1
    92    85    86    1
    93    86    88   am
    94   149   146    1
    95   146   145    1
    96   146   147    1
    97    67    69   ar
    98    67    65   ar
    99    76    73    1
   100   141   138    1
   101   140   139    2
   102    69    70   ar
   103    53    54    2
   104    47    48    2
   105    15    14    2
   106   124   121    1
   107    14    13    1
   108   148   147    2
   109    57    58    1
   110    57    56    1
   111   145   139   am
   112   139   138    1
   113   123   122    2
   114    58    59    2
   115    58    60   am
   116   121   122    1
   117   121   120    1
   118    60    61    1
   119   138   137    1
   120    61    64    1
   121    61    62    1
   122    64    65    1
   123    65    66   ar
   124    70    71    1
   125    70    68   ar
   126   122   129   am
   127    73    74    1
   128    73    72    1
   129    13    12    1
   130    13    16    1
   131    12    18    1
   132    75    74    2
   133    17    18    1
   134    17    16    1
   135    66    68   ar
   136   129   130    1
   137    62    63    2
   138   135   136    1
   139   135   134    1
   140     4     3    2
   141   130   131    1
   142   130   133    1
   143     3     2    1
   144   132   131    2
   145   134   133    1
   146     2     1    1
   147     2     5    1
   148     8    10   ar
   149     8     6   ar
   150    10    11   ar
   151     5     6    1
   152     6     7   ar
   153    11     9   ar
   154     7     9   ar
