@<TRIPOS>MOLECULE
tmp/6a2wA19.pdb
 116 109 0 0 0
SMALL
GASTEIGER

@<TRIPOS>ATOM
      1  N        -21.6180   -2.6730   20.2080 N.3    44  MET44      -0.1230
      2  CA       -21.6090   -1.6770   21.2730 C.3    44  MET44       0.1702
      3  C        -22.4830   -0.4900   20.8960 C.2    44  MET44       0.2592
      4  O        -23.2300    0.0210   21.7350 O.2    44  MET44      -0.2718
      5  CB       -20.1850   -1.2170   21.5900 C.3    44  MET44       0.0401
      6  CG       -19.3470   -2.2660   22.3250 C.3    44  MET44       0.0596
      7  SD       -17.7360   -1.6260   22.7820 S.3    44  MET44      -0.1393
      8  CE       -16.7610   -2.0620   21.3640 C.3    44  MET44       0.0692
      9  N        -22.3870   -0.0190   19.6420 N.am   45  LEU45      -0.1980
     10  CA       -23.2270    1.0990   19.2140 C.3    45  LEU45       0.1596
     11  C        -24.6800    0.6690   19.1300 C.2    45  LEU45       0.2287
     12  O        -25.5950    1.4480   19.4430 O.2    45  LEU45      -0.2864
     13  CB       -22.7570    1.6190   17.8460 C.3    45  LEU45       0.0297
     14  CG       -21.3600    2.2500   17.8130 C.3    45  LEU45       0.0022
     15  CD1      -21.0190    2.5540   16.3250 C.3    45  LEU45       0.0001
     16  CD2      -21.3010    3.5370   18.6720 C.3    45  LEU45       0.0001
     17  N        -26.3590   -1.6900   20.8990 N.3    47  VAL47      -0.1231
     18  CA       -27.0670   -1.8110   22.1670 C.3    47  VAL47       0.1692
     19  C        -27.4220   -0.4270   22.6960 C.2    47  VAL47       0.2591
     20  O        -28.5550   -0.1920   23.1470 O.2    47  VAL47      -0.2718
     21  CB       -26.2540   -2.6300   23.1930 C.3    47  VAL47       0.0266
     22  CG1      -24.8840   -2.0430   23.4050 C.3    47  VAL47       0.0020
     23  CG2      -27.0110   -2.6910   24.5330 C.3    47  VAL47       0.0020
     24  N        -26.4860    0.5220   22.6160 N.am   48  VAL48      -0.1980
     25  CA       -26.7980    1.8550   23.1130 C.3    48  VAL48       0.1595
     26  C        -27.9390    2.4620   22.3010 C.2    48  VAL48       0.2287
     27  O        -28.8980    2.9940   22.8640 O.2    48  VAL48      -0.2864
     28  CB       -25.5470    2.7510   23.1090 C.3    48  VAL48       0.0276
     29  CG1      -25.9550    4.1630   23.3870 C.3    48  VAL48       0.0022
     30  CG2      -24.5450    2.2970   24.2020 C.3    48  VAL48       0.0022
     31  N        -31.3100    0.8510   23.2070 N.3    51  LEU51      -0.1245
     32  CA       -31.8110    1.2660   24.5070 C.3    51  LEU51       0.1561
     33  C        -32.2430    2.7300   24.4830 C.2    51  LEU51       0.2260
     34  O        -33.2940    3.0790   25.0240 O.2    51  LEU51      -0.2867
     35  CB       -30.7440    1.0380   25.5620 C.3    51  LEU51       0.0270
     36  CG       -30.2950   -0.3970   25.8300 C.3    51  LEU51       0.0019
     37  CD1      -29.2130   -0.3560   26.9330 C.3    51  LEU51       0.0001
     38  CD2      -31.4850   -1.2760   26.2570 C.3    51  LEU51       0.0001
     39  N         -6.3090   10.4810   19.5830 N.3   123  PHE123     -0.1241
     40  CA        -6.4880   11.2380   20.8140 C.3   123  PHE123      0.1605
     41  C         -5.3840   10.9850   21.8300 C.2   123  PHE123      0.2264
     42  O         -5.5210   11.3990   22.9830 O.2   123  PHE123     -0.2867
     43  CB        -7.8560   10.9240   21.4350 C.3   123  PHE123      0.0534
     44  CG        -9.0120   11.2990   20.5570 C.ar  123  PHE123     -0.0203
     45  CD1       -9.4160   12.6150   20.4510 C.ar  123  PHE123     -0.0042
     46  CD2       -9.6860   10.3360   19.8260 C.ar  123  PHE123     -0.0042
     47  CE1      -10.4790   12.9590   19.6440 C.ar  123  PHE123     -0.0003
     48  CE2      -10.7550   10.6750   19.0100 C.ar  123  PHE123     -0.0003
     49  CZ       -11.1500   11.9850   18.9150 C.ar  123  PHE123     -0.0000
     50  N        -15.8770   -5.7330   25.8270 N.3   143  GLN143     -0.1245
     51  CA       -17.1350   -5.0010   25.7050 C.3   143  GLN143      0.1566
     52  C        -17.8140   -5.3490   24.3960 C.2   143  GLN143      0.2260
     53  O        -19.0330   -5.5590   24.3520 O.2   143  GLN143     -0.2867
     54  CB       -16.9130   -3.4830   25.7970 C.3   143  GLN143      0.0367
     55  CG       -16.2850   -3.0460   27.1030 C.3   143  GLN143      0.0905
     56  CD       -17.1900   -3.3430   28.2780 C.2   143  GLN143      0.2608
     57  OE1      -18.2070   -2.6840   28.4590 O.2   143  GLN143     -0.2717
     58  NE2      -16.8400   -4.3560   29.0620 N.am  143  GLN143     -0.0878
     59  N        -19.4230   -8.8620   24.7560 N.3   146  ALA146     -0.1231
     60  CA       -20.6360   -8.7930   25.5530 C.3   146  ALA146      0.1694
     61  C        -21.7570   -8.1280   24.7740 C.2   146  ALA146      0.2591
     62  O        -22.9050   -8.5740   24.8180 O.2   146  ALA146     -0.2718
     63  CB       -20.3560   -8.0350   26.8460 C.3   146  ALA146      0.0304
     64  N        -21.4430   -7.0520   24.0540 N.am  147  ALA147     -0.1980
     65  CA       -22.4830   -6.3340   23.3310 C.3   147  ALA147      0.1597
     66  C        -23.0360   -7.1530   22.1660 C.2   147  ALA147      0.2287
     67  O        -24.2170   -7.0210   21.8280 O.2   147  ALA147     -0.2864
     68  CB       -21.9280   -4.9960   22.8480 C.3   147  ALA147      0.0319
     69  N        -23.5370  -10.3840   22.1930 N.3   149  MET149     -0.1230
     70  CA       -24.5550  -11.2230   22.7970 C.3   149  MET149      0.1702
     71  C        -25.7430  -10.3840   23.2390 C.2   149  MET149      0.2592
     72  O        -26.8970  -10.8400   23.1660 O.2   149  MET149     -0.2718
     73  CB       -23.9520  -11.9880   23.9730 C.3   149  MET149      0.0401
     74  CG       -22.7960  -12.9060   23.5990 C.3   149  MET149      0.0596
     75  SD       -23.2700  -14.0680   22.3170 S.3   149  MET149     -0.1393
     76  CE       -24.7020  -14.8390   23.0590 C.3   149  MET149      0.0692
     77  N        -25.4810   -9.1590   23.7090 N.am  150  GLY150     -0.1957
     78  CA       -26.5710   -8.3090   24.1720 C.3   150  GLY150      0.1869
     79  C        -27.4980   -7.9130   23.0340 C.2   150  GLY150      0.2309
     80  O        -28.7260   -8.0200   23.1430 O.2   150  GLY150     -0.2863
     81  N        -29.5480  -10.8480   21.8610 N.3   153  ALA153     -0.1231
     82  CA       -30.6330  -11.0520   22.8180 C.3   153  ALA153      0.1694
     83  C        -31.7890  -10.0990   22.5660 C.2   153  ALA153      0.2591
     84  O        -32.9520  -10.5100   22.5570 O.2   153  ALA153     -0.2718
     85  CB       -30.1090  -10.8700   24.2460 C.3   153  ALA153      0.0304
     86  N        -31.4930   -8.8120   22.3690 N.am  154  LEU154     -0.1980
     87  CA       -32.5710   -7.8430   22.1820 C.3   154  LEU154      0.1596
     88  C        -33.3010   -8.0760   20.8650 C.2   154  LEU154      0.2287
     89  O        -34.5410   -8.0420   20.8220 O.2   154  LEU154     -0.2864
     90  CB       -32.0090   -6.4210   22.2560 C.3   154  LEU154      0.0297
     91  CG       -31.5390   -5.9300   23.6440 C.3   154  LEU154      0.0022
     92  CD1      -30.6310   -4.7200   23.4790 C.3   154  LEU154      0.0001
     93  CD2      -32.7070   -5.5890   24.6070 C.3   154  LEU154      0.0001
     94  N        -37.0470   -8.0380   27.3260 N.3   164  LEU164     -0.1231
     95  CA       -35.9770   -8.1140   28.3160 C.3   164  LEU164      0.1693
     96  C        -35.7850   -6.8020   29.0580 C.2   164  LEU164      0.2592
     97  O        -34.8460   -6.6780   29.8560 O.2   164  LEU164     -0.2718
     98  CB       -34.6570   -8.5180   27.6490 C.3   164  LEU164      0.0284
     99  CG       -34.6880   -9.8900   26.9860 C.3   164  LEU164      0.0019
    100  CD1      -33.3500  -10.1910   26.3360 C.3   164  LEU164      0.0001
    101  CD2      -35.0470  -10.9480   28.0140 C.3   164  LEU164      0.0001
    102  N        -36.6420   -5.8190   28.8010 N.am  165  LEU165     -0.1966
    103  CA       -36.4830   -4.4850   29.3120 C.3   165  LEU165      0.1713
    104  C        -37.6650   -4.1430   30.2050 C.2   165  LEU165      0.2458
    105  O        -38.7760   -4.6100   29.9470 O.2   165  LEU165     -0.2730
    106  CB       -36.3660   -3.4880   28.1470 C.3   165  LEU165      0.0310
    107  CG       -35.1230   -3.7360   27.2830 C.3   165  LEU165      0.0022
    108  CD1      -35.1230   -2.8670   26.0340 C.3   165  LEU165      0.0001
    109  CD2      -33.8470   -3.5020   28.0820 C.3   165  LEU165      0.0001
    110  N        -37.4570   -3.3680   31.2850 N.am  166  PRO166     -0.2727
    111  CA       -38.5660   -3.0170   32.1880 C.3   166  PRO166      0.1402
    112  C        -39.6340   -2.1930   31.4780 C.2   166  PRO166      0.2269
    113  O        -40.6320   -2.7190   30.9860 O.2   166  PRO166     -0.2865
    114  CB       -37.8930   -2.1830   33.2900 C.3   166  PRO166      0.0296
    115  CG       -36.4010   -2.3030   33.0510 C.3   166  PRO166      0.0237
    116  CD       -36.2090   -2.6630   31.6230 C.3   166  PRO166      0.0939
@<TRIPOS>BOND
     1    15    14    1
     2    14    13    1
     3    14    16    1
     4    13    10    1
     5    49    48   ar
     6    49    47   ar
     7    48    46   ar
     8    11    10    1
     9    11    12    2
    10    10     9    1
    11    39    40    1
    12     9     3   am
    13    47    45   ar
    14    46    44   ar
    15     1     2    1
    16    45    44   ar
    17    44    43    1
    18    40    43    1
    19    40    41    1
    20    89    88    2
    21    88    87    1
    22     3     2    1
    23     3     4    2
    24    17    18    1
    25     2     5    1
    26     8     7    1
    27     5     6    1
    28    67    66    2
    29    41    42    2
    30    81    82    1
    31    66    65    1
    32    18    19    1
    33    18    21    1
    34    87    90    1
    35    87    86    1
    36    69    70    1
    37    90    91    1
    38    26    27    2
    39    26    25    1
    40    75    76    1
    41    75    74    1
    42     6     7    1
    43    86    83   am
    44    84    83    2
    45    83    82    1
    46    24    19   am
    47    24    25    1
    48    19    20    2
    49    70    71    1
    50    70    73    1
    51    82    85    1
    52    68    65    1
    53    79    80    2
    54    79    78    1
    55    28    25    1
    56    28    29    1
    57    28    30    1
    58    72    71    2
    59    21    22    1
    60    21    23    1
    61    31    32    1
    62    71    77   am
    63    65    64    1
    64    92    91    1
    65    74    73    1
    66    91    93    1
    67    77    78    1
    68    64    61   am
    69    53    52    2
    70    52    51    1
    71    33    32    1
    72    33    34    2
    73    32    35    1
    74    59    60    1
    75    61    62    2
    76    61    60    1
    77    60    63    1
    78    35    36    1
    79    51    54    1
    80    51    50    1
    81    54    55    1
    82    36    38    1
    83    36    37    1
    84   108   107    1
    85   100    99    1
    86    99    98    1
    87    99   101    1
    88    55    56    1
    89   107   109    1
    90   107   106    1
    91    94    95    1
    92    98    95    1
    93   106   103    1
    94    56    57    2
    95    56    58   am
    96    95    96    1
    97   102    96   am
    98   102   103    1
    99    96    97    2
   100   103   104    1
   101   105   104    2
   102   104   110   am
   103   113   112    2
   104   110   116    1
   105   110   111    1
   106   112   111    1
   107   116   115    1
   108   111   114    1
   109   115   114    1
