@<TRIPOS>MOLECULE
tmp/6a2wA04.pdb
 181 177 0 0 0
SMALL
GASTEIGER

@<TRIPOS>ATOM
      1  N        -17.6160   -3.5570   17.8250 N.3    41  ARG41      -0.1245
      2  CA       -17.8350   -2.1140   17.7620 C.3    41  ARG41       0.1563
      3  C        -19.2510   -1.8020   17.2990 C.2    41  ARG41       0.2260
      4  O        -19.9280   -0.9260   17.8610 O.2    41  ARG41      -0.2867
      5  CB       -16.8190   -1.4780   16.8140 C.3    41  ARG41       0.0307
      6  CG       -15.3730   -1.5650   17.3320 C.3    41  ARG41       0.0489
      7  CD       -14.4160   -1.0020   16.2980 C.3    41  ARG41       0.2205
      8  NE       -13.0930   -0.7460   16.8810 N.pl3  41  ARG41      -0.0865
      9  CZ       -11.9730   -0.6380   16.1690 C.cat  41  ARG41       0.5346
     10  NH1      -11.9740   -0.7730   14.8330 N.pl3  41  ARG41       0.1354
     11  NH2      -10.8470   -0.3930   16.7980 N.pl3  41  ARG41       0.1354
     12  N        -21.6180   -2.6730   20.2080 N.3    44  MET44      -0.1230
     13  CA       -21.6090   -1.6770   21.2730 C.3    44  MET44       0.1702
     14  C        -22.4830   -0.4900   20.8960 C.2    44  MET44       0.2592
     15  O        -23.2300    0.0210   21.7350 O.2    44  MET44      -0.2718
     16  CB       -20.1850   -1.2170   21.5900 C.3    44  MET44       0.0401
     17  CG       -19.3470   -2.2660   22.3250 C.3    44  MET44       0.0596
     18  SD       -17.7360   -1.6260   22.7820 S.3    44  MET44      -0.1393
     19  CE       -16.7610   -2.0620   21.3640 C.3    44  MET44       0.0692
     20  N        -22.3870   -0.0190   19.6420 N.am   45  LEU45      -0.1980
     21  CA       -23.2270    1.0990   19.2140 C.3    45  LEU45       0.1596
     22  C        -24.6800    0.6690   19.1300 C.2    45  LEU45       0.2287
     23  O        -25.5950    1.4480   19.4430 O.2    45  LEU45      -0.2864
     24  CB       -22.7570    1.6190   17.8460 C.3    45  LEU45       0.0297
     25  CG       -21.3600    2.2500   17.8130 C.3    45  LEU45       0.0022
     26  CD1      -21.0190    2.5540   16.3250 C.3    45  LEU45       0.0001
     27  CD2      -21.3010    3.5370   18.6720 C.3    45  LEU45       0.0001
     28  N        -13.2750    3.4530    7.1460 N.3   103  MET103     -0.1245
     29  CA       -13.0500    2.5510    8.2780 C.3   103  MET103      0.1570
     30  C        -12.2430    1.3400    7.8180 C.2   103  MET103      0.2261
     31  O        -12.7350    0.2140    7.7310 O.2   103  MET103     -0.2867
     32  CB       -14.3780    2.1260    8.8870 C.3   103  MET103      0.0387
     33  CG       -15.1490    3.2720    9.5080 C.3   103  MET103      0.0595
     34  SD       -14.2360    3.8470   10.9560 S.3   103  MET103     -0.1393
     35  CE       -15.1570    5.3320   11.3650 C.3   103  MET103      0.0692
     36  N         -2.0430   -2.8420   14.4750 N.3   112  PHE112     -0.1241
     37  CA        -2.6910   -4.1330   14.6270 C.3   112  PHE112      0.1605
     38  C         -4.0590   -4.0160   13.9710 C.2   112  PHE112      0.2264
     39  O         -4.5450   -2.9060   13.7220 O.2   112  PHE112     -0.2867
     40  CB        -2.8180   -4.5280   16.1070 C.3   112  PHE112      0.0534
     41  CG        -3.1880   -3.3800   17.0070 C.ar  112  PHE112     -0.0203
     42  CD1       -4.4800   -2.8820   17.0220 C.ar  112  PHE112     -0.0042
     43  CD2       -2.2270   -2.7890   17.8240 C.ar  112  PHE112     -0.0042
     44  CE1       -4.8320   -1.8100   17.8340 C.ar  112  PHE112     -0.0003
     45  CE2       -2.5530   -1.7170   18.6560 C.ar  112  PHE112     -0.0003
     46  CZ        -3.8740   -1.2310   18.6630 C.ar  112  PHE112     -0.0000
     47  N         -7.7870   -3.5010   13.2470 N.3   114  GLY114     -0.1210
     48  CA        -8.7680   -2.6480   13.8760 C.3   114  GLY114      0.1956
     49  C         -8.2770   -1.2460   14.1450 C.2   114  GLY114      0.2612
     50  O         -9.0890   -0.3720   14.4720 O.2   114  GLY114     -0.2717
     51  N         -6.9820   -1.0060   13.9800 N.am  115  ASP115     -0.1959
     52  CA        -6.3810    0.3160   14.1160 C.3   115  ASP115      0.1840
     53  C         -6.6250    1.0850   12.8210 C.2   115  ASP115      0.2622
     54  O         -5.9260    0.8710   11.8390 O.2   115  ASP115     -0.2715
     55  CB        -4.8860    0.1830   14.3980 C.3   115  ASP115      0.1450
     56  CG        -4.2140    1.5230   14.5460 C.2   115  ASP115      0.3671
     57  OD1       -4.9570    2.5250   14.6930 O.co2 115  ASP115     -0.2456
     58  OD2       -2.9680    1.5780   14.5590 O.co2 115  ASP115     -0.2456
     59  N         -7.6140    1.9870   12.8190 N.am  116  PHE116     -0.1960
     60  CA        -7.9630    2.7800   11.6510 C.3   116  PHE116      0.1771
     61  C         -7.5070    4.2300   11.7600 C.2   116  PHE116      0.2619
     62  O         -7.9670    5.0670   10.9660 O.2   116  PHE116     -0.2715
     63  CB        -9.4780    2.7600   11.4120 C.3   116  PHE116      0.0574
     64  CG       -10.0610    1.3850   11.1790 C.ar  116  PHE116     -0.0200
     65  CD1       -9.2860    0.3520   10.6710 C.ar  116  PHE116     -0.0042
     66  CD2      -11.4100    1.1440   11.4580 C.ar  116  PHE116     -0.0042
     67  CE1       -9.8480   -0.9150   10.4580 C.ar  116  PHE116     -0.0003
     68  CE2      -11.9780   -0.1230   11.2540 C.ar  116  PHE116     -0.0003
     69  CZ       -11.1940   -1.1420   10.7420 C.ar  116  PHE116     -0.0000
     70  N         -6.6520    4.5610   12.7380 N.am  117  ARG117     -0.1977
     71  CA        -6.2610    5.9550   12.9390 C.3   117  ARG117      0.1597
     72  C         -5.7240    6.5760   11.6550 C.2   117  ARG117      0.2287
     73  O         -5.9580    7.7620   11.3810 O.2   117  ARG117     -0.2864
     74  CB        -5.2130    6.0510   14.0410 C.3   117  ARG117      0.0334
     75  CG        -5.7690    5.8010   15.4370 C.3   117  ARG117      0.0492
     76  CD        -4.5670    5.7630   16.3490 C.3   117  ARG117      0.2205
     77  NE        -3.7190    4.6040   16.0460 N.pl3 117  ARG117     -0.0865
     78  CZ        -2.4720    4.4620   16.4800 C.cat 117  ARG117      0.5346
     79  NH1       -1.9060    5.4230   17.2000 N.pl3 117  ARG117      0.1354
     80  NH2       -1.7720    3.3730   16.1930 N.pl3 117  ARG117      0.1354
     81  N         -6.1160   10.7600   16.1890 N.3   122  ASP122     -0.1225
     82  CA        -5.4840   10.0890   17.3220 C.3   122  ASP122      0.1805
     83  C         -5.6440   10.9820   18.5440 C.2   122  ASP122      0.2598
     84  O         -5.1710   12.1220   18.5390 O.2   122  ASP122     -0.2718
     85  CB        -4.0040    9.8290   17.0230 C.3   122  ASP122      0.1424
     86  CG        -3.3440    8.8850   18.0200 C.2   122  ASP122      0.3668
     87  OD1       -3.8590    8.7460   19.1510 O.co2 122  ASP122     -0.2456
     88  OD2       -2.2800    8.3010   17.6800 O.co2 122  ASP122     -0.2456
     89  N         -6.3090   10.4810   19.5830 N.am  123  PHE123     -0.1962
     90  CA        -6.4880   11.2380   20.8140 C.3   123  PHE123      0.1771
     91  C         -5.3840   10.9850   21.8300 C.2   123  PHE123      0.2620
     92  O         -5.5210   11.3990   22.9830 O.2   123  PHE123     -0.2715
     93  CB        -7.8560   10.9240   21.4350 C.3   123  PHE123      0.0574
     94  CG        -9.0120   11.2990   20.5570 C.ar  123  PHE123     -0.0200
     95  CD1       -9.4160   12.6150   20.4510 C.ar  123  PHE123     -0.0042
     96  CD2       -9.6860   10.3360   19.8260 C.ar  123  PHE123     -0.0042
     97  CE1      -10.4790   12.9590   19.6440 C.ar  123  PHE123     -0.0003
     98  CE2      -10.7550   10.6750   19.0100 C.ar  123  PHE123     -0.0003
     99  CZ       -11.1500   11.9850   18.9150 C.ar  123  PHE123     -0.0000
    100  N         -4.3010   10.3210   21.4410 N.am  124  GLY124     -0.1940
    101  CA        -3.1710   10.1540   22.3380 C.3   124  GLY124      0.2014
    102  C         -2.8140    8.7140   22.6620 C.2   124  GLY124      0.2638
    103  O         -2.4040    8.4100   23.7930 O.2   124  GLY124     -0.2714
    104  N         -2.9620    7.8190   21.6810 N.am  125  TRP125     -0.1973
    105  CA        -2.6210    6.4130   21.8760 C.3   125  TRP125      0.1640
    106  C         -1.2720    6.2200   22.5750 C.2   125  TRP125      0.2290
    107  O         -1.1440    5.3850   23.4850 O.2   125  TRP125     -0.2864
    108  CB        -2.6290    5.6920   20.5270 C.3   125  TRP125      0.0576
    109  CG        -2.4980    4.2140   20.6340 C.ar  125  TRP125      0.0006
    110  CD1       -1.5790    3.4120   19.9920 C.ar  125  TRP125      0.0946
    111  CD2       -3.2910    3.3460   21.4510 C.ar  125  TRP125      0.0152
    112  NE1       -1.7800    2.0970   20.3550 N.ar  125  TRP125     -0.2442
    113  CE2       -2.8170    2.0330   21.2500 C.ar  125  TRP125      0.0810
    114  CE3       -4.3500    3.5520   22.3490 C.ar  125  TRP125      0.0012
    115  CZ2       -3.3820    0.9330   21.8960 C.ar  125  TRP125      0.0191
    116  CZ3       -4.9050    2.4550   22.9930 C.ar  125  TRP125      0.0001
    117  CH2       -4.4050    1.1640   22.7660 C.ar  125  TRP125      0.0015
    118  N          0.1980    8.0310   24.6650 N.3   127  THR127     -0.1203
    119  CA         0.3090    8.4410   26.0560 C.3   127  THR127      0.1994
    120  C         -0.0290    7.3080   27.0150 C.2   127  THR127      0.2617
    121  O          0.2070    7.4450   28.2180 O.2   127  THR127     -0.2717
    122  CB        -0.5740    9.6620   26.3450 C.3   127  THR127      0.1784
    123  OG1       -1.9460    9.2980   26.2600 O.3   127  THR127     -0.2211
    124  CG2       -0.2950   10.7690   25.3440 C.3   127  THR127      0.0376
    125  N         -0.5550    6.1970   26.5190 N.am  128  PHE128     -0.1975
    126  CA        -0.7160    4.9970   27.3240 C.3   128  PHE128      0.1639
    127  C          0.5730    4.1880   27.2630 C.2   128  PHE128      0.2290
    128  O          1.2020    4.0930   26.2050 O.2   128  PHE128     -0.2864
    129  CB        -1.8810    4.1420   26.8110 C.3   128  PHE128      0.0560
    130  CG        -3.2240    4.8230   26.8160 C.ar  128  PHE128     -0.0200
    131  CD1       -3.6810    5.5160   27.9280 C.ar  128  PHE128     -0.0042
    132  CD2       -4.0540    4.7290   25.7030 C.ar  128  PHE128     -0.0042
    133  CE1       -4.9340    6.1130   27.9160 C.ar  128  PHE128     -0.0003
    134  CE2       -5.2930    5.3130   25.6890 C.ar  128  PHE128     -0.0003
    135  CZ        -5.7390    6.0090   26.7960 C.ar  128  PHE128     -0.0000
    136  N         -6.6270   -1.4460   27.3000 N.3   136  LYS136     -0.1231
    137  CA        -7.6770   -0.7540   26.5660 C.3   136  LYS136      0.1693
    138  C         -8.1410   -1.5730   25.3670 C.2   136  LYS136      0.2591
    139  O         -9.3340   -1.5960   25.0410 O.2   136  LYS136     -0.2718
    140  CB        -7.1970    0.6270   26.1130 C.3   136  LYS136      0.0285
    141  CG        -6.8800    1.5930   27.2390 C.3   136  LYS136      0.0035
    142  CD        -8.0260    1.7670   28.2130 C.3   136  LYS136      0.0206
    143  CE        -7.6260    2.7750   29.2540 C.3   136  LYS136      0.1093
    144  NZ        -8.7320    3.0760   30.2040 N.3   136  LYS136     -0.1314
    145  N         -7.2170   -2.2780   24.7100 N.am  137  ARG137     -0.1980
    146  CA        -7.6310   -3.1280   23.5890 C.3   137  ARG137      0.1597
    147  C         -8.4710   -4.2960   24.0800 C.2   137  ARG137      0.2287
    148  O         -9.4090   -4.7350   23.3980 O.2   137  ARG137     -0.2864
    149  CB        -6.4120   -3.6390   22.8280 C.3   137  ARG137      0.0334
    150  CG        -5.6440   -2.5700   22.0650 C.3   137  ARG137      0.0492
    151  CD        -4.2880   -3.1130   21.6410 C.3   137  ARG137      0.2205
    152  NE        -4.4350   -4.1120   20.5870 N.pl3 137  ARG137     -0.0865
    153  CZ        -3.4890   -4.9740   20.2330 C.cat 137  ARG137      0.5346
    154  NH1       -2.3030   -4.9710   20.8540 N.pl3 137  ARG137      0.1354
    155  NH2       -3.7310   -5.8270   19.2490 N.pl3 137  ARG137      0.1354
    156  N        -10.4060   -4.2720   26.8090 N.3   139  ILE139     -0.1231
    157  CA       -11.7290   -3.7400   27.1350 C.3   139  ILE139      0.1692
    158  C        -12.5320   -3.5550   25.8610 C.2   139  ILE139      0.2591
    159  O        -13.6980   -3.9540   25.7750 O.2   139  ILE139     -0.2718
    160  CB       -11.6230   -2.4240   27.9220 C.3   139  ILE139      0.0266
    161  CG1      -10.9430   -2.6540   29.2700 C.3   139  ILE139      0.0019
    162  CG2      -13.0620   -1.8020   28.1670 C.3   139  ILE139      0.0020
    163  CD1      -10.6020   -1.3770   29.9870 C.3   139  ILE139      0.0001
    164  N        -11.9140   -2.9690   24.8360 N.am  140  GLU140     -0.1979
    165  CA       -12.6590   -2.7550   23.6010 C.3   140  GLU140      0.1602
    166  C        -13.1940   -4.0740   23.0630 C.2   140  GLU140      0.2287
    167  O        -14.3660   -4.1790   22.6870 O.2   140  GLU140     -0.2864
    168  CB       -11.7710   -2.0840   22.5530 C.3   140  GLU140      0.0415
    169  CG       -12.5050   -1.8170   21.2310 C.3   140  GLU140      0.1163
    170  CD       -11.5760   -1.2830   20.1320 C.2   140  GLU140      0.3649
    171  OE1      -10.5570   -1.9580   19.8310 O.co2 140  GLU140     -0.2457
    172  OE2      -11.8670   -0.1770   19.5910 O.co2 140  GLU140     -0.2457
    173  N        -15.8770   -5.7330   25.8270 N.3   143  GLN143     -0.1245
    174  CA       -17.1350   -5.0010   25.7050 C.3   143  GLN143      0.1566
    175  C        -17.8140   -5.3490   24.3960 C.2   143  GLN143      0.2260
    176  O        -19.0330   -5.5590   24.3520 O.2   143  GLN143     -0.2867
    177  CB       -16.9130   -3.4830   25.7970 C.3   143  GLN143      0.0367
    178  CG       -16.2850   -3.0460   27.1030 C.3   143  GLN143      0.0905
    179  CD       -17.1900   -3.3430   28.2780 C.2   143  GLN143      0.2608
    180  OE1      -18.2070   -2.6840   28.4590 O.2   143  GLN143     -0.2717
    181  NE2      -16.8400   -4.3560   29.0620 N.am  143  GLN143     -0.0878
@<TRIPOS>BOND
     1    28    29    1
     2    31    30    2
     3    30    29    1
     4    29    32    1
     5    32    33    1
     6    33    34    1
     7    67    65   ar
     8    67    69   ar
     9    65    64   ar
    10    69    68   ar
    11    34    35    1
    12    62    61    2
    13    64    63    1
    14    64    66   ar
    15    68    66   ar
    16    73    72    2
    17    63    60    1
    18    60    61    1
    19    60    59    1
    20    72    71    1
    21    61    70   am
    22    54    53    2
    23    70    71    1
    24    59    53   am
    25    53    52    1
    26    71    74    1
    27    47    48    1
    28    39    38    2
    29    48    49    1
    30    38    37    1
    31    51    52    1
    32    51    49   am
    33    74    75    1
    34    52    55    1
    35    49    50    2
    36    55    56    1
    37    36    37    1
    38    56    58   ar
    39    56    57   ar
    40    37    40    1
    41    10     9    1
    42    75    76    1
    43    77    76    1
    44    77    78    2
    45    40    41    1
    46     9    11    1
    47     9     8    2
    48    81    82    1
    49    80    78    1
    50     7     8    1
    51     7     6    1
    52    26    25    1
    53    78    79    1
    54     5     6    1
    55     5     2    1
    56    41    42   ar
    57    41    43   ar
    58    42    44   ar
    59    85    82    1
    60    85    86    1
    61     3     2    1
    62     3     4    2
    63    82    83    1
    64    88    86   ar
    65     2     1    1
    66    25    24    1
    67    25    27    1
    68    43    45   ar
    69    44    46   ar
    70    24    21    1
    71    86    87   ar
    72    84    83    2
    73    83    89   am
    74    45    46   ar
    75    99    98   ar
    76    99    97   ar
    77    98    96   ar
    78    22    21    1
    79    22    23    2
    80    21    20    1
    81   155   153    1
    82    89    90    1
    83   172   170   ar
    84    20    14   am
    85    97    95   ar
    86    96    94   ar
    87   171   170   ar
    88   110   112   ar
    89   110   109   ar
    90   170   169    1
    91    12    13    1
    92   153   152    2
    93   153   154    1
    94   112   113   ar
    95    95    94   ar
    96   108   109    1
    97   108   105    1
    98    94    93    1
    99   152   151    1
   100   109   111   ar
   101    90    93    1
   102    90    91    1
   103    14    13    1
   104    14    15    2
   105   169   168    1
   106   113   111   ar
   107   113   115   ar
   108    13    16    1
   109    19    18    1
   110   100    91   am
   111   100   101    1
   112   111   114   ar
   113    16    17    1
   114   151   150    1
   115   104   105    1
   116   104   102   am
   117    91    92    2
   118   105   106    1
   119   115   117   ar
   120   150   149    1
   121    17    18    1
   122   101   102    1
   123   114   116   ar
   124   168   165    1
   125   106   107    2
   126   102   103    2
   127   167   166    2
   128   117   116   ar
   129   149   146    1
   130   166   165    1
   131   148   147    2
   132   146   147    1
   133   146   145    1
   134   165   164    1
   135   176   175    2
   136   175   174    1
   137   118   119    1
   138   145   138   am
   139   164   158   am
   140   139   138    2
   141   124   122    1
   142   138   137    1
   143   134   132   ar
   144   134   135   ar
   145   132   130   ar
   146   174   177    1
   147   174   173    1
   148   159   158    2
   149   177   178    1
   150   158   157    1
   151   119   122    1
   152   119   120    1
   153   140   137    1
   154   140   141    1
   155   128   127    2
   156   123   122    1
   157   125   120   am
   158   125   126    1
   159   137   136    1
   160   135   133   ar
   161   156   157    1
   162   129   130    1
   163   129   126    1
   164   130   131   ar
   165   120   121    2
   166   178   179    1
   167   157   160    1
   168   141   142    1
   169   127   126    1
   170   133   131   ar
   171   160   162    1
   172   160   161    1
   173   142   143    1
   174   179   180    2
   175   179   181   am
   176   143   144    1
   177   161   163    1
