@<TRIPOS>MOLECULE
tmp/6a2wA20.pdb
 87 81 0 0 0
SMALL
GASTEIGER

@<TRIPOS>ATOM
      1  N        -10.6990  -23.4690   15.6510 N.3    20  LEU20      -0.1245
      2  CA       -10.6630  -22.6680   14.4100 C.3    20  LEU20       0.1561
      3  C         -9.2580  -22.1380   14.1540 C.2    20  LEU20       0.2260
      4  O         -8.9020  -21.9990   13.0160 O.2    20  LEU20      -0.2867
      5  CB       -11.6780  -21.5340   14.5460 C.3    20  LEU20       0.0270
      6  CG       -12.3420  -21.1010   13.2470 C.3    20  LEU20       0.0019
      7  CD1      -13.0220  -22.2800   12.5770 C.3    20  LEU20       0.0001
      8  CD2      -13.3550  -20.0200   13.5280 C.3    20  LEU20       0.0001
      9  N         -5.0660  -16.1330    9.3040 N.3    28  LYS28      -0.1245
     10  CA        -6.4200  -16.5320    9.6660 C.3    28  LYS28       0.1561
     11  C         -6.8190  -15.9010   10.9940 C.2    28  LYS28       0.2260
     12  O         -7.9080  -15.3230   11.1300 O.2    28  LYS28      -0.2867
     13  CB        -6.4950  -18.0560    9.7380 C.3    28  LYS28       0.0271
     14  CG        -7.8840  -18.6320    9.9180 C.3    28  LYS28       0.0035
     15  CD        -7.7870  -20.1400   10.0830 C.3    28  LYS28       0.0206
     16  CE        -9.1430  -20.8190    9.9990 C.3    28  LYS28       0.1093
     17  NZ        -8.9970  -22.3060   10.1360 N.3    28  LYS28      -0.1314
     18  N         -7.4990  -12.1970   10.5320 N.3    31  ARG31      -0.1231
     19  CA        -8.7850  -11.9090    9.9090 C.3    31  ARG31       0.1694
     20  C         -9.9200  -12.0760   10.9100 C.2    31  ARG31       0.2591
     21  O        -10.7930  -11.2000   11.0450 O.2    31  ARG31      -0.2718
     22  CB        -8.9860  -12.8250    8.7020 C.3    31  ARG31       0.0321
     23  CG       -10.2790  -12.5840    7.9570 C.3    31  ARG31       0.0489
     24  CD       -10.5300  -13.6590    6.9040 C.3    31  ARG31       0.2205
     25  NE       -11.1950  -14.8380    7.4600 N.pl3  31  ARG31      -0.0865
     26  CZ       -10.6640  -16.0530    7.4820 C.cat  31  ARG31       0.5346
     27  NH1      -11.3400  -17.0610    8.0100 N.pl3  31  ARG31       0.1354
     28  NH2       -9.4580  -16.2560    6.9720 N.pl3  31  ARG31       0.1354
     29  N         -9.9290  -13.2160   11.6120 N.am   32  LEU32      -0.1980
     30  CA       -10.9930  -13.4960   12.5700 C.3    32  LEU32       0.1596
     31  C        -11.0160  -12.4610   13.6740 C.2    32  LEU32       0.2287
     32  O        -12.0950  -12.0240   14.1020 O.2    32  LEU32      -0.2864
     33  CB       -10.8220  -14.8960   13.1510 C.3    32  LEU32       0.0297
     34  CG       -11.1630  -15.9870   12.1440 C.3    32  LEU32       0.0022
     35  CD1      -10.6340  -17.3270   12.6290 C.3    32  LEU32       0.0001
     36  CD2      -12.6690  -16.0070   11.9430 C.3    32  LEU32       0.0001
     37  N        -36.9260   -3.4310   14.6530 N.3    77  PHE77      -0.1241
     38  CA       -37.0950   -3.6740   13.2230 C.3    77  PHE77       0.1605
     39  C        -38.2420   -2.8680   12.6360 C.2    77  PHE77       0.2264
     40  O        -38.2090   -2.5270   11.4440 O.2    77  PHE77      -0.2867
     41  CB       -37.3200   -5.1640   12.9780 C.3    77  PHE77       0.0534
     42  CG       -36.1560   -6.0060   13.3720 C.ar   77  PHE77      -0.0203
     43  CD1      -34.9990   -5.9850   12.6230 C.ar   77  PHE77      -0.0042
     44  CD2      -36.2130   -6.8060   14.5080 C.ar   77  PHE77      -0.0042
     45  CE1      -33.8940   -6.7510   12.9930 C.ar   77  PHE77      -0.0003
     46  CE2      -35.1310   -7.5840   14.8770 C.ar   77  PHE77      -0.0003
     47  CZ       -33.9570   -7.5500   14.1180 C.ar   77  PHE77      -0.0000
     48  N        -27.8350   -9.4120   20.1580 N.3   152  LEU152     -0.1245
     49  CA       -28.5440  -10.5890   19.6580 C.3   152  LEU152      0.1561
     50  C        -29.7410  -10.9100   20.5410 C.2   152  LEU152      0.2260
     51  O        -30.8400  -11.1750   20.0390 O.2   152  LEU152     -0.2867
     52  CB       -27.6070  -11.7930   19.5730 C.3   152  LEU152      0.0270
     53  CG       -28.2300  -13.0930   19.0490 C.3   152  LEU152      0.0019
     54  CD1      -28.6800  -12.9750   17.5890 C.3   152  LEU152      0.0001
     55  CD2      -27.2610  -14.2390   19.2230 C.3   152  LEU152      0.0001
     56  N        -32.5610   -8.3090   19.7780 N.3   155  MET155     -0.1230
     57  CA       -33.2110   -8.5730   18.4960 C.3   155  MET155      0.1702
     58  C        -34.0520   -9.8400   18.5520 C.2   155  MET155      0.2592
     59  O        -35.1950   -9.8580   18.0770 O.2   155  MET155     -0.2718
     60  CB       -32.1630   -8.6770   17.3840 C.3   155  MET155      0.0401
     61  CG       -31.4460   -7.3690   17.1380 C.3   155  MET155      0.0596
     62  SD       -30.4030   -7.4040   15.6800 S.3   155  MET155     -0.1393
     63  CE       -29.3260   -8.7950   16.0690 C.3   155  MET155      0.0692
     64  N        -33.5000  -10.9200   19.1190 N.am  156  VAL156     -0.1980
     65  CA       -34.2520  -12.1740   19.1930 C.3   156  VAL156      0.1595
     66  C        -35.5230  -11.9820   20.0120 C.2   156  VAL156      0.2287
     67  O        -36.6230  -12.3750   19.5960 O.2   156  VAL156     -0.2864
     68  CB       -33.3730  -13.3000   19.7740 C.3   156  VAL156      0.0276
     69  CG1      -34.2310  -14.4850   20.2060 C.3   156  VAL156      0.0022
     70  CG2      -32.3360  -13.7390   18.7580 C.3   156  VAL156      0.0022
     71  N        -38.5230  -10.3070   18.4610 N.3   159  GLN159     -0.1231
     72  CA       -39.3230  -11.1950   17.6280 C.3   159  GLN159      0.1698
     73  C        -40.0710  -12.2220   18.4580 C.2   159  GLN159      0.2592
     74  O        -41.1940  -12.5970   18.1150 O.2   159  GLN159     -0.2718
     75  CB       -38.4250  -11.8710   16.6000 C.3   159  GLN159      0.0381
     76  CG       -37.8010  -10.8530   15.6950 C.3   159  GLN159      0.0905
     77  CD       -38.8740  -10.0350   15.0440 C.2   159  GLN159      0.2608
     78  OE1      -39.7590  -10.5880   14.3850 O.2   159  GLN159     -0.2717
     79  NE2      -38.8400   -8.7140   15.2550 N.am  159  GLN159     -0.0878
     80  N        -39.4700  -12.6950   19.5480 N.am  160  LEU160     -0.1980
     81  CA       -40.1980  -13.5870   20.4420 C.3   160  LEU160      0.1596
     82  C        -41.3840  -12.8920   21.0870 C.2   160  LEU160      0.2287
     83  O        -42.3130  -13.5650   21.5480 O.2   160  LEU160     -0.2864
     84  CB       -39.2760  -14.1190   21.5460 C.3   160  LEU160      0.0297
     85  CG       -38.0950  -15.0180   21.1770 C.3   160  LEU160      0.0022
     86  CD1      -37.1950  -15.2290   22.3950 C.3   160  LEU160      0.0001
     87  CD2      -38.5740  -16.3470   20.6250 C.3   160  LEU160      0.0001
@<TRIPOS>BOND
     1    24    25    1
     2    24    23    1
     3    28    26    1
     4    25    26    2
     5    26    27    1
     6    23    22    1
     7    22    19    1
     8     9    10    1
     9    10    13    1
    10    10    11    1
    11    13    14    1
    12    19    18    1
    13    19    20    1
    14    14    15    1
    15    16    15    1
    16    16    17    1
    17    20    21    2
    18    20    29   am
    19    11    12    2
    20    40    39    2
    21    29    30    1
    22    36    34    1
    23    34    35    1
    24    34    33    1
    25    30    33    1
    26    30    31    1
    27     7     6    1
    28    43    45   ar
    29    43    42   ar
    30    39    38    1
    31    41    38    1
    32    41    42    1
    33    45    47   ar
    34     4     3    2
    35    38    37    1
    36     6     8    1
    37     6     5    1
    38    42    44   ar
    39    31    32    2
    40    47    46   ar
    41     3     2    1
    42    78    77    2
    43     2     5    1
    44     2     1    1
    45    44    46   ar
    46    77    79   am
    47    77    76    1
    48    62    63    1
    49    62    61    1
    50    76    75    1
    51    75    72    1
    52    61    60    1
    53    60    57    1
    54    54    53    1
    55    72    73    1
    56    72    71    1
    57    59    58    2
    58    74    73    2
    59    73    80   am
    60    57    58    1
    61    57    56    1
    62    58    64   am
    63    70    68    1
    64    53    55    1
    65    53    52    1
    66    64    65    1
    67    65    68    1
    68    65    66    1
    69    80    81    1
    70    52    49    1
    71    67    66    2
    72    49    48    1
    73    49    50    1
    74    68    69    1
    75    51    50    2
    76    81    82    1
    77    81    84    1
    78    87    85    1
    79    82    83    2
    80    85    84    1
    81    85    86    1
