@<TRIPOS>MOLECULE
tmp/6a2wA02.pdb
 93 91 0 0 0
SMALL
GASTEIGER

@<TRIPOS>ATOM
      1  N        -37.9880   13.7960    9.4990 N.3    63  ILE63      -0.1231
      2  CA       -36.9470   13.0760    8.7810 C.3    63  ILE63       0.1692
      3  C        -37.0220   13.2830    7.2750 C.2    63  ILE63       0.2592
      4  O        -36.0720   12.9240    6.5670 O.2    63  ILE63      -0.2718
      5  CB       -37.0410   11.5810    9.1370 C.3    63  ILE63       0.0266
      6  CG1      -35.7940   10.8220    8.6910 C.3    63  ILE63       0.0019
      7  CG2      -38.3450   10.9950    8.5640 C.3    63  ILE63       0.0020
      8  CD1      -35.7300    9.4010    9.2500 C.3    63  ILE63       0.0001
      9  N        -38.1150   13.8470    6.7560 N.am   64  ASP64      -0.1960
     10  CA       -38.1870   14.1570    5.3340 C.3    64  ASP64       0.1840
     11  C        -39.0460   15.3970    5.1450 C.2    64  ASP64       0.2622
     12  O        -39.6570   15.9030    6.0900 O.2    64  ASP64      -0.2715
     13  CB       -38.7060   12.9590    4.5160 C.3    64  ASP64       0.1450
     14  CG       -40.1960   12.6810    4.7030 C.2    64  ASP64       0.3671
     15  OD1      -40.9420   13.4990    5.2790 O.co2  64  ASP64      -0.2456
     16  OD2      -40.6420   11.6140    4.2380 O.co2  64  ASP64      -0.2456
     17  N        -39.1070   15.8750    3.9010 N.am   65  TYR65      -0.1960
     18  CA       -39.8990   17.0630    3.5950 C.3    65  TYR65       0.1771
     19  C        -41.3840   16.7810    3.4800 C.2    65  TYR65       0.2620
     20  O        -42.1570   17.7270    3.3060 O.2    65  TYR65      -0.2715
     21  CB       -39.4140   17.7310    2.3040 C.3    65  TYR65       0.0574
     22  CG       -38.1420   18.4950    2.5180 C.ar   65  TYR65      -0.0198
     23  CD1      -38.1190   19.6120    3.3450 C.ar   65  TYR65      -0.0009
     24  CD2      -36.9620   18.0970    1.9200 C.ar   65  TYR65      -0.0009
     25  CE1      -36.9550   20.3190    3.5580 C.ar   65  TYR65       0.0417
     26  CE2      -35.7900   18.7930    2.1300 C.ar   65  TYR65       0.0417
     27  CZ       -35.7940   19.9060    2.9480 C.ar   65  TYR65       0.1957
     28  OH       -34.6280   20.6030    3.1590 O.3    65  TYR65      -0.2866
     29  N        -41.8150   15.5270    3.5600 N.am   66  SER66      -0.1950
     30  CA       -43.2520   15.2880    3.5700 C.3    66  SER66       0.1924
     31  C        -43.8570   15.4440    4.9610 C.2    66  SER66       0.2314
     32  O        -45.0810   15.3490    5.1010 O.2    66  SER66      -0.2863
     33  CB       -43.5700   13.8970    3.0250 C.3    66  SER66       0.2116
     34  OG       -43.2500   12.9050    3.9880 O.3    66  SER66      -0.2180
     35  N        -39.1400    4.5460    8.0900 N.3    83  ILE83      -0.1231
     36  CA       -38.0990    5.4020    7.4950 C.3    83  ILE83       0.1678
     37  C        -38.3300    5.4560    5.9910 C.2    83  ILE83       0.2434
     38  O        -38.5090    4.3970    5.3520 O.2    83  ILE83      -0.2733
     39  CB       -36.7030    4.8670    7.8160 C.3    83  ILE83       0.0265
     40  CG1      -36.4360    4.8250    9.3220 C.3    83  ILE83       0.0019
     41  CG2      -35.6040    5.7100    7.1170 C.3    83  ILE83       0.0020
     42  CD1      -35.2320    4.0080    9.6730 C.3    83  ILE83       0.0001
     43  N        -38.3810    6.6380    5.3820 N.am   84  PRO84      -0.2729
     44  CA       -38.6590    6.6950    3.9470 C.3    84  PRO84       0.1401
     45  C        -37.5760    6.0010    3.1250 C.2    84  PRO84       0.2269
     46  O        -36.4170    5.8650    3.5420 O.2    84  PRO84      -0.2865
     47  CB       -38.7380    8.1990    3.6520 C.3    84  PRO84       0.0296
     48  CG       -38.1820    8.8810    4.8340 C.3    84  PRO84       0.0237
     49  CD       -38.3490    7.9720    6.0070 C.3    84  PRO84       0.0939
     50  N        -35.9110    6.8310    0.6140 N.3    86  GLY86      -0.1210
     51  CA       -34.7130    7.6040    0.3330 C.3    86  GLY86       0.1956
     52  C        -33.7670    7.6530    1.5020 C.2    86  GLY86       0.2612
     53  O        -32.5480    7.7210    1.3170 O.2    86  GLY86      -0.2717
     54  N        -34.3070    7.5980    2.7220 N.am   87  GLY87      -0.1956
     55  CA       -33.4610    7.5790    3.8920 C.3    87  GLY87       0.1869
     56  C        -32.7810    6.2450    4.0630 C.2    87  GLY87       0.2309
     57  O        -31.6090    6.1890    4.4280 O.2    87  GLY87      -0.2863
     58  N        -29.9220    6.1380    1.6580 N.3    90  GLN90      -0.1231
     59  CA       -28.8080    6.9580    2.1280 C.3    90  GLN90       0.1698
     60  C        -28.0770    6.3100    3.2980 C.2    90  GLN90       0.2592
     61  O        -26.8380    6.3430    3.3630 O.2    90  GLN90      -0.2718
     62  CB       -29.3090    8.3420    2.5260 C.3    90  GLN90       0.0381
     63  CG       -29.6430    9.2540    1.3260 C.3    90  GLN90       0.0905
     64  CD       -30.2600   10.5740    1.7620 C.2    90  GLN90       0.2608
     65  OE1      -29.5850   11.4490    2.3260 O.2    90  GLN90      -0.2717
     66  NE2      -31.5620   10.6910    1.5730 N.am   90  GLN90      -0.0878
     67  N        -28.8210    5.7700    4.2710 N.am   91  LEU91      -0.1980
     68  CA       -28.1690    5.0960    5.3890 C.3    91  LEU91       0.1596
     69  C        -27.2850    3.9630    4.8890 C.2    91  LEU91       0.2287
     70  O        -26.1320    3.8390    5.2960 O.2    91  LEU91      -0.2864
     71  CB       -29.2040    4.5570    6.3700 C.3    91  LEU91       0.0297
     72  CG       -29.9990    5.5920    7.1570 C.3    91  LEU91       0.0022
     73  CD1      -31.2020    4.9270    7.8850 C.3    91  LEU91       0.0001
     74  CD2      -29.0450    6.2430    8.1670 C.3    91  LEU91       0.0001
     75  N        -24.2480    5.4470    2.8800 N.3    94  PHE94      -0.1227
     76  CA       -23.1790    6.1310    3.5960 C.3    94  PHE94       0.1736
     77  C        -22.4410    5.2070    4.5760 C.2    94  PHE94       0.2595
     78  O        -21.2560    5.4350    4.8430 O.2    94  PHE94      -0.2718
     79  CB       -23.7400    7.3880    4.2650 C.3    94  PHE94       0.0547
     80  CG       -24.0730    8.5070    3.2840 C.ar   94  PHE94      -0.0202
     81  CD1      -23.0660    9.1230    2.5390 C.ar   94  PHE94      -0.0042
     82  CD2      -25.3740    8.9540    3.1220 C.ar   94  PHE94      -0.0042
     83  CE1      -23.3630   10.1500    1.6530 C.ar   94  PHE94      -0.0003
     84  CE2      -25.6680    9.9760    2.2330 C.ar   94  PHE94      -0.0003
     85  CZ       -24.6580   10.5740    1.4960 C.ar   94  PHE94      -0.0000
     86  N        -23.0810    4.1360    5.0670 N.am   95  ILE95      -0.1980
     87  CA       -22.3270    3.1090    5.7830 C.3    95  ILE95       0.1595
     88  C        -21.4020    2.3730    4.8230 C.2    95  ILE95       0.2287
     89  O        -20.2580    2.0550    5.1660 O.2    95  ILE95      -0.2864
     90  CB       -23.2590    2.1310    6.5170 C.3    95  ILE95       0.0276
     91  CG1      -23.8830    2.8220    7.7170 C.3    95  ILE95       0.0022
     92  CG2      -22.4490    1.0020    7.1340 C.3    95  ILE95       0.0022
     93  CD1      -25.0990    2.0380    8.3530 C.3    95  ILE95       0.0001
@<TRIPOS>BOND
     1    51    50    1
     2    51    52    1
     3    53    52    2
     4    63    64    1
     5    63    62    1
     6    85    83   ar
     7    85    84   ar
     8    52    54   am
     9    66    64   am
    10    83    81   ar
    11    58    59    1
    12    64    65    2
    13    24    26   ar
    14    24    22   ar
    15    59    62    1
    16    59    60    1
    17    26    27   ar
    18    84    82   ar
    19    21    22    1
    20    21    18    1
    21    22    23   ar
    22    81    80   ar
    23    54    55    1
    24    75    76    1
    25    27    28    1
    26    27    25   ar
    27    33    30    1
    28    33    34    1
    29    82    80   ar
    30    45    46    2
    31    45    44    1
    32    80    79    1
    33    60    61    2
    34    60    67   am
    35    20    19    2
    36    23    25   ar
    37    19    29   am
    38    19    18    1
    39    29    30    1
    40    30    31    1
    41    18    17    1
    42    76    79    1
    43    76    77    1
    44    47    44    1
    45    47    48    1
    46    55    56    1
    47    17    11   am
    48    44    43    1
    49    56    57    2
    50    16    14   ar
    51    67    68    1
    52    13    14    1
    53    13    10    1
    54    77    78    2
    55    77    86   am
    56    14    15   ar
    57    88    89    2
    58    88    87    1
    59    48    49    1
    60    69    70    2
    61    69    68    1
    62    31    32    2
    63    86    87    1
    64    11    10    1
    65    11    12    2
    66    10     9    1
    67    38    37    2
    68    43    37   am
    69    43    49    1
    70    68    71    1
    71    87    90    1
    72    37    36    1
    73    71    72    1
    74    90    92    1
    75    90    91    1
    76     4     3    2
    77     9     3   am
    78    41    39    1
    79    72    73    1
    80    72    74    1
    81     3     2    1
    82    36    39    1
    83    36    35    1
    84    91    93    1
    85    39    40    1
    86     7     5    1
    87     6     5    1
    88     6     8    1
    89     2     5    1
    90     2     1    1
    91    40    42    1
