@<TRIPOS>MOLECULE
tmp/6a2wA24.pdb
 206 201 0 0 0
SMALL
GASTEIGER

@<TRIPOS>ATOM
      1  N         -1.8190  -19.2400   19.7560 N.3     2  PHE2       -0.1241
      2  CA        -2.4540  -17.9740   20.0970 C.3     2  PHE2        0.1605
      3  C         -2.9790  -17.9900   21.5260 C.2     2  PHE2        0.2264
      4  O         -3.9280  -17.2750   21.8580 O.2     2  PHE2       -0.2867
      5  CB        -3.5790  -17.6560   19.1150 C.3     2  PHE2        0.0534
      6  CG        -3.1850  -17.8310   17.6800 C.ar    2  PHE2       -0.0203
      7  CD1       -2.3030  -16.9420   17.0770 C.ar    2  PHE2       -0.0042
      8  CD2       -3.6840  -18.8820   16.9350 C.ar    2  PHE2       -0.0042
      9  CE1       -1.9310  -17.0970   15.7550 C.ar    2  PHE2       -0.0003
     10  CE2       -3.3140  -19.0450   15.6100 C.ar    2  PHE2       -0.0003
     11  CZ        -2.4380  -18.1490   15.0190 C.ar    2  PHE2       -0.0000
     12  N         -2.5100  -14.5110   23.0170 N.3     5  GLU5       -0.1231
     13  CA        -3.0020  -13.3600   22.2780 C.3     5  GLU5        0.1699
     14  C         -4.0260  -12.5800   23.0940 C.2     5  GLU5        0.2592
     15  O         -4.5760  -13.0640   24.0890 O.2     5  GLU5       -0.2718
     16  CB        -3.6240  -13.7970   20.9510 C.3     5  GLU5        0.0402
     17  CG        -2.6130  -14.0560   19.8360 C.3     5  GLU5        0.1161
     18  CD        -2.3530  -12.8230   18.9940 C.2     5  GLU5        0.3649
     19  OE1       -2.7540  -11.7160   19.4230 O.co2   5  GLU5       -0.2457
     20  OE2       -1.7650  -12.9620   17.8990 O.co2   5  GLU5       -0.2457
     21  N         -4.2470  -11.3400   22.6670 N.am    6  LEU6       -0.1966
     22  CA        -5.3560  -10.5310   23.1620 C.3     6  LEU6        0.1728
     23  C         -6.6700  -11.3030   23.0980 C.2     6  LEU6        0.2617
     24  O         -6.9720  -11.9460   22.0910 O.2     6  LEU6       -0.2715
     25  CB        -5.4450   -9.2610   22.3170 C.3     6  LEU6        0.0311
     26  CG        -6.5970   -8.2860   22.5310 C.3     6  LEU6        0.0022
     27  CD1       -6.3830   -7.5890   23.8420 C.3     6  LEU6        0.0001
     28  CD2       -6.7050   -7.2850   21.3450 C.3     6  LEU6        0.0001
     29  N         -7.4570  -11.2310   24.1780 N.am    7  GLY7       -0.1940
     30  CA        -8.7500  -11.8880   24.2480 C.3     7  GLY7        0.2014
     31  C         -8.7440  -13.2230   24.9700 C.2     7  GLY7        0.2638
     32  O         -9.8250  -13.7540   25.2650 O.2     7  GLY7       -0.2714
     33  N         -7.5670  -13.7880   25.2320 N.am    8  ALA8       -0.1977
     34  CA        -7.4260  -14.9510   26.1020 C.3     8  ALA8        0.1597
     35  C         -7.1210  -14.4350   27.4980 C.2     8  ALA8        0.2287
     36  O         -6.0230  -13.9260   27.7460 O.2     8  ALA8       -0.2864
     37  CB        -6.3160  -15.8830   25.6140 C.3     8  ALA8        0.0319
     38  N        -11.6560  -18.0110   31.4070 N.3    12  LEU12      -0.1231
     39  CA       -11.5720  -19.1230   30.4680 C.3    12  LEU12       0.1693
     40  C        -10.1770  -19.3610   29.9060 C.2    12  LEU12       0.2593
     41  O         -9.9170  -20.4550   29.3930 O.2    12  LEU12      -0.2718
     42  CB       -12.5280  -18.9030   29.2970 C.3    12  LEU12       0.0284
     43  CG       -14.0150  -18.7620   29.6110 C.3    12  LEU12       0.0019
     44  CD1      -14.7630  -18.2350   28.3960 C.3    12  LEU12       0.0001
     45  CD2      -14.6040  -20.0750   30.0530 C.3    12  LEU12       0.0001
     46  N         -9.2790  -18.3870   29.9740 N.am   13  GLY13      -0.1942
     47  CA        -8.0350  -18.5660   29.2470 C.3    13  GLY13       0.2014
     48  C         -8.2950  -18.6200   27.7460 C.2    13  GLY13       0.2639
     49  O         -9.3420  -18.1910   27.2520 O.2    13  GLY13      -0.2714
     50  N         -7.3180  -19.1550   27.0090 N.am   14  PHE14      -0.1959
     51  CA        -7.5030  -19.3250   25.5700 C.3    14  PHE14       0.1771
     52  C         -8.6730  -20.2610   25.3230 C.2    14  PHE14       0.2620
     53  O         -8.6580  -21.4100   25.7660 O.2    14  PHE14      -0.2715
     54  CB        -6.2370  -19.8700   24.9100 C.3    14  PHE14       0.0574
     55  CG        -6.4220  -20.2060   23.4560 C.ar   14  PHE14      -0.0200
     56  CD1       -6.6300  -19.2010   22.5220 C.ar   14  PHE14      -0.0042
     57  CD2       -6.4030  -21.5210   23.0230 C.ar   14  PHE14      -0.0042
     58  CE1       -6.8200  -19.5000   21.1780 C.ar   14  PHE14      -0.0003
     59  CE2       -6.5820  -21.8310   21.6770 C.ar   14  PHE14      -0.0003
     60  CZ        -6.7910  -20.8190   20.7550 C.ar   14  PHE14      -0.0000
     61  N         -9.7000  -19.7660   24.6410 N.am   15  PHE15      -0.1960
     62  CA       -10.9640  -20.4890   24.5110 C.3    15  PHE15       0.1771
     63  C        -11.3350  -20.5820   23.0370 C.2    15  PHE15       0.2620
     64  O        -11.8830  -19.6350   22.4580 O.2    15  PHE15      -0.2715
     65  CB       -12.0730  -19.8180   25.3190 C.3    15  PHE15       0.0574
     66  CG       -13.3220  -20.6450   25.4230 C.ar   15  PHE15      -0.0200
     67  CD1      -13.3540  -21.7760   26.2300 C.ar   15  PHE15      -0.0042
     68  CD2      -14.4600  -20.3040   24.7090 C.ar   15  PHE15      -0.0042
     69  CE1      -14.5010  -22.5490   26.3260 C.ar   15  PHE15      -0.0003
     70  CE2      -15.6140  -21.0730   24.8040 C.ar   15  PHE15      -0.0003
     71  CZ       -15.6310  -22.1960   25.6130 C.ar   15  PHE15      -0.0000
     72  N        -11.0590  -21.7450   22.4500 N.am   16  ASP16      -0.1958
     73  CA       -11.3490  -22.0230   21.0430 C.3    16  ASP16       0.1825
     74  C        -11.8590  -23.4560   20.9410 C.2    16  ASP16       0.2464
     75  O        -11.1660  -24.3520   20.4440 O.2    16  ASP16      -0.2730
     76  CB       -10.1010  -21.7930   20.1880 C.3    16  ASP16       0.1450
     77  CG       -10.3140  -22.1290   18.7180 C.2    16  ASP16       0.3671
     78  OD1      -11.4640  -22.0460   18.2320 O.co2  16  ASP16      -0.2456
     79  OD2       -9.3160  -22.4960   18.0540 O.co2  16  ASP16      -0.2456
     80  N        -13.0810  -23.7110   21.4200 N.am   17  PRO17      -0.2715
     81  CA       -13.6040  -25.0870   21.4060 C.3    17  PRO17       0.1536
     82  C        -13.8380  -25.6490   20.0140 C.2    17  PRO17       0.2598
     83  O        -14.0500  -26.8630   19.8880 O.2    17  PRO17      -0.2715
     84  CB       -14.9230  -24.9700   22.1830 C.3    17  PRO17       0.0310
     85  CG       -15.3220  -23.5510   22.0220 C.3    17  PRO17       0.0237
     86  CD       -14.0380  -22.7690   22.0240 C.3    17  PRO17       0.0939
     87  N        -13.8160  -24.8270   18.9670 N.am   18  LEU18      -0.1978
     88  CA       -13.9330  -25.3320   17.6070 C.3    18  LEU18       0.1596
     89  C        -12.5890  -25.3980   16.8920 C.2    18  LEU18       0.2287
     90  O        -12.5560  -25.5370   15.6670 O.2    18  LEU18      -0.2864
     91  CB       -14.9170  -24.4820   16.8050 C.3    18  LEU18       0.0297
     92  CG       -16.3430  -24.4590   17.3560 C.3    18  LEU18       0.0022
     93  CD1      -17.2710  -23.7910   16.3710 C.3    18  LEU18       0.0001
     94  CD2      -16.8220  -25.8630   17.6690 C.3    18  LEU18       0.0001
     95  N        -10.6990  -23.4690   15.6510 N.3    20  LEU20      -0.1231
     96  CA       -10.6630  -22.6680   14.4100 C.3    20  LEU20       0.1693
     97  C         -9.2580  -22.1380   14.1540 C.2    20  LEU20       0.2591
     98  O         -8.9020  -21.9990   13.0160 O.2    20  LEU20      -0.2718
     99  CB       -11.6780  -21.5340   14.5460 C.3    20  LEU20       0.0284
    100  CG       -12.3420  -21.1010   13.2470 C.3    20  LEU20       0.0019
    101  CD1      -13.0220  -22.2800   12.5770 C.3    20  LEU20       0.0001
    102  CD2      -13.3550  -20.0200   13.5280 C.3    20  LEU20       0.0001
    103  N         -8.5160  -21.7970   15.1890 N.am   21  VAL21      -0.1980
    104  CA        -7.1810  -21.2440   15.0290 C.3    21  VAL21       0.1595
    105  C         -6.1230  -22.2320   15.5280 C.2    21  VAL21       0.2287
    106  O         -4.9800  -21.8560   15.7900 O.2    21  VAL21      -0.2864
    107  CB        -7.0720  -19.8730   15.7180 C.3    21  VAL21       0.0276
    108  CG1       -8.0750  -18.8900   15.1050 C.3    21  VAL21       0.0022
    109  CG2       -7.3570  -19.9980   17.1990 C.3    21  VAL21       0.0022
    110  N         -5.9360  -15.9830   11.9850 N.3    29  PHE29      -0.1241
    111  CA        -6.2220  -15.3370   13.2570 C.3    29  PHE29       0.1605
    112  C         -6.4360  -13.8430   13.0690 C.2    29  PHE29       0.2264
    113  O         -7.3870  -13.2680   13.6060 O.2    29  PHE29      -0.2867
    114  CB        -5.0970  -15.5890   14.2530 C.3    29  PHE29       0.0534
    115  CG        -5.3880  -15.0220   15.6020 C.ar   29  PHE29      -0.0203
    116  CD1       -6.1050  -15.7520   16.5240 C.ar   29  PHE29      -0.0042
    117  CD2       -5.0090  -13.7250   15.9210 C.ar   29  PHE29      -0.0042
    118  CE1       -6.4080  -15.2070   17.7680 C.ar   29  PHE29      -0.0003
    119  CE2       -5.3100  -13.1830   17.1500 C.ar   29  PHE29      -0.0003
    120  CZ        -6.0060  -13.9230   18.0730 C.ar   29  PHE29      -0.0000
    121  N         -9.9290  -13.2160   11.6120 N.3    32  LEU32      -0.1231
    122  CA       -10.9930  -13.4960   12.5700 C.3    32  LEU32       0.1693
    123  C        -11.0160  -12.4610   13.6740 C.2    32  LEU32       0.2591
    124  O        -12.0950  -12.0240   14.1020 O.2    32  LEU32      -0.2718
    125  CB       -10.8220  -14.8960   13.1510 C.3    32  LEU32       0.0284
    126  CG       -11.1630  -15.9870   12.1440 C.3    32  LEU32       0.0019
    127  CD1      -10.6340  -17.3270   12.6290 C.3    32  LEU32       0.0001
    128  CD2      -12.6690  -16.0070   11.9430 C.3    32  LEU32       0.0001
    129  N         -9.8330  -12.0430   14.1360 N.am   33  ARG33      -0.1980
    130  CA        -9.7590  -10.9770   15.1300 C.3    33  ARG33       0.1597
    131  C        -10.2910   -9.6730   14.5600 C.2    33  ARG33       0.2287
    132  O        -11.0620   -8.9760   15.2190 O.2    33  ARG33      -0.2864
    133  CB        -8.3120  -10.8320   15.6210 C.3    33  ARG33       0.0334
    134  CG        -8.0030   -9.6400   16.5260 C.3    33  ARG33       0.0492
    135  CD        -8.9890   -9.4120   17.6760 C.3    33  ARG33       0.2205
    136  NE        -9.3660  -10.5860   18.4690 N.pl3  33  ARG33      -0.0865
    137  CZ        -8.5850  -11.2150   19.3430 C.cat  33  ARG33       0.5346
    138  NH1       -7.3230  -10.8350   19.5220 N.pl3  33  ARG33       0.1354
    139  NH2       -9.0640  -12.2520   20.0230 N.pl3  33  ARG33       0.1354
    140  N        -12.5780   -9.4290   12.3160 N.3    35  VAL35      -0.1231
    141  CA       -14.0280   -9.5980   12.2620 C.3    35  VAL35       0.1692
    142  C        -14.6320   -9.4990   13.6590 C.2    35  VAL35       0.2591
    143  O        -15.6970   -8.9050   13.8400 O.2    35  VAL35      -0.2718
    144  CB       -14.3860  -10.9330   11.5780 C.3    35  VAL35       0.0266
    145  CG1      -15.8660  -11.1950   11.6990 C.3    35  VAL35       0.0020
    146  CG2      -13.9750  -10.9080   10.1070 C.3    35  VAL35       0.0020
    147  N        -13.9530  -10.0570   14.6690 N.am   36  GLU36      -0.1979
    148  CA       -14.4650  -10.0070   16.0470 C.3    36  GLU36       0.1602
    149  C        -14.5260   -8.5760   16.5800 C.2    36  GLU36       0.2287
    150  O        -15.4840   -8.2020   17.2780 O.2    36  GLU36      -0.2864
    151  CB       -13.5800  -10.8810   16.9500 C.3    36  GLU36       0.0415
    152  CG       -14.1070  -11.1520   18.3740 C.3    36  GLU36       0.1163
    153  CD       -13.1520  -12.0480   19.1890 C.2    36  GLU36       0.3649
    154  OE1      -11.9240  -11.9290   18.9770 O.co2  36  GLU36      -0.2457
    155  OE2      -13.6180  -12.8630   20.0360 O.co2  36  GLU36      -0.2457
    156  N        -17.5550   -6.7230   14.6290 N.3    39  HIS39      -0.1241
    157  CA       -18.8750   -7.0410   15.1710 C.3    39  HIS39       0.1621
    158  C        -19.0630   -6.3810   16.5290 C.2    39  HIS39       0.2264
    159  O        -20.1520   -5.8780   16.8440 O.2    39  HIS39      -0.2867
    160  CB       -19.0520   -8.5680   15.2910 C.3    39  HIS39       0.0745
    161  CG       -19.3700   -9.2610   13.9900 C.ar   39  HIS39       0.0817
    162  ND1      -18.4230   -9.4790   13.0140 N.ar   39  HIS39      -0.2268
    163  CD2      -20.5210   -9.8030   13.5230 C.ar   39  HIS39       0.1154
    164  CE1      -18.9760  -10.1220   11.9970 C.ar   39  HIS39       0.1986
    165  NE2      -20.2480  -10.3280   12.2770 N.ar   39  HIS39      -0.2212
    166  N        -17.5580   -8.1840   22.6920 N.3   145  ARG145     -0.1231
    167  CA       -18.1170   -9.5350   22.8130 C.3   145  ARG145      0.1694
    168  C        -19.4200   -9.5350   23.6050 C.2   145  ARG145      0.2591
    169  O        -20.4060  -10.1790   23.2200 O.2   145  ARG145     -0.2718
    170  CB       -17.1080  -10.4510   23.5060 C.3   145  ARG145      0.0321
    171  CG       -15.8690  -10.6890   22.7010 C.3   145  ARG145      0.0489
    172  CD       -14.7890  -11.2700   23.5790 C.3   145  ARG145      0.2205
    173  NE       -13.7450  -11.8830   22.7480 N.pl3 145  ARG145     -0.0865
    174  CZ       -12.6210  -12.4080   23.2340 C.cat 145  ARG145      0.5346
    175  NH1      -12.3890  -12.3870   24.5480 N.pl3 145  ARG145      0.1354
    176  NH2      -11.7260  -12.9420   22.4170 N.pl3 145  ARG145      0.1354
    177  N        -19.4230   -8.8620   24.7560 N.am  146  ALA146     -0.1980
    178  CA       -20.6360   -8.7930   25.5530 C.3   146  ALA146      0.1597
    179  C        -21.7570   -8.1280   24.7740 C.2   146  ALA146      0.2287
    180  O        -22.9050   -8.5740   24.8180 O.2   146  ALA146     -0.2864
    181  CB       -20.3560   -8.0350   26.8460 C.3   146  ALA146      0.0319
    182  N        -22.1980   -7.9680   21.5170 N.3   148  GLN148     -0.1231
    183  CA       -22.6880   -8.8850   20.4850 C.3   148  GLN148      0.1698
    184  C        -23.7860   -9.7900   21.0380 C.2   148  GLN148      0.2592
    185  O        -24.8380   -9.9850   20.4150 O.2   148  GLN148     -0.2718
    186  CB       -21.5290   -9.7360   19.9470 C.3   148  GLN148      0.0381
    187  CG       -20.6080   -8.9990   18.9610 C.3   148  GLN148      0.0905
    188  CD       -19.4160   -9.8240   18.5360 C.2   148  GLN148      0.2608
    189  OE1      -19.5460  -10.7370   17.7410 O.2   148  GLN148     -0.2717
    190  NE2      -18.2440   -9.5130   19.0850 N.am  148  GLN148     -0.0878
    191  N        -23.5370  -10.3840   22.1930 N.am  149  MET149     -0.1979
    192  CA       -24.5550  -11.2230   22.7970 C.3   149  MET149      0.1605
    193  C        -25.7430  -10.3840   23.2390 C.2   149  MET149      0.2287
    194  O        -26.8970  -10.8400   23.1660 O.2   149  MET149     -0.2864
    195  CB       -23.9520  -11.9880   23.9730 C.3   149  MET149      0.0413
    196  CG       -22.7960  -12.9060   23.5990 C.3   149  MET149      0.0598
    197  SD       -23.2700  -14.0680   22.3170 S.3   149  MET149     -0.1393
    198  CE       -24.7020  -14.8390   23.0590 C.3   149  MET149      0.0692
    199  N        -27.8350   -9.4120   20.1580 N.3   152  LEU152     -0.1245
    200  CA       -28.5440  -10.5890   19.6580 C.3   152  LEU152      0.1561
    201  C        -29.7410  -10.9100   20.5410 C.2   152  LEU152      0.2260
    202  O        -30.8400  -11.1750   20.0390 O.2   152  LEU152     -0.2867
    203  CB       -27.6070  -11.7930   19.5730 C.3   152  LEU152      0.0270
    204  CG       -28.2300  -13.0930   19.0490 C.3   152  LEU152      0.0019
    205  CD1      -28.6800  -12.9750   17.5890 C.3   152  LEU152      0.0001
    206  CD2      -27.2610  -14.2390   19.2230 C.3   152  LEU152      0.0001
@<TRIPOS>BOND
     1   146   144    1
     2   144   145    1
     3   144   141    1
     4   121   122    1
     5   128   126    1
     6   110   111    1
     7   164   165   ar
     8   164   162   ar
     9   126   127    1
    10   126   125    1
    11   141   140    1
    12   141   142    1
    13   165   163   ar
    14   122   125    1
    15   122   123    1
    16   101   100    1
    17   162   161   ar
    18    98    97    2
    19   112   111    1
    20   112   113    2
    21   100   102    1
    22   100    99    1
    23   111   114    1
    24   163   161   ar
    25   142   143    2
    26   142   147   am
    27   123   124    2
    28   123   129   am
    29   161   160    1
    30   129   130    1
    31    97    96    1
    32    97   103   am
    33   114   115    1
    34    96    99    1
    35    96    95    1
    36   131   130    1
    37   131   132    2
    38   156   157    1
    39   147   148    1
    40    11    10   ar
    41    11     9   ar
    42   104   103    1
    43   104   105    1
    44   104   107    1
    45   108   107    1
    46   130   133    1
    47   157   160    1
    48   157   158    1
    49   105   106    2
    50   115   117   ar
    51   115   116   ar
    52    10     8   ar
    53   133   134    1
    54    90    89    2
    55   107   109    1
    56     9     7   ar
    57   117   119   ar
    58   148   149    1
    59   148   151    1
    60    93    92    1
    61   116   118   ar
    62   134   135    1
    63   158   159    2
    64   149   150    2
    65    91    92    1
    66    91    88    1
    67    89    88    1
    68     8     6   ar
    69   151   152    1
    70     7     6   ar
    71   119   120   ar
    72    92    94    1
    73   205   204    1
    74    88    87    1
    75   135   136    1
    76     6     5    1
    77   189   188    2
    78   118   120   ar
    79    20    18   ar
    80    79    77   ar
    81    78    77   ar
    82   152   153    1
    83   136   137    2
    84   188   187    1
    85   188   190   am
    86    77    76    1
    87   187   186    1
    88    87    82   am
    89   154   153   ar
    90    18    19   ar
    91    18    17    1
    92   204   206    1
    93   204   203    1
    94     5     2    1
    95   153   155   ar
    96   137   138    1
    97   137   139    1
    98   203   200    1
    99   200   199    1
   100   200   201    1
   101     1     2    1
   102    17    16    1
   103    83    82    2
   104   186   183    1
   105    82    81    1
   106   202   201    2
   107     2     3    1
   108    76    73    1
   109   185   184    2
   110    75    74    2
   111   183   184    1
   112   183   182    1
   113    60    58   ar
   114    60    59   ar
   115    74    73    1
   116    74    80   am
   117    16    13    1
   118   184   191   am
   119    73    72    1
   120    58    56   ar
   121    28    26    1
   122    81    80    1
   123    81    84    1
   124    80    86    1
   125     3     4    2
   126    59    57   ar
   127    85    86    1
   128    85    84    1
   129    24    23    2
   130   191   192    1
   131    13    12    1
   132    13    14    1
   133   197   198    1
   134   197   196    1
   135    25    26    1
   136    25    22    1
   137   176   174    1
   138    72    63   am
   139    64    63    2
   140    56    55   ar
   141    26    27    1
   142    21    14   am
   143    21    22    1
   144   166   167    1
   145   171   170    1
   146   171   172    1
   147   173   174    2
   148   173   172    1
   149   192   193    1
   150   192   195    1
   151   167   170    1
   152   167   168    1
   153    57    55   ar
   154    63    62    1
   155    14    15    2
   156    23    22    1
   157    23    29   am
   158   194   193    2
   159   169   168    2
   160   174   175    1
   161    55    54    1
   162   196   195    1
   163   168   177   am
   164    29    30    1
   165    30    31    1
   166    62    61    1
   167    62    65    1
   168    61    52   am
   169    68    70   ar
   170    68    66   ar
   171   177   178    1
   172   179   180    2
   173   179   178    1
   174    70    71   ar
   175    54    51    1
   176    31    33   am
   177    31    32    2
   178    33    34    1
   179    65    66    1
   180    52    51    1
   181    52    53    2
   182    66    67   ar
   183   178   181    1
   184    51    50    1
   185    71    69   ar
   186    37    34    1
   187    34    35    1
   188    67    69   ar
   189    50    48   am
   190    49    48    2
   191    35    36    2
   192    48    47    1
   193    44    43    1
   194    47    46    1
   195    42    43    1
   196    42    39    1
   197    41    40    2
   198    43    45    1
   199    40    46   am
   200    40    39    1
   201    39    38    1
