@<TRIPOS>MOLECULE
tmp/6a2wA15.pdb
 80 76 0 0 0
SMALL
GASTEIGER

@<TRIPOS>ATOM
      1  N         -8.0810  -14.5600   28.4050 N.3     9  GLN9       -0.1231
      2  CA        -7.9450  -13.9750   29.7290 C.3     9  GLN9        0.1683
      3  C         -8.7890  -14.7800   30.7040 C.2     9  GLN9        0.2434
      4  O         -9.5870  -15.6330   30.2890 O.2     9  GLN9       -0.2733
      5  CB        -8.3800  -12.5080   29.7130 C.3     9  GLN9        0.0380
      6  CG        -9.8320  -12.3550   29.3870 C.3     9  GLN9        0.0905
      7  CD       -10.2040  -10.9200   29.1750 C.2     9  GLN9        0.2608
      8  OE1       -9.5570  -10.2220   28.3960 O.2     9  GLN9       -0.2717
      9  NE2      -11.2520  -10.4590   29.8680 N.am    9  GLN9       -0.0878
     10  N         -8.6340  -14.5370   32.0100 N.am   10  PRO10      -0.2718
     11  CA        -9.5270  -15.1650   32.9790 C.3    10  PRO10       0.1520
     12  C        -10.9700  -14.8250   32.6750 C.2    10  PRO10       0.2440
     13  O        -11.2750  -13.7270   32.1730 O.2    10  PRO10      -0.2731
     14  CB        -9.0800  -14.5550   34.3150 C.3    10  PRO10       0.0310
     15  CG        -7.6480  -14.1900   34.1050 C.3    10  PRO10       0.0237
     16  CD        -7.5670  -13.7630   32.6720 C.3    10  PRO10       0.0939
     17  N        -11.9090  -15.7280   32.9980 N.am   11  PRO11      -0.2716
     18  CA       -11.6570  -17.0160   33.6580 C.3    11  PRO11       0.1536
     19  C        -11.4080  -18.1850   32.7050 C.2    11  PRO11       0.2598
     20  O        -10.9790  -19.2300   33.1660 O.2    11  PRO11      -0.2715
     21  CB       -12.9460  -17.2480   34.4540 C.3    11  PRO11       0.0310
     22  CG       -14.0010  -16.6000   33.6050 C.3    11  PRO11       0.0237
     23  CD       -13.3430  -15.3800   33.0020 C.3    11  PRO11       0.0939
     24  N        -11.6560  -18.0110   31.4070 N.am   12  LEU12      -0.1978
     25  CA       -11.5720  -19.1230   30.4680 C.3    12  LEU12       0.1596
     26  C        -10.1770  -19.3610   29.9060 C.2    12  LEU12       0.2287
     27  O         -9.9170  -20.4550   29.3930 O.2    12  LEU12      -0.2864
     28  CB       -12.5280  -18.9030   29.2970 C.3    12  LEU12       0.0297
     29  CG       -14.0150  -18.7620   29.6110 C.3    12  LEU12       0.0022
     30  CD1      -14.7630  -18.2350   28.3960 C.3    12  LEU12       0.0001
     31  CD2      -14.6040  -20.0750   30.0530 C.3    12  LEU12       0.0001
     32  N        -13.6640   -7.0470   24.6790 N.3   142  ASN142     -0.1240
     33  CA       -14.5880   -7.8040   25.5040 C.3   142  ASN142      0.1653
     34  C        -15.9030   -7.0650   25.7000 C.2   142  ASN142      0.2266
     35  O        -16.9600   -7.7010   25.7370 O.2   142  ASN142     -0.2867
     36  CB       -13.9290   -8.1570   26.8360 C.3   142  ASN142      0.1155
     37  CG       -12.8940   -9.2520   26.6770 C.2   142  ASN142      0.2627
     38  OD1      -13.2180  -10.3760   26.3010 O.2   142  ASN142     -0.2716
     39  ND2      -11.6390   -8.9130   26.8970 N.am  142  ASN142     -0.0877
     40  N        -17.5580   -8.1840   22.6920 N.3   145  ARG145     -0.1231
     41  CA       -18.1170   -9.5350   22.8130 C.3   145  ARG145      0.1694
     42  C        -19.4200   -9.5350   23.6050 C.2   145  ARG145      0.2591
     43  O        -20.4060  -10.1790   23.2200 O.2   145  ARG145     -0.2718
     44  CB       -17.1080  -10.4510   23.5060 C.3   145  ARG145      0.0321
     45  CG       -15.8690  -10.6890   22.7010 C.3   145  ARG145      0.0489
     46  CD       -14.7890  -11.2700   23.5790 C.3   145  ARG145      0.2205
     47  NE       -13.7450  -11.8830   22.7480 N.pl3 145  ARG145     -0.0865
     48  CZ       -12.6210  -12.4080   23.2340 C.cat 145  ARG145      0.5346
     49  NH1      -12.3890  -12.3870   24.5480 N.pl3 145  ARG145      0.1354
     50  NH2      -11.7260  -12.9420   22.4170 N.pl3 145  ARG145      0.1354
     51  N        -19.4230   -8.8620   24.7560 N.am  146  ALA146     -0.1980
     52  CA       -20.6360   -8.7930   25.5530 C.3   146  ALA146      0.1597
     53  C        -21.7570   -8.1280   24.7740 C.2   146  ALA146      0.2287
     54  O        -22.9050   -8.5740   24.8180 O.2   146  ALA146     -0.2864
     55  CB       -20.3560   -8.0350   26.8460 C.3   146  ALA146      0.0319
     56  N        -23.5370  -10.3840   22.1930 N.3   149  MET149     -0.1230
     57  CA       -24.5550  -11.2230   22.7970 C.3   149  MET149      0.1702
     58  C        -25.7430  -10.3840   23.2390 C.2   149  MET149      0.2592
     59  O        -26.8970  -10.8400   23.1660 O.2   149  MET149     -0.2718
     60  CB       -23.9520  -11.9880   23.9730 C.3   149  MET149      0.0401
     61  CG       -22.7960  -12.9060   23.5990 C.3   149  MET149      0.0596
     62  SD       -23.2700  -14.0680   22.3170 S.3   149  MET149     -0.1393
     63  CE       -24.7020  -14.8390   23.0590 C.3   149  MET149      0.0692
     64  N        -25.4810   -9.1590   23.7090 N.am  150  GLY150     -0.1957
     65  CA       -26.5710   -8.3090   24.1720 C.3   150  GLY150      0.1869
     66  C        -27.4980   -7.9130   23.0340 C.2   150  GLY150      0.2309
     67  O        -28.7260   -8.0200   23.1430 O.2   150  GLY150     -0.2863
     68  N        -29.5480  -10.8480   21.8610 N.3   153  ALA153     -0.1245
     69  CA       -30.6330  -11.0520   22.8180 C.3   153  ALA153      0.1562
     70  C        -31.7890  -10.0990   22.5660 C.2   153  ALA153      0.2260
     71  O        -32.9520  -10.5100   22.5570 O.2   153  ALA153     -0.2867
     72  CB       -30.1090  -10.8700   24.2460 C.3   153  ALA153      0.0290
     73  N        -39.4700  -12.6950   19.5480 N.3   160  LEU160     -0.1245
     74  CA       -40.1980  -13.5870   20.4420 C.3   160  LEU160      0.1561
     75  C        -41.3840  -12.8920   21.0870 C.2   160  LEU160      0.2260
     76  O        -42.3130  -13.5650   21.5480 O.2   160  LEU160     -0.2867
     77  CB       -39.2760  -14.1190   21.5460 C.3   160  LEU160      0.0270
     78  CG       -38.0950  -15.0180   21.1770 C.3   160  LEU160      0.0019
     79  CD1      -37.1950  -15.2290   22.3950 C.3   160  LEU160      0.0001
     80  CD2      -38.5740  -16.3470   20.6250 C.3   160  LEU160      0.0001
@<TRIPOS>BOND
     1    73    74    1
     2    74    75    1
     3    74    77    1
     4    80    78    1
     5    75    76    2
     6    78    77    1
     7    78    79    1
     8    68    69    1
     9    56    57    1
    10    62    63    1
    11    62    61    1
    12    50    48    1
    13    71    70    2
    14    70    69    1
    15    40    41    1
    16    45    44    1
    17    45    46    1
    18    47    48    2
    19    47    46    1
    20    57    58    1
    21    57    60    1
    22    41    44    1
    23    41    42    1
    24    69    72    1
    25    66    67    2
    26    66    65    1
    27    59    58    2
    28    43    42    2
    29    48    49    1
    30    58    64   am
    31    61    60    1
    32    42    51   am
    33    64    65    1
    34    32    33    1
    35    51    52    1
    36    53    54    2
    37    53    52    1
    38    33    34    1
    39    33    36    1
    40    52    55    1
    41    34    35    2
    42    38    37    2
    43    37    36    1
    44    37    39   am
    45    30    29    1
    46     8     7    2
    47     1     2    1
    48     7     6    1
    49     7     9   am
    50    28    29    1
    51    28    25    1
    52     6     5    1
    53    27    26    2
    54    29    31    1
    55     5     2    1
    56     2     3    1
    57    26    25    1
    58     4     3    2
    59    25    24    1
    60     3    10   am
    61    24    19   am
    62    10    16    1
    63    10    11    1
    64    13    12    2
    65    16    15    1
    66    12    11    1
    67    12    17   am
    68    19    20    2
    69    19    18    1
    70    11    14    1
    71    17    23    1
    72    17    18    1
    73    23    22    1
    74    22    21    1
    75    18    21    1
    76    15    14    1
