@<TRIPOS>MOLECULE
tmp/6a2wA03.pdb
 114 109 0 0 0
SMALL
GASTEIGER

@<TRIPOS>ATOM
      1  N         -7.4990  -12.1970   10.5320 N.3    31  ARG31      -0.1245
      2  CA        -8.7850  -11.9090    9.9090 C.3    31  ARG31       0.1563
      3  C         -9.9200  -12.0760   10.9100 C.2    31  ARG31       0.2260
      4  O        -10.7930  -11.2000   11.0450 O.2    31  ARG31      -0.2867
      5  CB        -8.9860  -12.8250    8.7020 C.3    31  ARG31       0.0307
      6  CG       -10.2790  -12.5840    7.9570 C.3    31  ARG31       0.0489
      7  CD       -10.5300  -13.6590    6.9040 C.3    31  ARG31       0.2205
      8  NE       -11.1950  -14.8380    7.4600 N.pl3  31  ARG31      -0.0865
      9  CZ       -10.6640  -16.0530    7.4820 C.cat  31  ARG31       0.5346
     10  NH1      -11.3400  -17.0610    8.0100 N.pl3  31  ARG31       0.1354
     11  NH2       -9.4580  -16.2560    6.9720 N.pl3  31  ARG31       0.1354
     12  N         -9.9300   -9.3470   13.3150 N.3    34  TYR34      -0.1227
     13  CA       -10.5180   -8.1800   12.6630 C.3    34  TYR34       0.1736
     14  C        -12.0410   -8.2610   12.6750 C.2    34  TYR34       0.2595
     15  O        -12.7360   -7.2840   12.9980 O.2    34  TYR34      -0.2718
     16  CB        -9.9950   -8.0810   11.2210 C.3    34  TYR34       0.0548
     17  CG       -10.5110   -6.8820   10.4510 C.ar   34  TYR34      -0.0200
     18  CD1      -11.7280   -6.9270    9.7740 C.ar   34  TYR34      -0.0009
     19  CD2       -9.7860   -5.6980   10.4100 C.ar   34  TYR34      -0.0009
     20  CE1      -12.2020   -5.8250    9.0810 C.ar   34  TYR34       0.0417
     21  CE2      -10.2470   -4.6020    9.7140 C.ar   34  TYR34       0.0417
     22  CZ       -11.4480   -4.6670    9.0470 C.ar   34  TYR34       0.1957
     23  OH       -11.9030   -3.5670    8.3320 O.3    34  TYR34      -0.2866
     24  N        -12.5780   -9.4290   12.3160 N.am   35  VAL35      -0.1980
     25  CA       -14.0280   -9.5980   12.2620 C.3    35  VAL35       0.1595
     26  C        -14.6320   -9.4990   13.6590 C.2    35  VAL35       0.2287
     27  O        -15.6970   -8.9050   13.8400 O.2    35  VAL35      -0.2864
     28  CB       -14.3860  -10.9330   11.5780 C.3    35  VAL35       0.0276
     29  CG1      -15.8660  -11.1950   11.6990 C.3    35  VAL35       0.0022
     30  CG2      -13.9750  -10.9080   10.1070 C.3    35  VAL35       0.0022
     31  N        -14.8040   -5.8940   14.7620 N.3    38  LYS38      -0.1231
     32  CA       -15.7890   -5.1530   13.9890 C.3    38  LYS38       0.1693
     33  C        -17.2050   -5.4430   14.4650 C.2    38  LYS38       0.2592
     34  O        -18.0030   -4.5210   14.6590 O.2    38  LYS38      -0.2718
     35  CB       -15.6300   -5.4870   12.5010 C.3    38  LYS38       0.0285
     36  CG       -16.5660   -4.6980   11.6030 C.3    38  LYS38       0.0035
     37  CD       -16.0900   -4.9220   10.1520 C.3    38  LYS38       0.0206
     38  CE       -16.9470   -4.1960    9.1520 C.3    38  LYS38       0.1093
     39  NZ       -16.2020   -4.3280    7.8630 N.3    38  LYS38      -0.1314
     40  N        -17.5550   -6.7230   14.6290 N.am   39  HIS39      -0.1976
     41  CA       -18.8750   -7.0410   15.1710 C.3    39  HIS39       0.1656
     42  C        -19.0630   -6.3810   16.5290 C.2    39  HIS39       0.2291
     43  O        -20.1520   -5.8780   16.8440 O.2    39  HIS39      -0.2864
     44  CB       -19.0520   -8.5680   15.2910 C.3    39  HIS39       0.0771
     45  CG       -19.3700   -9.2610   13.9900 C.ar   39  HIS39       0.0820
     46  ND1      -18.4230   -9.4790   13.0140 N.ar   39  HIS39      -0.2267
     47  CD2      -20.5210   -9.8030   13.5230 C.ar   39  HIS39       0.1154
     48  CE1      -18.9760  -10.1220   11.9970 C.ar   39  HIS39       0.1986
     49  NE2      -20.2480  -10.3280   12.2770 N.ar   39  HIS39      -0.2212
     50  N        -19.7160   -2.5100   16.2680 N.3    42  ILE42      -0.1245
     51  CA       -21.0890   -2.3270   15.8100 C.3    42  ILE42       0.1561
     52  C        -22.0610   -2.6430   16.9350 C.2    42  ILE42       0.2260
     53  O        -23.0200   -1.9000   17.1770 O.2    42  ILE42      -0.2867
     54  CB       -21.3570   -3.2010   14.5800 C.3    42  ILE42       0.0252
     55  CG1      -20.5290   -2.6790   13.3990 C.3    42  ILE42       0.0019
     56  CG2      -22.8560   -3.2210   14.2010 C.3    42  ILE42       0.0019
     57  CD1      -20.4290   -3.6910   12.2440 C.3    42  ILE42       0.0001
     58  N        -27.8170    3.1110    4.0180 N.3    92  LEU92      -0.1231
     59  CA       -27.0030    1.9980    3.5420 C.3    92  LEU92       0.1693
     60  C        -25.8110    2.5080    2.7480 C.2    92  LEU92       0.2592
     61  O        -24.6740    2.0460    2.9370 O.2    92  LEU92      -0.2718
     62  CB       -27.8570    1.0440    2.7020 C.3    92  LEU92       0.0284
     63  CG       -27.0970   -0.2170    2.2940 C.3    92  LEU92       0.0019
     64  CD1      -26.6300   -0.9640    3.5450 C.3    92  LEU92       0.0001
     65  CD2      -27.9340   -1.1060    1.3950 C.3    92  LEU92       0.0001
     66  N        -26.0470    3.4780    1.8650 N.am   93  PHE93      -0.1976
     67  CA       -24.9650    4.0110    1.0420 C.3    93  PHE93       0.1639
     68  C        -23.8730    4.6360    1.9020 C.2    93  PHE93       0.2290
     69  O        -22.6800    4.3880    1.6970 O.2    93  PHE93      -0.2864
     70  CB       -25.5190    5.0360    0.0520 C.3    93  PHE93       0.0560
     71  CG       -24.4570    5.6790   -0.7920 C.ar   93  PHE93      -0.0200
     72  CD1      -23.8620    4.9670   -1.8250 C.ar   93  PHE93      -0.0042
     73  CD2      -24.0230    6.9770   -0.5340 C.ar   93  PHE93      -0.0042
     74  CE1      -22.8640    5.5340   -2.5900 C.ar   93  PHE93      -0.0003
     75  CE2      -23.0140    7.5610   -1.3170 C.ar   93  PHE93      -0.0003
     76  CZ       -22.4350    6.8340   -2.3380 C.ar   93  PHE93      -0.0000
     77  N        -23.0810    4.1360    5.0670 N.3    95  ILE95      -0.1231
     78  CA       -22.3270    3.1090    5.7830 C.3    95  ILE95       0.1692
     79  C        -21.4020    2.3730    4.8230 C.2    95  ILE95       0.2592
     80  O        -20.2580    2.0550    5.1660 O.2    95  ILE95      -0.2718
     81  CB       -23.2590    2.1310    6.5170 C.3    95  ILE95       0.0266
     82  CG1      -23.8830    2.8220    7.7170 C.3    95  ILE95       0.0019
     83  CG2      -22.4490    1.0020    7.1340 C.3    95  ILE95       0.0020
     84  CD1      -25.0990    2.0380    8.3530 C.3    95  ILE95       0.0001
     85  N        -21.8860    2.0720    3.6170 N.am   96  GLY96      -0.1957
     86  CA       -21.0160    1.5020    2.6030 C.3    96  GLY96       0.1869
     87  C        -19.8010    2.3620    2.3100 C.2    96  GLY96       0.2309
     88  O        -18.6970    1.8410    2.1030 O.2    96  GLY96      -0.2863
     89  N        -17.2630    1.9170    4.7450 N.3    99  GLU99      -0.1231
     90  CA       -16.5930    0.6410    4.5190 C.3    99  GLU99       0.1699
     91  C        -15.5870    0.7370    3.3850 C.2    99  GLU99       0.2592
     92  O        -14.5220    0.1130    3.4460 O.2    99  GLU99      -0.2718
     93  CB       -17.6170   -0.4570    4.2090 C.3    99  GLU99       0.0402
     94  CG       -18.5570   -0.8130    5.3720 C.3    99  GLU99       0.1161
     95  CD       -17.9750   -1.8780    6.3100 C.2    99  GLU99       0.3649
     96  OE1      -16.8180   -1.7200    6.7560 O.co2  99  GLU99      -0.2457
     97  OE2      -18.6760   -2.8770    6.5900 O.co2  99  GLU99      -0.2457
     98  N        -15.9170    1.4800    2.3200 N.am  100  SER100     -0.1952
     99  CA       -15.0400    1.5000    1.1570 C.3   100  SER100      0.1924
    100  C        -13.8900    2.4850    1.3050 C.2   100  SER100      0.2314
    101  O        -12.8260    2.2850    0.6980 O.2   100  SER100     -0.2863
    102  CB       -15.8280    1.8460   -0.1130 C.3   100  SER100      0.2116
    103  OG       -16.3390    3.1640   -0.0400 O.3   100  SER100     -0.2180
    104  N        -10.9680    1.5930    7.5440 N.3   104  ARG104     -0.1245
    105  CA       -10.0680    0.5690    7.0460 C.3   104  ARG104      0.1563
    106  C         -8.6490    1.1050    7.1550 C.2   104  ARG104      0.2260
    107  O         -8.4310    2.3010    7.3600 O.2   104  ARG104     -0.2867
    108  CB       -10.4080    0.1820    5.5990 C.3   104  ARG104      0.0307
    109  CG       -10.3780    1.3300    4.6160 C.3   104  ARG104      0.0489
    110  CD       -11.1000    0.9680    3.3080 C.3   104  ARG104      0.2205
    111  NE       -10.3230    0.0240    2.5270 N.pl3 104  ARG104     -0.0865
    112  CZ       -10.8570   -0.8450    1.6760 C.cat 104  ARG104      0.5346
    113  NH1      -10.0850   -1.6810    0.9960 N.pl3 104  ARG104      0.1354
    114  NH2      -12.1760   -0.8870    1.5240 N.pl3 104  ARG104      0.1354
@<TRIPOS>BOND
     1    74    76   ar
     2    74    72   ar
     3    76    75   ar
     4    72    71   ar
     5    75    73   ar
     6    71    73   ar
     7    71    70    1
     8   102   103    1
     9   102    99    1
    10    70    67    1
    11   101   100    2
    12   113   112    1
    13    67    66    1
    14    67    68    1
    15    99   100    1
    16    99    98    1
    17    65    63    1
    18   114   112    1
    19   112   111    2
    20    69    68    2
    21    66    60   am
    22    88    87    2
    23    63    62    1
    24    63    64    1
    25    87    86    1
    26    98    91   am
    27   111   110    1
    28    86    85    1
    29    62    59    1
    30    60    61    2
    31    60    59    1
    32   110   109    1
    33    91    92    2
    34    91    90    1
    35    59    58    1
    36    85    79   am
    37    93    90    1
    38    93    94    1
    39    90    89    1
    40   109   108    1
    41    79    80    2
    42    79    78    1
    43    77    78    1
    44    94    95    1
    45   108   105    1
    46    78    81    1
    47    95    97   ar
    48    95    96   ar
    49    81    83    1
    50    81    82    1
    51     7     8    1
    52     7     6    1
    53    11     9    1
    54   105   106    1
    55   105   104    1
    56   106   107    2
    57     8     9    2
    58     9    10    1
    59    82    84    1
    60    39    38    1
    61     6     5    1
    62    23    22    1
    63     5     2    1
    64    22    20   ar
    65    22    21   ar
    66    20    18   ar
    67    38    37    1
    68    21    19   ar
    69    18    17   ar
    70     2     1    1
    71     2     3    1
    72    30    28    1
    73    37    36    1
    74    19    17   ar
    75    17    16    1
    76     3     4    2
    77    16    13    1
    78    28    29    1
    79    28    25    1
    80    36    35    1
    81    48    49   ar
    82    48    46   ar
    83    57    55    1
    84    25    24    1
    85    25    26    1
    86    49    47   ar
    87    24    14   am
    88    35    32    1
    89    13    14    1
    90    13    12    1
    91    14    15    2
    92    46    45   ar
    93    55    54    1
    94    47    45   ar
    95    26    27    2
    96    32    33    1
    97    32    31    1
    98    45    44    1
    99    56    54    1
   100    33    40   am
   101    33    34    2
   102    54    51    1
   103    40    41    1
   104    41    44    1
   105    41    42    1
   106    51    50    1
   107    51    52    1
   108    42    43    2
   109    52    53    2
