@<TRIPOS>MOLECULE
tmp/6a2wA18.pdb
 153 151 0 0 0
SMALL
GASTEIGER

@<TRIPOS>ATOM
      1  N        -14.0660    3.5370    2.1010 N.3   101  SER101     -0.1202
      2  CA       -13.1830    4.6900    1.9960 C.3   101  SER101      0.2020
      3  C        -12.6770    5.2560    3.3200 C.2   101  SER101      0.2619
      4  O        -11.8090    6.1410    3.2890 O.2   101  SER101     -0.2717
      5  CB       -13.9020    5.8040    1.2220 C.3   101  SER101      0.2103
      6  OG       -14.4400    5.2930   -0.0010 O.3   101  SER101     -0.2182
      7  N        -13.1350    4.7600    4.4680 N.am  102  VAL102     -0.1965
      8  CA       -12.8460    5.3980    5.7590 C.3   102  VAL102      0.1727
      9  C        -12.3940    4.3900    6.8100 C.2   102  VAL102      0.2616
     10  O        -11.2770    4.4640    7.3400 O.2   102  VAL102     -0.2715
     11  CB       -14.0840    6.1600    6.2810 C.3   102  VAL102      0.0290
     12  CG1      -13.7820    6.8080    7.6420 C.3   102  VAL102      0.0023
     13  CG2      -14.5200    7.2240    5.2790 C.3   102  VAL102      0.0023
     14  N        -13.2750    3.4530    7.1460 N.am  103  MET103     -0.1977
     15  CA       -13.0500    2.5510    8.2780 C.3   103  MET103      0.1605
     16  C        -12.2430    1.3400    7.8180 C.2   103  MET103      0.2287
     17  O        -12.7350    0.2140    7.7310 O.2   103  MET103     -0.2864
     18  CB       -14.3780    2.1260    8.8870 C.3   103  MET103      0.0413
     19  CG       -15.1490    3.2720    9.5080 C.3   103  MET103      0.0598
     20  SD       -14.2360    3.8470   10.9560 S.3   103  MET103     -0.1393
     21  CE       -15.1570    5.3320   11.3650 C.3   103  MET103      0.0692
     22  N         -5.9490    2.3660    5.4290 N.3   106  LEU106     -0.1231
     23  CA        -5.7190    2.9440    4.1060 C.3   106  LEU106      0.1693
     24  C         -4.2370    3.0980    3.7990 C.2   106  LEU106      0.2592
     25  O         -3.8240    2.9560    2.6450 O.2   106  LEU106     -0.2718
     26  CB        -6.4060    4.3070    4.0140 C.3   106  LEU106      0.0284
     27  CG        -7.9300    4.3450    4.0940 C.3   106  LEU106      0.0019
     28  CD1       -8.3910    5.7050    4.4900 C.3   106  LEU106      0.0001
     29  CD2       -8.5180    3.9930    2.7360 C.3   106  LEU106      0.0001
     30  N         -3.4270    3.3600    4.8170 N.am  107  THR107     -0.1953
     31  CA        -2.0220    3.6980    4.6520 C.3   107  THR107      0.1897
     32  C         -1.0800    2.5430    4.9510 C.2   107  THR107      0.2313
     33  O          0.1210    2.6680    4.7060 O.2   107  THR107     -0.2863
     34  CB        -1.6790    4.8610    5.5750 C.3   107  THR107      0.1794
     35  OG1       -1.7820    4.4100    6.9320 O.3   107  THR107     -0.2208
     36  CG2       -2.6930    5.9830    5.3860 C.3   107  THR107      0.0378
     37  N         -7.6140    1.9870   12.8190 N.3   116  PHE116     -0.1227
     38  CA        -7.9630    2.7800   11.6510 C.3   116  PHE116      0.1736
     39  C         -7.5070    4.2300   11.7600 C.2   116  PHE116      0.2595
     40  O         -7.9670    5.0670   10.9660 O.2   116  PHE116     -0.2718
     41  CB        -9.4780    2.7600   11.4120 C.3   116  PHE116      0.0547
     42  CG       -10.0610    1.3850   11.1790 C.ar  116  PHE116     -0.0202
     43  CD1       -9.2860    0.3520   10.6710 C.ar  116  PHE116     -0.0042
     44  CD2      -11.4100    1.1440   11.4580 C.ar  116  PHE116     -0.0042
     45  CE1       -9.8480   -0.9150   10.4580 C.ar  116  PHE116     -0.0003
     46  CE2      -11.9780   -0.1230   11.2540 C.ar  116  PHE116     -0.0003
     47  CZ       -11.1940   -1.1420   10.7420 C.ar  116  PHE116     -0.0000
     48  N         -6.6520    4.5610   12.7380 N.am  117  ARG117     -0.1966
     49  CA        -6.2610    5.9550   12.9390 C.3   117  ARG117      0.1729
     50  C         -5.7240    6.5760   11.6550 C.2   117  ARG117      0.2616
     51  O         -5.9580    7.7620   11.3810 O.2   117  ARG117     -0.2715
     52  CB        -5.2130    6.0510   14.0410 C.3   117  ARG117      0.0348
     53  CG        -5.7690    5.8010   15.4370 C.3   117  ARG117      0.0492
     54  CD        -4.5670    5.7630   16.3490 C.3   117  ARG117      0.2205
     55  NE        -3.7190    4.6040   16.0460 N.pl3 117  ARG117     -0.0865
     56  CZ        -2.4720    4.4620   16.4800 C.cat 117  ARG117      0.5346
     57  NH1       -1.9060    5.4230   17.2000 N.pl3 117  ARG117      0.1354
     58  NH2       -1.7720    3.3730   16.1930 N.pl3 117  ARG117      0.1354
     59  N         -4.9760    5.7960   10.8690 N.am  118  ASN118     -0.1958
     60  CA        -4.5750    6.1950    9.5190 C.3   118  ASN118      0.1819
     61  C         -3.6950    7.4450    9.5420 C.2   118  ASN118      0.2622
     62  O         -3.7230    8.2460    8.6100 O.2   118  ASN118     -0.2715
     63  CB        -5.8060    6.4260    8.6270 C.3   118  ASN118      0.1195
     64  CG        -6.3610    5.1340    8.0170 C.2   118  ASN118      0.2630
     65  OD1       -5.6330    4.4000    7.3430 O.2   118  ASN118     -0.2716
     66  ND2       -7.6520    4.8750    8.2200 N.am  118  ASN118     -0.0877
     67  N         -2.9240    7.6430   10.6110 N.am  119  GLY119     -0.1940
     68  CA        -2.1120    8.8390   10.7270 C.3   119  GLY119      0.2014
     69  C         -2.9280   10.1190   10.7230 C.2   119  GLY119      0.2639
     70  O         -2.3650   11.2010   10.5810 O.2   119  GLY119     -0.2714
     71  N         -4.2440   10.0210   10.9010 N.am  120  ALA120     -0.1963
     72  CA        -5.1550   11.1480   10.7290 C.3   120  ALA120      0.1728
     73  C         -5.8830   11.5520   12.0060 C.2   120  ALA120      0.2616
     74  O         -5.9790   12.7450   12.2970 O.2   120  ALA120     -0.2715
     75  CB        -6.1810   10.8280    9.6300 C.3   120  ALA120      0.0334
     76  N         -6.4320   10.6150   12.7690 N.am  121  ILE121     -0.1963
     77  CA        -7.1530   10.9520   14.0000 C.3   121  ILE121      0.1727
     78  C         -6.5890   10.1020   15.1300 C.2   121  ILE121      0.2616
     79  O         -6.5800    8.8670   15.0360 O.2   121  ILE121     -0.2715
     80  CB        -8.6700   10.7480   13.8650 C.3   121  ILE121      0.0290
     81  CG1       -9.2260   11.6570   12.7690 C.3   121  ILE121      0.0022
     82  CG2       -9.3660   11.0660   15.1880 C.3   121  ILE121      0.0023
     83  CD1      -10.6790   11.4060   12.4270 C.3   121  ILE121      0.0001
     84  N         -6.1160   10.7600   16.1890 N.am  122  ASP122     -0.1957
     85  CA        -5.4840   10.0890   17.3220 C.3   122  ASP122      0.1840
     86  C         -5.6440   10.9820   18.5440 C.2   122  ASP122      0.2622
     87  O         -5.1710   12.1220   18.5390 O.2   122  ASP122     -0.2715
     88  CB        -4.0040    9.8290   17.0230 C.3   122  ASP122      0.1450
     89  CG        -3.3440    8.8850   18.0200 C.2   122  ASP122      0.3671
     90  OD1       -3.8590    8.7460   19.1510 O.co2 122  ASP122     -0.2456
     91  OD2       -2.2800    8.3010   17.6800 O.co2 122  ASP122     -0.2456
     92  N         -6.3090   10.4810   19.5830 N.am  123  PHE123     -0.1974
     93  CA        -6.4880   11.2380   20.8140 C.3   123  PHE123      0.1639
     94  C         -5.3840   10.9850   21.8300 C.2   123  PHE123      0.2290
     95  O         -5.5210   11.3990   22.9830 O.2   123  PHE123     -0.2864
     96  CB        -7.8560   10.9240   21.4350 C.3   123  PHE123      0.0560
     97  CG        -9.0120   11.2990   20.5570 C.ar  123  PHE123     -0.0200
     98  CD1       -9.4160   12.6150   20.4510 C.ar  123  PHE123     -0.0042
     99  CD2       -9.6860   10.3360   19.8260 C.ar  123  PHE123     -0.0042
    100  CE1      -10.4790   12.9590   19.6440 C.ar  123  PHE123     -0.0003
    101  CE2      -10.7550   10.6750   19.0100 C.ar  123  PHE123     -0.0003
    102  CZ       -11.1500   11.9850   18.9150 C.ar  123  PHE123     -0.0000
    103  N         -2.9620    7.8190   21.6810 N.3   125  TRP125     -0.1241
    104  CA        -2.6210    6.4130   21.8760 C.3   125  TRP125      0.1605
    105  C         -1.2720    6.2200   22.5750 C.2   125  TRP125      0.2264
    106  O         -1.1440    5.3850   23.4850 O.2   125  TRP125     -0.2867
    107  CB        -2.6290    5.6920   20.5270 C.3   125  TRP125      0.0550
    108  CG        -2.4980    4.2140   20.6340 C.ar  125  TRP125      0.0003
    109  CD1       -1.5790    3.4120   19.9920 C.ar  125  TRP125      0.0946
    110  CD2       -3.2910    3.3460   21.4510 C.ar  125  TRP125      0.0152
    111  NE1       -1.7800    2.0970   20.3550 N.ar  125  TRP125     -0.2442
    112  CE2       -2.8170    2.0330   21.2500 C.ar  125  TRP125      0.0810
    113  CE3       -4.3500    3.5520   22.3490 C.ar  125  TRP125      0.0012
    114  CZ2       -3.3820    0.9330   21.8960 C.ar  125  TRP125      0.0191
    115  CZ3       -4.9050    2.4550   22.9930 C.ar  125  TRP125      0.0001
    116  CH2       -4.4050    1.1640   22.7660 C.ar  125  TRP125      0.0015
    117  N         -0.5550    6.1970   26.5190 N.3   128  PHE128     -0.1241
    118  CA        -0.7160    4.9970   27.3240 C.3   128  PHE128      0.1605
    119  C          0.5730    4.1880   27.2630 C.2   128  PHE128      0.2264
    120  O          1.2020    4.0930   26.2050 O.2   128  PHE128     -0.2867
    121  CB        -1.8810    4.1420   26.8110 C.3   128  PHE128      0.0534
    122  CG        -3.2240    4.8230   26.8160 C.ar  128  PHE128     -0.0203
    123  CD1       -3.6810    5.5160   27.9280 C.ar  128  PHE128     -0.0042
    124  CD2       -4.0540    4.7290   25.7030 C.ar  128  PHE128     -0.0042
    125  CE1       -4.9340    6.1130   27.9160 C.ar  128  PHE128     -0.0003
    126  CE2       -5.2930    5.3130   25.6890 C.ar  128  PHE128     -0.0003
    127  CZ        -5.7390    6.0090   26.7960 C.ar  128  PHE128     -0.0000
    128  N         -6.6270   -1.4460   27.3000 N.3   136  LYS136     -0.1245
    129  CA        -7.6770   -0.7540   26.5660 C.3   136  LYS136      0.1561
    130  C         -8.1410   -1.5730   25.3670 C.2   136  LYS136      0.2260
    131  O         -9.3340   -1.5960   25.0410 O.2   136  LYS136     -0.2867
    132  CB        -7.1970    0.6270   26.1130 C.3   136  LYS136      0.0271
    133  CG        -6.8800    1.5930   27.2390 C.3   136  LYS136      0.0035
    134  CD        -8.0260    1.7670   28.2130 C.3   136  LYS136      0.0206
    135  CE        -7.6260    2.7750   29.2540 C.3   136  LYS136      0.1093
    136  NZ        -8.7320    3.0760   30.2040 N.3   136  LYS136     -0.1314
    137  N        -10.4060   -4.2720   26.8090 N.3   139  ILE139     -0.1231
    138  CA       -11.7290   -3.7400   27.1350 C.3   139  ILE139      0.1692
    139  C        -12.5320   -3.5550   25.8610 C.2   139  ILE139      0.2591
    140  O        -13.6980   -3.9540   25.7750 O.2   139  ILE139     -0.2718
    141  CB       -11.6230   -2.4240   27.9220 C.3   139  ILE139      0.0266
    142  CG1      -10.9430   -2.6540   29.2700 C.3   139  ILE139      0.0019
    143  CG2      -13.0620   -1.8020   28.1670 C.3   139  ILE139      0.0020
    144  CD1      -10.6020   -1.3770   29.9870 C.3   139  ILE139      0.0001
    145  N        -11.9140   -2.9690   24.8360 N.am  140  GLU140     -0.1979
    146  CA       -12.6590   -2.7550   23.6010 C.3   140  GLU140      0.1602
    147  C        -13.1940   -4.0740   23.0630 C.2   140  GLU140      0.2287
    148  O        -14.3660   -4.1790   22.6870 O.2   140  GLU140     -0.2864
    149  CB       -11.7710   -2.0840   22.5530 C.3   140  GLU140      0.0415
    150  CG       -12.5050   -1.8170   21.2310 C.3   140  GLU140      0.1163
    151  CD       -11.5760   -1.2830   20.1320 C.2   140  GLU140      0.3649
    152  OE1      -10.5570   -1.9580   19.8310 O.co2 140  GLU140     -0.2457
    153  OE2      -11.8670   -0.1770   19.5910 O.co2 140  GLU140     -0.2457
@<TRIPOS>BOND
     1     6     5    1
     2     5     2    1
     3     2     1    1
     4     2     3    1
     5    25    24    2
     6    29    27    1
     7     4     3    2
     8     3     7   am
     9    24    23    1
    10    24    30   am
    11    26    27    1
    12    26    23    1
    13    27    28    1
    14    23    22    1
    15     7     8    1
    16    31    30    1
    17    31    32    1
    18    31    34    1
    19    33    32    2
    20    13    11    1
    21    36    34    1
    22    34    35    1
    23     8    11    1
    24     8     9    1
    25    11    12    1
    26     9    14   am
    27     9    10    2
    28    14    15    1
    29    65    64    2
    30    17    16    2
    31    16    15    1
    32    64    66   am
    33    64    63    1
    34    15    18    1
    35    62    61    2
    36    63    60    1
    37    18    19    1
    38    19    20    1
    39    60    61    1
    40    60    59    1
    41    61    67   am
    42    75    72    1
    43    45    43   ar
    44    45    47   ar
    45    70    69    2
    46    67    68    1
    47    43    42   ar
    48    69    68    1
    49    69    71   am
    50    72    71    1
    51    72    73    1
    52    47    46   ar
    53    59    50   am
    54    20    21    1
    55    40    39    2
    56    42    41    1
    57    42    44   ar
    58    46    44   ar
    59    51    50    2
    60    41    38    1
    61    38    39    1
    62    38    37    1
    63    50    49    1
    64    39    48   am
    65    73    74    2
    66    73    76   am
    67    83    81    1
    68    48    49    1
    69    76    77    1
    70    81    80    1
    71    49    52    1
    72    80    77    1
    73    80    82    1
    74    77    78    1
    75    52    53    1
    76    79    78    2
    77    78    84   am
    78    53    54    1
    79    55    54    1
    80    55    56    2
    81    84    85    1
    82    58    56    1
    83    56    57    1
    84    88    85    1
    85    88    89    1
    86    85    86    1
    87    91    89   ar
    88    89    90   ar
    89    87    86    2
    90    86    92   am
    91   102   101   ar
    92   102   100   ar
    93   101    99   ar
    94    92    93    1
    95   153   151   ar
    96   100    98   ar
    97    99    97   ar
    98   152   151   ar
    99   109   111   ar
   100   109   108   ar
   101   151   150    1
   102   111   112   ar
   103    98    97   ar
   104   107   108    1
   105   107   104    1
   106    97    96    1
   107   108   110   ar
   108    93    96    1
   109    93    94    1
   110   150   149    1
   111   112   110   ar
   112   112   114   ar
   113   110   113   ar
   114   103   104    1
   115    94    95    2
   116   104   105    1
   117   114   116   ar
   118   113   115   ar
   119   149   146    1
   120   105   106    2
   121   148   147    2
   122   116   115   ar
   123   147   146    1
   124   146   145    1
   125   145   139   am
   126   131   130    2
   127   130   129    1
   128   126   124   ar
   129   126   127   ar
   130   124   122   ar
   131   140   139    2
   132   139   138    1
   133   132   129    1
   134   132   133    1
   135   120   119    2
   136   117   118    1
   137   129   128    1
   138   127   125   ar
   139   137   138    1
   140   121   122    1
   141   121   118    1
   142   122   123   ar
   143   138   141    1
   144   133   134    1
   145   119   118    1
   146   125   123   ar
   147   141   143    1
   148   141   142    1
   149   134   135    1
   150   135   136    1
   151   142   144    1
