@<TRIPOS>MOLECULE
tmp/6a2wA09.pdb
 86 82 0 0 0
SMALL
GASTEIGER

@<TRIPOS>ATOM
      1  N        -36.9260   -3.4310   14.6530 N.3    77  PHE77      -0.1227
      2  CA       -37.0950   -3.6740   13.2230 C.3    77  PHE77       0.1736
      3  C        -38.2420   -2.8680   12.6360 C.2    77  PHE77       0.2595
      4  O        -38.2090   -2.5270   11.4440 O.2    77  PHE77      -0.2718
      5  CB       -37.3200   -5.1640   12.9780 C.3    77  PHE77       0.0547
      6  CG       -36.1560   -6.0060   13.3720 C.ar   77  PHE77      -0.0202
      7  CD1      -34.9990   -5.9850   12.6230 C.ar   77  PHE77      -0.0042
      8  CD2      -36.2130   -6.8060   14.5080 C.ar   77  PHE77      -0.0042
      9  CE1      -33.8940   -6.7510   12.9930 C.ar   77  PHE77      -0.0003
     10  CE2      -35.1310   -7.5840   14.8770 C.ar   77  PHE77      -0.0003
     11  CZ       -33.9570   -7.5500   14.1180 C.ar   77  PHE77      -0.0000
     12  N        -39.2590   -2.5470   13.4410 N.am   78  ALA78      -0.1980
     13  CA       -40.3920   -1.8100   12.8970 C.3    78  ALA78       0.1597
     14  C        -39.9890   -0.4340   12.3720 C.2    78  ALA78       0.2287
     15  O        -40.7390    0.1470   11.5720 O.2    78  ALA78      -0.2864
     16  CB       -41.4860   -1.6690   13.9550 C.3    78  ALA78       0.0319
     17  N        -37.8700    0.2510   10.2420 N.3    80  PHE80      -0.1227
     18  CA       -37.6020    0.2600    8.8100 C.3    80  PHE80       0.1736
     19  C        -38.8720    0.3940    7.9870 C.2    80  PHE80       0.2595
     20  O        -38.7950    0.8230    6.8320 O.2    80  PHE80      -0.2718
     21  CB       -36.8010   -0.9830    8.4270 C.3    80  PHE80       0.0547
     22  CG       -35.4660   -1.0310    9.0880 C.ar   80  PHE80      -0.0202
     23  CD1      -34.4790   -0.1170    8.7500 C.ar   80  PHE80      -0.0042
     24  CD2      -35.2040   -1.9490   10.0770 C.ar   80  PHE80      -0.0042
     25  CE1      -33.2550   -0.1330    9.3770 C.ar   80  PHE80      -0.0003
     26  CE2      -33.9780   -1.9690   10.7060 C.ar   80  PHE80      -0.0003
     27  CZ       -33.0050   -1.0570   10.3600 C.ar   80  PHE80      -0.0000
     28  N        -40.0360    0.0820    8.5720 N.am   81  LYS81      -0.1980
     29  CA       -41.3100    0.2560    7.8930 C.3    81  LYS81       0.1596
     30  C        -41.6930    1.7160    7.7570 C.2    81  LYS81       0.2287
     31  O        -42.5840    2.0370    6.9610 O.2    81  LYS81      -0.2864
     32  CB       -42.4220   -0.4670    8.6530 C.3    81  LYS81       0.0298
     33  CG       -42.3640   -1.9720    8.5360 C.3    81  LYS81       0.0038
     34  CD       -43.1400   -2.6330    9.6550 C.3    81  LYS81       0.0206
     35  CE       -44.4900   -1.9770    9.8470 C.3    81  LYS81       0.1093
     36  NZ       -45.1610   -2.5470   11.0360 N.3    81  LYS81      -0.1314
     37  N        -28.8210    5.7700    4.2710 N.3    91  LEU91      -0.1231
     38  CA       -28.1690    5.0960    5.3890 C.3    91  LEU91       0.1693
     39  C        -27.2850    3.9630    4.8890 C.2    91  LEU91       0.2591
     40  O        -26.1320    3.8390    5.2960 O.2    91  LEU91      -0.2718
     41  CB       -29.2040    4.5570    6.3700 C.3    91  LEU91       0.0284
     42  CG       -29.9990    5.5920    7.1570 C.3    91  LEU91       0.0019
     43  CD1      -31.2020    4.9270    7.8850 C.3    91  LEU91       0.0001
     44  CD2      -29.0450    6.2430    8.1670 C.3    91  LEU91       0.0001
     45  N        -27.8170    3.1110    4.0180 N.am   92  LEU92      -0.1980
     46  CA       -27.0030    1.9980    3.5420 C.3    92  LEU92       0.1596
     47  C        -25.8110    2.5080    2.7480 C.2    92  LEU92       0.2287
     48  O        -24.6740    2.0460    2.9370 O.2    92  LEU92      -0.2864
     49  CB       -27.8570    1.0440    2.7020 C.3    92  LEU92       0.0297
     50  CG       -27.0970   -0.2170    2.2940 C.3    92  LEU92       0.0022
     51  CD1      -26.6300   -0.9640    3.5450 C.3    92  LEU92       0.0001
     52  CD2      -27.9340   -1.1060    1.3950 C.3    92  LEU92       0.0001
     53  N        -23.0810    4.1360    5.0670 N.3    95  ILE95      -0.1245
     54  CA       -22.3270    3.1090    5.7830 C.3    95  ILE95       0.1561
     55  C        -21.4020    2.3730    4.8230 C.2    95  ILE95       0.2260
     56  O        -20.2580    2.0550    5.1660 O.2    95  ILE95      -0.2867
     57  CB       -23.2590    2.1310    6.5170 C.3    95  ILE95       0.0252
     58  CG1      -23.8830    2.8220    7.7170 C.3    95  ILE95       0.0019
     59  CG2      -22.4490    1.0020    7.1340 C.3    95  ILE95       0.0019
     60  CD1      -25.0990    2.0380    8.3530 C.3    95  ILE95       0.0001
     61  N        -32.5610   -8.3090   19.7780 N.3   155  MET155     -0.1245
     62  CA       -33.2110   -8.5730   18.4960 C.3   155  MET155      0.1570
     63  C        -34.0520   -9.8400   18.5520 C.2   155  MET155      0.2261
     64  O        -35.1950   -9.8580   18.0770 O.2   155  MET155     -0.2867
     65  CB       -32.1630   -8.6770   17.3840 C.3   155  MET155      0.0387
     66  CG       -31.4460   -7.3690   17.1380 C.3   155  MET155      0.0595
     67  SD       -30.4030   -7.4040   15.6800 S.3   155  MET155     -0.1393
     68  CE       -29.3260   -8.7950   16.0690 C.3   155  MET155      0.0692
     69  N        -37.1650   -9.3080   20.7120 N.3   158  GLU158     -0.1231
     70  CA       -38.1640   -8.4900   20.0380 C.3   158  GLU158      0.1699
     71  C        -39.0910   -9.3570   19.2010 C.2   158  GLU158      0.2592
     72  O        -40.3150   -9.2000   19.2510 O.2   158  GLU158     -0.2718
     73  CB       -37.5030   -7.4410   19.1590 C.3   158  GLU158      0.0402
     74  CG       -38.5250   -6.5530   18.5060 C.3   158  GLU158      0.1161
     75  CD       -37.9020   -5.4050   17.7740 C.2   158  GLU158      0.3649
     76  OE1      -38.1780   -5.2610   16.5680 O.co2 158  GLU158     -0.2457
     77  OE2      -37.1210   -4.6600   18.4080 O.co2 158  GLU158     -0.2457
     78  N        -38.5230  -10.3070   18.4610 N.am  159  GLN159     -0.1979
     79  CA       -39.3230  -11.1950   17.6280 C.3   159  GLN159      0.1601
     80  C        -40.0710  -12.2220   18.4580 C.2   159  GLN159      0.2287
     81  O        -41.1940  -12.5970   18.1150 O.2   159  GLN159     -0.2864
     82  CB       -38.4250  -11.8710   16.6000 C.3   159  GLN159      0.0394
     83  CG       -37.8010  -10.8530   15.6950 C.3   159  GLN159      0.0908
     84  CD       -38.8740  -10.0350   15.0440 C.2   159  GLN159      0.2608
     85  OE1      -39.7590  -10.5880   14.3850 O.2   159  GLN159     -0.2717
     86  NE2      -38.8400   -8.7140   15.2550 N.am  159  GLN159     -0.0878
@<TRIPOS>BOND
     1    52    50    1
     2    50    49    1
     3    50    51    1
     4    49    46    1
     5    47    48    2
     6    47    46    1
     7    46    45    1
     8    45    39   am
     9    37    38    1
    10    55    56    2
    11    55    54    1
    12    39    40    2
    13    39    38    1
    14    53    54    1
    15    38    41    1
    16    54    57    1
    17    41    42    1
    18    57    59    1
    19    57    58    1
    20    20    19    2
    21    31    30    2
    22    42    43    1
    23    42    44    1
    24    58    60    1
    25    30    29    1
    26    29    28    1
    27    29    32    1
    28    19    28   am
    29    19    18    1
    30    21    18    1
    31    21    22    1
    32    33    32    1
    33    33    34    1
    34    23    22   ar
    35    23    25   ar
    36    18    17    1
    37    22    24   ar
    38    25    27   ar
    39    34    35    1
    40    35    36    1
    41    24    26   ar
    42    27    26   ar
    43     4     3    2
    44    15    14    2
    45    14    13    1
    46     7     9   ar
    47     7     6   ar
    48     3     2    1
    49     3    12   am
    50    13    12    1
    51    13    16    1
    52     5     2    1
    53     5     6    1
    54     9    11   ar
    55     2     1    1
    56     6     8   ar
    57    11    10   ar
    58    85    84    2
    59     8    10   ar
    60    84    86   am
    61    84    83    1
    62    67    68    1
    63    67    66    1
    64    83    82    1
    65    76    75   ar
    66    82    79    1
    67    66    65    1
    68    65    62    1
    69    79    80    1
    70    79    78    1
    71    75    77   ar
    72    75    74    1
    73    64    63    2
    74    81    80    2
    75    78    71   am
    76    62    63    1
    77    62    61    1
    78    74    73    1
    79    73    70    1
    80    71    72    2
    81    71    70    1
    82    70    69    1
