@<TRIPOS>MOLECULE
tmp/6a2wA01.pdb
 194 181 0 0 0
SMALL
GASTEIGER

@<TRIPOS>ATOM
      1  N        -19.7160   -2.5100   16.2680 N.3    42  ILE42      -0.1245
      2  CA       -21.0890   -2.3270   15.8100 C.3    42  ILE42       0.1561
      3  C        -22.0610   -2.6430   16.9350 C.2    42  ILE42       0.2260
      4  O        -23.0200   -1.9000   17.1770 O.2    42  ILE42      -0.2867
      5  CB       -21.3570   -3.2010   14.5800 C.3    42  ILE42       0.0252
      6  CG1      -20.5290   -2.6790   13.3990 C.3    42  ILE42       0.0019
      7  CG2      -22.8560   -3.2210   14.2010 C.3    42  ILE42       0.0019
      8  CD1      -20.4290   -3.6910   12.2440 C.3    42  ILE42       0.0001
      9  N        -22.3870   -0.0190   19.6420 N.3    45  LEU45      -0.1231
     10  CA       -23.2270    1.0990   19.2140 C.3    45  LEU45       0.1693
     11  C        -24.6800    0.6690   19.1300 C.2    45  LEU45       0.2591
     12  O        -25.5950    1.4480   19.4430 O.2    45  LEU45      -0.2718
     13  CB       -22.7570    1.6190   17.8460 C.3    45  LEU45       0.0284
     14  CG       -21.3600    2.2500   17.8130 C.3    45  LEU45       0.0019
     15  CD1      -21.0190    2.5540   16.3250 C.3    45  LEU45       0.0001
     16  CD2      -21.3010    3.5370   18.6720 C.3    45  LEU45       0.0001
     17  N        -24.9110   -0.5830   18.6950 N.am   46  ALA46      -0.1980
     18  CA       -26.2790   -1.0620   18.5240 C.3    46  ALA46       0.1597
     19  C        -27.0140   -1.1670   19.8570 C.2    46  ALA46       0.2287
     20  O        -28.1810   -0.7550   19.9690 O.2    46  ALA46      -0.2864
     21  CB       -26.2660   -2.4140   17.7800 C.3    46  ALA46       0.0319
     22  N        -26.4860    0.5220   22.6160 N.3    48  VAL48      -0.1231
     23  CA       -26.7980    1.8550   23.1130 C.3    48  VAL48       0.1692
     24  C        -27.9390    2.4620   22.3010 C.2    48  VAL48       0.2592
     25  O        -28.8980    2.9940   22.8640 O.2    48  VAL48      -0.2718
     26  CB       -25.5470    2.7510   23.1090 C.3    48  VAL48       0.0266
     27  CG1      -25.9550    4.1630   23.3870 C.3    48  VAL48       0.0020
     28  CG2      -24.5450    2.2970   24.2020 C.3    48  VAL48       0.0020
     29  N        -27.8790    2.3400   20.9740 N.am   49  GLY49      -0.1957
     30  CA       -28.9370    2.8880   20.1430 C.3    49  GLY49       0.1869
     31  C        -30.2860    2.2580   20.4220 C.2    49  GLY49       0.2309
     32  O        -31.2930    2.9540   20.5100 O.2    49  GLY49      -0.2863
     33  N        -31.4460    3.6040   23.8610 N.3    52  VAL52      -0.1231
     34  CA       -31.8310    5.0110   23.8250 C.3    52  VAL52       0.1692
     35  C        -33.1440    5.1710   23.0650 C.2    52  VAL52       0.2591
     36  O        -34.0710    5.8620   23.5070 O.2    52  VAL52      -0.2718
     37  CB       -30.7050    5.8480   23.1940 C.3    52  VAL52       0.0266
     38  CG1      -31.2070    7.2500   22.8530 C.3    52  VAL52       0.0020
     39  CG2      -29.4870    5.9080   24.1550 C.3    52  VAL52       0.0020
     40  N        -33.2430    4.5090   21.9140 N.am   53  GLN53      -0.1979
     41  CA       -34.4620    4.5850   21.1100 C.3    53  GLN53       0.1601
     42  C        -35.6310    3.9430   21.8340 C.2    53  GLN53       0.2287
     43  O        -36.7530    4.4510   21.7770 O.2    53  GLN53      -0.2864
     44  CB       -34.2360    3.9290   19.7390 C.3    53  GLN53       0.0394
     45  CG       -33.2070    4.6280   18.8550 C.3    53  GLN53       0.0908
     46  CD       -32.7570    3.7700   17.6700 C.2    53  GLN53       0.2608
     47  OE1      -31.6330    3.9230   17.1420 O.2    53  GLN53      -0.2717
     48  NE2      -33.6300    2.8460   17.2540 N.am   53  GLN53      -0.0878
     49  N        -36.2400    8.4440   23.1800 N.3    57  VAL57      -0.1231
     50  CA       -35.4720    9.5910   22.7150 C.3    57  VAL57       0.1692
     51  C        -35.5020    9.6440   21.1920 C.2    57  VAL57       0.2592
     52  O        -35.2380    8.6430   20.5060 O.2    57  VAL57      -0.2718
     53  CB       -34.0360    9.5280   23.2480 C.3    57  VAL57       0.0266
     54  CG1      -33.2530   10.7620   22.8190 C.3    57  VAL57       0.0020
     55  CG2      -34.0420    9.3950   24.7580 C.3    57  VAL57       0.0020
     56  N        -35.7980   10.8230   20.6480 N.am   58  ARG58      -0.1966
     57  CA       -35.8550   10.9840   19.2020 C.3    58  ARG58       0.1729
     58  C        -35.1640   12.2690   18.7860 C.2    58  ARG58       0.2616
     59  O        -35.1930   13.2630   19.5120 O.2    58  ARG58      -0.2715
     60  CB       -37.3160   11.0210   18.7000 C.3    58  ARG58       0.0348
     61  CG       -38.0610    9.7020   18.8040 C.3    58  ARG58       0.0492
     62  CD       -37.4180    8.6230   17.8840 C.3    58  ARG58       0.2205
     63  NE       -38.2310    7.4000   17.8990 N.pl3  58  ARG58      -0.0865
     64  CZ       -38.1410    6.4520   18.8260 C.cat  58  ARG58       0.5346
     65  NH1      -37.2530    6.5670   19.8190 N.pl3  58  ARG58       0.1354
     66  NH2      -38.9160    5.3790   18.7510 N.pl3  58  ARG58       0.1354
     67  N        -34.5860   12.2520   17.5850 N.am   59  LEU59      -0.1977
     68  CA       -34.1360   13.4850   16.9530 C.3    59  LEU59       0.1596
     69  C        -35.3070   14.4600   16.8260 C.2    59  LEU59       0.2287
     70  O        -36.4520   14.0470   16.6210 O.2    59  LEU59      -0.2864
     71  CB       -33.5480   13.1970   15.5730 C.3    59  LEU59       0.0297
     72  CG       -32.2220   12.4230   15.6280 C.3    59  LEU59       0.0022
     73  CD1      -31.7660   11.9730   14.2380 C.3    59  LEU59       0.0001
     74  CD2      -31.1760   13.3040   16.2860 C.3    59  LEU59       0.0001
     75  N        -37.9880   13.7960    9.4990 N.3    63  ILE63      -0.1245
     76  CA       -36.9470   13.0760    8.7810 C.3    63  ILE63       0.1561
     77  C        -37.0220   13.2830    7.2750 C.2    63  ILE63       0.2260
     78  O        -36.0720   12.9240    6.5670 O.2    63  ILE63      -0.2867
     79  CB       -37.0410   11.5810    9.1370 C.3    63  ILE63       0.0252
     80  CG1      -35.7940   10.8220    8.6910 C.3    63  ILE63       0.0019
     81  CG2      -38.3450   10.9950    8.5640 C.3    63  ILE63       0.0019
     82  CD1      -35.7300    9.4010    9.2500 C.3    63  ILE63       0.0001
     83  N        -39.5190   11.9680   13.3160 N.3    70  PHE70      -0.1241
     84  CA       -38.7870   10.9270   14.0360 C.3    70  PHE70       0.1605
     85  C        -39.6420   10.3460   15.1560 C.2    70  PHE70       0.2264
     86  O        -39.5690    9.1470   15.4550 O.2    70  PHE70      -0.2867
     87  CB       -37.4930   11.4880   14.6300 C.3    70  PHE70       0.0534
     88  CG       -36.4650   11.9060   13.6120 C.ar   70  PHE70      -0.0203
     89  CD1      -35.5730   10.9890   13.1000 C.ar   70  PHE70      -0.0042
     90  CD2      -36.3720   13.2300   13.2080 C.ar   70  PHE70      -0.0042
     91  CE1      -34.5840   11.3770   12.1890 C.ar   70  PHE70      -0.0003
     92  CE2      -35.4040   13.6270   12.3010 C.ar   70  PHE70      -0.0003
     93  CZ       -34.5100   12.6960   11.7840 C.ar   70  PHE70      -0.0000
     94  N        -41.6170    7.2610   14.4720 N.3    73  ILE73      -0.1231
     95  CA       -40.8750    6.0890   14.0490 C.3    73  ILE73       0.1678
     96  C        -40.6330    5.2210   15.2780 C.2    73  ILE73       0.2434
     97  O        -40.0710    5.7040   16.2730 O.2    73  ILE73      -0.2733
     98  CB       -39.5660    6.5000   13.3610 C.3    73  ILE73       0.0265
     99  CG1      -39.8820    7.3610   12.1360 C.3    73  ILE73       0.0019
    100  CG2      -38.7340    5.2840   12.9970 C.3    73  ILE73       0.0020
    101  CD1      -38.6010    7.8940   11.4390 C.3    73  ILE73       0.0001
    102  N        -41.0370    3.9550   15.2480 N.am   74  PRO74      -0.2729
    103  CA       -40.9000    3.0840   16.4160 C.3    74  PRO74       0.1401
    104  C        -39.4940    2.5110   16.5090 C.2    74  PRO74       0.2269
    105  O        -38.6980    2.5840   15.5750 O.2    74  PRO74      -0.2865
    106  CB       -41.9090    1.9790   16.1250 C.3    74  PRO74       0.0296
    107  CG       -41.8040    1.8420   14.6260 C.3    74  PRO74       0.0237
    108  CD       -41.6600    3.2550   14.1080 C.3    74  PRO74       0.0939
    109  N        -36.7450   -0.7090   17.0590 N.3    76  GLY76      -0.1225
    110  CA       -36.6280   -2.0850   16.6140 C.3    76  GLY76       0.1811
    111  C        -36.6800   -2.2040   15.1080 C.2    76  GLY76       0.2280
    112  O        -36.5270   -1.2320   14.3660 O.2    76  GLY76      -0.2866
    113  N        -38.8490    0.1050   12.8230 N.3    79  ALA79      -0.1231
    114  CA       -38.3790    1.3950   12.3240 C.3    79  ALA79       0.1694
    115  C        -38.2600    1.3860   10.8150 C.2    79  ALA79       0.2592
    116  O        -38.5060    2.4060   10.1570 O.2    79  ALA79      -0.2718
    117  CB       -37.0200    1.7660   12.9280 C.3    79  ALA79       0.0304
    118  N        -37.8700    0.2510   10.2420 N.am   80  PHE80      -0.1976
    119  CA       -37.6020    0.2600    8.8100 C.3    80  PHE80       0.1639
    120  C        -38.8720    0.3940    7.9870 C.2    80  PHE80       0.2290
    121  O        -38.7950    0.8230    6.8320 O.2    80  PHE80      -0.2864
    122  CB       -36.8010   -0.9830    8.4270 C.3    80  PHE80       0.0560
    123  CG       -35.4660   -1.0310    9.0880 C.ar   80  PHE80      -0.0200
    124  CD1      -34.4790   -0.1170    8.7500 C.ar   80  PHE80      -0.0042
    125  CD2      -35.2040   -1.9490   10.0770 C.ar   80  PHE80      -0.0042
    126  CE1      -33.2550   -0.1330    9.3770 C.ar   80  PHE80      -0.0003
    127  CE2      -33.9780   -1.9690   10.7060 C.ar   80  PHE80      -0.0003
    128  CZ       -33.0050   -1.0570   10.3600 C.ar   80  PHE80      -0.0000
    129  N        -39.1400    4.5460    8.0900 N.3    83  ILE83      -0.1245
    130  CA       -38.0990    5.4020    7.4950 C.3    83  ILE83       0.1561
    131  C        -38.3300    5.4560    5.9910 C.2    83  ILE83       0.2260
    132  O        -38.5090    4.3970    5.3520 O.2    83  ILE83      -0.2867
    133  CB       -36.7030    4.8670    7.8160 C.3    83  ILE83       0.0252
    134  CG1      -36.4360    4.8250    9.3220 C.3    83  ILE83       0.0019
    135  CG2      -35.6040    5.7100    7.1170 C.3    83  ILE83       0.0019
    136  CD1      -35.2320    4.0080    9.6730 C.3    83  ILE83       0.0001
    137  N        -28.8210    5.7700    4.2710 N.3    91  LEU91      -0.1245
    138  CA       -28.1690    5.0960    5.3890 C.3    91  LEU91       0.1561
    139  C        -27.2850    3.9630    4.8890 C.2    91  LEU91       0.2260
    140  O        -26.1320    3.8390    5.2960 O.2    91  LEU91      -0.2867
    141  CB       -29.2040    4.5570    6.3700 C.3    91  LEU91       0.0270
    142  CG       -29.9990    5.5920    7.1570 C.3    91  LEU91       0.0019
    143  CD1      -31.2020    4.9270    7.8850 C.3    91  LEU91       0.0001
    144  CD2      -29.0450    6.2430    8.1670 C.3    91  LEU91       0.0001
    145  N        -23.0810    4.1360    5.0670 N.3    95  ILE95      -0.1245
    146  CA       -22.3270    3.1090    5.7830 C.3    95  ILE95       0.1561
    147  C        -21.4020    2.3730    4.8230 C.2    95  ILE95       0.2260
    148  O        -20.2580    2.0550    5.1660 O.2    95  ILE95      -0.2867
    149  CB       -23.2590    2.1310    6.5170 C.3    95  ILE95       0.0252
    150  CG1      -23.8830    2.8220    7.7170 C.3    95  ILE95       0.0019
    151  CG2      -22.4490    1.0020    7.1340 C.3    95  ILE95       0.0019
    152  CD1      -25.0990    2.0380    8.3530 C.3    95  ILE95       0.0001
    153  N        -18.3370    4.4630    4.4080 N.3    98  LEU98      -0.1245
    154  CA       -17.4110    4.2140    5.5170 C.3    98  LEU98       0.1561
    155  C        -16.6060    2.9550    5.2620 C.2    98  LEU98       0.2260
    156  O        -15.3910    2.9210    5.4980 O.2    98  LEU98      -0.2867
    157  CB       -18.1680    4.0960    6.8520 C.3    98  LEU98       0.0270
    158  CG       -18.8090    5.3730    7.3890 C.3    98  LEU98       0.0019
    159  CD1      -19.5020    5.0530    8.7020 C.3    98  LEU98       0.0001
    160  CD2      -17.7450    6.4560    7.5780 C.3    98  LEU98       0.0001
    161  N        -13.1350    4.7600    4.4680 N.3   102  VAL102     -0.1231
    162  CA       -12.8460    5.3980    5.7590 C.3   102  VAL102      0.1692
    163  C        -12.3940    4.3900    6.8100 C.2   102  VAL102      0.2591
    164  O        -11.2770    4.4640    7.3400 O.2   102  VAL102     -0.2718
    165  CB       -14.0840    6.1600    6.2810 C.3   102  VAL102      0.0266
    166  CG1      -13.7820    6.8080    7.6420 C.3   102  VAL102      0.0020
    167  CG2      -14.5200    7.2240    5.2790 C.3   102  VAL102      0.0020
    168  N        -13.2750    3.4530    7.1460 N.am  103  MET103     -0.1979
    169  CA       -13.0500    2.5510    8.2780 C.3   103  MET103      0.1605
    170  C        -12.2430    1.3400    7.8180 C.2   103  MET103      0.2287
    171  O        -12.7350    0.2140    7.7310 O.2   103  MET103     -0.2864
    172  CB       -14.3780    2.1260    8.8870 C.3   103  MET103      0.0413
    173  CG       -15.1490    3.2720    9.5080 C.3   103  MET103      0.0598
    174  SD       -14.2360    3.8470   10.9560 S.3   103  MET103     -0.1393
    175  CE       -15.1570    5.3320   11.3650 C.3   103  MET103      0.0692
    176  N         -6.4320   10.6150   12.7690 N.3   121  ILE121     -0.1245
    177  CA        -7.1530   10.9520   14.0000 C.3   121  ILE121      0.1561
    178  C         -6.5890   10.1020   15.1300 C.2   121  ILE121      0.2260
    179  O         -6.5800    8.8670   15.0360 O.2   121  ILE121     -0.2867
    180  CB        -8.6700   10.7480   13.8650 C.3   121  ILE121      0.0252
    181  CG1       -9.2260   11.6570   12.7690 C.3   121  ILE121      0.0019
    182  CG2       -9.3660   11.0660   15.1880 C.3   121  ILE121      0.0019
    183  CD1      -10.6790   11.4060   12.4270 C.3   121  ILE121      0.0001
    184  N         -6.3090   10.4810   19.5830 N.3   123  PHE123     -0.1241
    185  CA        -6.4880   11.2380   20.8140 C.3   123  PHE123      0.1605
    186  C         -5.3840   10.9850   21.8300 C.2   123  PHE123      0.2264
    187  O         -5.5210   11.3990   22.9830 O.2   123  PHE123     -0.2867
    188  CB        -7.8560   10.9240   21.4350 C.3   123  PHE123      0.0534
    189  CG        -9.0120   11.2990   20.5570 C.ar  123  PHE123     -0.0203
    190  CD1       -9.4160   12.6150   20.4510 C.ar  123  PHE123     -0.0042
    191  CD2       -9.6860   10.3360   19.8260 C.ar  123  PHE123     -0.0042
    192  CE1      -10.4790   12.9590   19.6440 C.ar  123  PHE123     -0.0003
    193  CE2      -10.7550   10.6750   19.0100 C.ar  123  PHE123     -0.0003
    194  CZ       -11.1500   11.9850   18.9150 C.ar  123  PHE123     -0.0000
@<TRIPOS>BOND
     1   137   138    1
     2   153   154    1
     3   161   162    1
     4   147   148    2
     5   147   146    1
     6   139   140    2
     7   139   138    1
     8   145   146    1
     9   155   156    2
    10   155   154    1
    11   167   165    1
    12   132   131    2
    13   138   141    1
    14   154   157    1
    15   162   165    1
    16   162   163    1
    17   146   149    1
    18   131   130    1
    19   165   166    1
    20   141   142    1
    21   149   151    1
    22   149   150    1
    23    78    77    2
    24   163   168   am
    25   163   164    2
    26   121   120    2
    27   157   158    1
    28   135   133    1
    29   168   169    1
    30   142   143    1
    31   142   144    1
    32    77    76    1
    33   158   160    1
    34   158   159    1
    35   130   133    1
    36   130   129    1
    37   150   152    1
    38   171   170    2
    39   133   134    1
    40   170   169    1
    41   120   119    1
    42   169   172    1
    43   122   119    1
    44   122   123    1
    45    81    79    1
    46    80    79    1
    47    80    82    1
    48   124   123   ar
    49   124   126   ar
    50    76    79    1
    51    76    75    1
    52   119   118    1
    53   172   173    1
    54   123   125   ar
    55   134   136    1
    56   126   128   ar
    57   173   174    1
    58   125   127   ar
    59   116   115    2
    60   118   115   am
    61   128   127   ar
    62   115   114    1
    63   174   175    1
    64   101    99    1
    65    93    91   ar
    66    93    92   ar
    67    99    98    1
    68    91    89   ar
    69     8     6    1
    70    92    90   ar
    71   114   113    1
    72   114   117    1
    73   183   181    1
    74   176   177    1
    75   181   180    1
    76   100    98    1
    77    89    88   ar
    78    90    88   ar
    79    83    84    1
    80    98    95    1
    81     6     5    1
    82    88    87    1
    83   180   177    1
    84   180   182    1
    85   177   178    1
    86    84    87    1
    87    84    85    1
    88    95    94    1
    89    95    96    1
    90   108   107    1
    91   108   102    1
    92     7     5    1
    93    73    72    1
    94   112   111    2
    95     5     2    1
    96   107   106    1
    97   179   178    2
    98   111   110    1
    99    85    86    2
   100   102    96   am
   101   102   103    1
   102    96    97    2
   103    71    72    1
   104    71    68    1
   105   105   104    2
   106    72    74    1
   107     2     1    1
   108     2     3    1
   109   106   103    1
   110    15    14    1
   111   103   104    1
   112   110   109    1
   113    70    69    2
   114    69    68    1
   115     3     4    2
   116    68    67    1
   117    47    46    2
   118    48    46   am
   119    67    58   am
   120    46    45    1
   121    21    18    1
   122    14    13    1
   123    14    16    1
   124    13    10    1
   125    62    63    1
   126    62    61    1
   127    63    64    2
   128    18    17    1
   129    18    19    1
   130    17    11   am
   131    60    61    1
   132    60    57    1
   133    66    64    1
   134    58    57    1
   135    58    59    2
   136    64    65    1
   137    45    44    1
   138   194   193   ar
   139   194   192   ar
   140   193   191   ar
   141    11    10    1
   142    11    12    2
   143    57    56    1
   144    10     9    1
   145   184   185    1
   146   192   190   ar
   147    44    41    1
   148   191   189   ar
   149    19    20    2
   150    30    31    1
   151    30    29    1
   152    31    32    2
   153   190   189   ar
   154    52    51    2
   155   189   188    1
   156    56    51   am
   157   185   188    1
   158   185   186    1
   159    29    24   am
   160    41    42    1
   161    41    40    1
   162    51    50    1
   163    43    42    2
   164   186   187    2
   165    40    35   am
   166    24    25    2
   167    24    23    1
   168    22    23    1
   169    50    49    1
   170    50    53    1
   171    54    53    1
   172    38    37    1
   173    35    36    2
   174    35    34    1
   175    26    23    1
   176    26    27    1
   177    26    28    1
   178    37    34    1
   179    37    39    1
   180    53    55    1
   181    34    33    1
