@<TRIPOS>MOLECULE
tmp/6a2wA16.pdb
 175 168 0 0 0
SMALL
GASTEIGER

@<TRIPOS>ATOM
      1  N         -9.9300   -9.3470   13.3150 N.3    34  TYR34      -0.1241
      2  CA       -10.5180   -8.1800   12.6630 C.3    34  TYR34       0.1605
      3  C        -12.0410   -8.2610   12.6750 C.2    34  TYR34       0.2264
      4  O        -12.7360   -7.2840   12.9980 O.2    34  TYR34      -0.2867
      5  CB        -9.9950   -8.0810   11.2210 C.3    34  TYR34       0.0534
      6  CG       -10.5110   -6.8820   10.4510 C.ar   34  TYR34      -0.0201
      7  CD1      -11.7280   -6.9270    9.7740 C.ar   34  TYR34      -0.0009
      8  CD2       -9.7860   -5.6980   10.4100 C.ar   34  TYR34      -0.0009
      9  CE1      -12.2020   -5.8250    9.0810 C.ar   34  TYR34       0.0417
     10  CE2      -10.2470   -4.6020    9.7140 C.ar   34  TYR34       0.0417
     11  CZ       -11.4480   -4.6670    9.0470 C.ar   34  TYR34       0.1957
     12  OH       -11.9030   -3.5670    8.3320 O.3    34  TYR34      -0.2866
     13  N        -14.8040   -5.8940   14.7620 N.3    38  LYS38      -0.1245
     14  CA       -15.7890   -5.1530   13.9890 C.3    38  LYS38       0.1561
     15  C        -17.2050   -5.4430   14.4650 C.2    38  LYS38       0.2260
     16  O        -18.0030   -4.5210   14.6590 O.2    38  LYS38      -0.2867
     17  CB       -15.6300   -5.4870   12.5010 C.3    38  LYS38       0.0271
     18  CG       -16.5660   -4.6980   11.6030 C.3    38  LYS38       0.0035
     19  CD       -16.0900   -4.9220   10.1520 C.3    38  LYS38       0.0206
     20  CE       -16.9470   -4.1960    9.1520 C.3    38  LYS38       0.1093
     21  NZ       -16.2020   -4.3280    7.8630 N.3    38  LYS38      -0.1314
     22  N        -17.6160   -3.5570   17.8250 N.3    41  ARG41      -0.1231
     23  CA       -17.8350   -2.1140   17.7620 C.3    41  ARG41       0.1694
     24  C        -19.2510   -1.8020   17.2990 C.2    41  ARG41       0.2591
     25  O        -19.9280   -0.9260   17.8610 O.2    41  ARG41      -0.2718
     26  CB       -16.8190   -1.4780   16.8140 C.3    41  ARG41       0.0321
     27  CG       -15.3730   -1.5650   17.3320 C.3    41  ARG41       0.0489
     28  CD       -14.4160   -1.0020   16.2980 C.3    41  ARG41       0.2205
     29  NE       -13.0930   -0.7460   16.8810 N.pl3  41  ARG41      -0.0865
     30  CZ       -11.9730   -0.6380   16.1690 C.cat  41  ARG41       0.5346
     31  NH1      -11.9740   -0.7730   14.8330 N.pl3  41  ARG41       0.1354
     32  NH2      -10.8470   -0.3930   16.7980 N.pl3  41  ARG41       0.1354
     33  N        -19.7160   -2.5100   16.2680 N.am   42  ILE42      -0.1980
     34  CA       -21.0890   -2.3270   15.8100 C.3    42  ILE42       0.1595
     35  C        -22.0610   -2.6430   16.9350 C.2    42  ILE42       0.2287
     36  O        -23.0200   -1.9000   17.1770 O.2    42  ILE42      -0.2864
     37  CB       -21.3570   -3.2010   14.5800 C.3    42  ILE42       0.0276
     38  CG1      -20.5290   -2.6790   13.3990 C.3    42  ILE42       0.0022
     39  CG2      -22.8560   -3.2210   14.2010 C.3    42  ILE42       0.0022
     40  CD1      -20.4290   -3.6910   12.2440 C.3    42  ILE42       0.0001
     41  N        -22.3870   -0.0190   19.6420 N.3    45  LEU45      -0.1231
     42  CA       -23.2270    1.0990   19.2140 C.3    45  LEU45       0.1693
     43  C        -24.6800    0.6690   19.1300 C.2    45  LEU45       0.2591
     44  O        -25.5950    1.4480   19.4430 O.2    45  LEU45      -0.2718
     45  CB       -22.7570    1.6190   17.8460 C.3    45  LEU45       0.0284
     46  CG       -21.3600    2.2500   17.8130 C.3    45  LEU45       0.0019
     47  CD1      -21.0190    2.5540   16.3250 C.3    45  LEU45       0.0001
     48  CD2      -21.3010    3.5370   18.6720 C.3    45  LEU45       0.0001
     49  N        -24.9110   -0.5830   18.6950 N.am   46  ALA46      -0.1980
     50  CA       -26.2790   -1.0620   18.5240 C.3    46  ALA46       0.1597
     51  C        -27.0140   -1.1670   19.8570 C.2    46  ALA46       0.2287
     52  O        -28.1810   -0.7550   19.9690 O.2    46  ALA46      -0.2864
     53  CB       -26.2660   -2.4140   17.7800 C.3    46  ALA46       0.0319
     54  N        -34.5860   12.2520   17.5850 N.3    59  LEU59      -0.1231
     55  CA       -34.1360   13.4850   16.9530 C.3    59  LEU59       0.1678
     56  C        -35.3070   14.4600   16.8260 C.2    59  LEU59       0.2434
     57  O        -36.4520   14.0470   16.6210 O.2    59  LEU59      -0.2733
     58  CB       -33.5480   13.1970   15.5730 C.3    59  LEU59       0.0284
     59  CG       -32.2220   12.4230   15.6280 C.3    59  LEU59       0.0019
     60  CD1      -31.7660   11.9730   14.2380 C.3    59  LEU59       0.0001
     61  CD2      -31.1760   13.3040   16.2860 C.3    59  LEU59       0.0001
     62  N        -35.0500   15.7610   16.9270 N.am   60  PRO60      -0.2729
     63  CA       -36.1480   16.7250   16.8300 C.3    60  PRO60       0.1401
     64  C        -36.6890   16.7880   15.4120 C.2    60  PRO60       0.2269
     65  O        -35.9460   16.6700   14.4370 O.2    60  PRO60      -0.2865
     66  CB       -35.4970   18.0540   17.2290 C.3    60  PRO60       0.0296
     67  CG       -34.0550   17.7260   17.5710 C.3    60  PRO60       0.0237
     68  CD       -33.7390   16.4230   16.9330 C.3    60  PRO60       0.0939
     69  N        -38.5530   16.4900   11.7950 N.3    62  THR62      -0.1203
     70  CA       -38.9720   15.6480   10.6880 C.3    62  THR62       0.1994
     71  C        -37.7720   15.0110   10.0020 C.2    62  THR62       0.2618
     72  O        -36.6950   15.6040    9.9020 O.2    62  THR62      -0.2717
     73  CB       -39.7730   16.4510    9.6530 C.3    62  THR62       0.1784
     74  OG1      -38.9520   17.5080    9.1280 O.3    62  THR62      -0.2211
     75  CG2      -41.0360   17.0370   10.2780 C.3    62  THR62       0.0376
     76  N        -37.9880   13.7960    9.4990 N.am   63  ILE63      -0.1965
     77  CA       -36.9470   13.0760    8.7810 C.3    63  ILE63       0.1727
     78  C        -37.0220   13.2830    7.2750 C.2    63  ILE63       0.2616
     79  O        -36.0720   12.9240    6.5670 O.2    63  ILE63      -0.2715
     80  CB       -37.0410   11.5810    9.1370 C.3    63  ILE63       0.0290
     81  CG1      -35.7940   10.8220    8.6910 C.3    63  ILE63       0.0022
     82  CG2      -38.3450   10.9950    8.5640 C.3    63  ILE63       0.0023
     83  CD1      -35.7300    9.4010    9.2500 C.3    63  ILE63       0.0001
     84  N        -38.1150   13.8470    6.7560 N.am   64  ASP64      -0.1957
     85  CA       -38.1870   14.1570    5.3340 C.3    64  ASP64       0.1840
     86  C        -39.0460   15.3970    5.1450 C.2    64  ASP64       0.2622
     87  O        -39.6570   15.9030    6.0900 O.2    64  ASP64      -0.2715
     88  CB       -38.7060   12.9590    4.5160 C.3    64  ASP64       0.1450
     89  CG       -40.1960   12.6810    4.7030 C.2    64  ASP64       0.3671
     90  OD1      -40.9420   13.4990    5.2790 O.co2  64  ASP64      -0.2456
     91  OD2      -40.6420   11.6140    4.2380 O.co2  64  ASP64      -0.2456
     92  N        -39.1070   15.8750    3.9010 N.am   65  TYR65      -0.1974
     93  CA       -39.8990   17.0630    3.5950 C.3    65  TYR65       0.1639
     94  C        -41.3840   16.7810    3.4800 C.2    65  TYR65       0.2290
     95  O        -42.1570   17.7270    3.3060 O.2    65  TYR65      -0.2864
     96  CB       -39.4140   17.7310    2.3040 C.3    65  TYR65       0.0560
     97  CG       -38.1420   18.4950    2.5180 C.ar   65  TYR65      -0.0198
     98  CD1      -38.1190   19.6120    3.3450 C.ar   65  TYR65      -0.0009
     99  CD2      -36.9620   18.0970    1.9200 C.ar   65  TYR65      -0.0009
    100  CE1      -36.9550   20.3190    3.5580 C.ar   65  TYR65       0.0417
    101  CE2      -35.7900   18.7930    2.1300 C.ar   65  TYR65       0.0417
    102  CZ       -35.7940   19.9060    2.9480 C.ar   65  TYR65       0.1957
    103  OH       -34.6280   20.6030    3.1590 O.3    65  TYR65      -0.2866
    104  N        -39.5190   11.9680   13.3160 N.3    70  PHE70      -0.1241
    105  CA       -38.7870   10.9270   14.0360 C.3    70  PHE70       0.1605
    106  C        -39.6420   10.3460   15.1560 C.2    70  PHE70       0.2264
    107  O        -39.5690    9.1470   15.4550 O.2    70  PHE70      -0.2867
    108  CB       -37.4930   11.4880   14.6300 C.3    70  PHE70       0.0534
    109  CG       -36.4650   11.9060   13.6120 C.ar   70  PHE70      -0.0203
    110  CD1      -35.5730   10.9890   13.1000 C.ar   70  PHE70      -0.0042
    111  CD2      -36.3720   13.2300   13.2080 C.ar   70  PHE70      -0.0042
    112  CE1      -34.5840   11.3770   12.1890 C.ar   70  PHE70      -0.0003
    113  CE2      -35.4040   13.6270   12.3010 C.ar   70  PHE70      -0.0003
    114  CZ       -34.5100   12.6960   11.7840 C.ar   70  PHE70      -0.0000
    115  N        -29.9220    6.1380    1.6580 N.3    90  GLN90      -0.1231
    116  CA       -28.8080    6.9580    2.1280 C.3    90  GLN90       0.1698
    117  C        -28.0770    6.3100    3.2980 C.2    90  GLN90       0.2592
    118  O        -26.8380    6.3430    3.3630 O.2    90  GLN90      -0.2718
    119  CB       -29.3090    8.3420    2.5260 C.3    90  GLN90       0.0381
    120  CG       -29.6430    9.2540    1.3260 C.3    90  GLN90       0.0905
    121  CD       -30.2600   10.5740    1.7620 C.2    90  GLN90       0.2608
    122  OE1      -29.5850   11.4490    2.3260 O.2    90  GLN90      -0.2717
    123  NE2      -31.5620   10.6910    1.5730 N.am   90  GLN90      -0.0878
    124  N        -28.8210    5.7700    4.2710 N.am   91  LEU91      -0.1980
    125  CA       -28.1690    5.0960    5.3890 C.3    91  LEU91       0.1596
    126  C        -27.2850    3.9630    4.8890 C.2    91  LEU91       0.2287
    127  O        -26.1320    3.8390    5.2960 O.2    91  LEU91      -0.2864
    128  CB       -29.2040    4.5570    6.3700 C.3    91  LEU91       0.0297
    129  CG       -29.9990    5.5920    7.1570 C.3    91  LEU91       0.0022
    130  CD1      -31.2020    4.9270    7.8850 C.3    91  LEU91       0.0001
    131  CD2      -29.0450    6.2430    8.1670 C.3    91  LEU91       0.0001
    132  N        -23.0810    4.1360    5.0670 N.3    95  ILE95      -0.1245
    133  CA       -22.3270    3.1090    5.7830 C.3    95  ILE95       0.1561
    134  C        -21.4020    2.3730    4.8230 C.2    95  ILE95       0.2260
    135  O        -20.2580    2.0550    5.1660 O.2    95  ILE95      -0.2867
    136  CB       -23.2590    2.1310    6.5170 C.3    95  ILE95       0.0252
    137  CG1      -23.8830    2.8220    7.7170 C.3    95  ILE95       0.0019
    138  CG2      -22.4490    1.0020    7.1340 C.3    95  ILE95       0.0019
    139  CD1      -25.0990    2.0380    8.3530 C.3    95  ILE95       0.0001
    140  N        -18.3370    4.4630    4.4080 N.3    98  LEU98      -0.1231
    141  CA       -17.4110    4.2140    5.5170 C.3    98  LEU98       0.1693
    142  C        -16.6060    2.9550    5.2620 C.2    98  LEU98       0.2591
    143  O        -15.3910    2.9210    5.4980 O.2    98  LEU98      -0.2718
    144  CB       -18.1680    4.0960    6.8520 C.3    98  LEU98       0.0284
    145  CG       -18.8090    5.3730    7.3890 C.3    98  LEU98       0.0019
    146  CD1      -19.5020    5.0530    8.7020 C.3    98  LEU98       0.0001
    147  CD2      -17.7450    6.4560    7.5780 C.3    98  LEU98       0.0001
    148  N        -17.2630    1.9170    4.7450 N.am   99  GLU99      -0.1979
    149  CA       -16.5930    0.6410    4.5190 C.3    99  GLU99       0.1602
    150  C        -15.5870    0.7370    3.3850 C.2    99  GLU99       0.2287
    151  O        -14.5220    0.1130    3.4460 O.2    99  GLU99      -0.2864
    152  CB       -17.6170   -0.4570    4.2090 C.3    99  GLU99       0.0415
    153  CG       -18.5570   -0.8130    5.3720 C.3    99  GLU99       0.1163
    154  CD       -17.9750   -1.8780    6.3100 C.2    99  GLU99       0.3649
    155  OE1      -16.8180   -1.7200    6.7560 O.co2  99  GLU99      -0.2457
    156  OE2      -18.6760   -2.8770    6.5900 O.co2  99  GLU99      -0.2457
    157  N        -13.2750    3.4530    7.1460 N.3   103  MET103     -0.1245
    158  CA       -13.0500    2.5510    8.2780 C.3   103  MET103      0.1570
    159  C        -12.2430    1.3400    7.8180 C.2   103  MET103      0.2261
    160  O        -12.7350    0.2140    7.7310 O.2   103  MET103     -0.2867
    161  CB       -14.3780    2.1260    8.8870 C.3   103  MET103      0.0387
    162  CG       -15.1490    3.2720    9.5080 C.3   103  MET103      0.0595
    163  SD       -14.2360    3.8470   10.9560 S.3   103  MET103     -0.1393
    164  CE       -15.1570    5.3320   11.3650 C.3   103  MET103      0.0692
    165  N         -7.6140    1.9870   12.8190 N.3   116  PHE116     -0.1241
    166  CA        -7.9630    2.7800   11.6510 C.3   116  PHE116      0.1605
    167  C         -7.5070    4.2300   11.7600 C.2   116  PHE116      0.2264
    168  O         -7.9670    5.0670   10.9660 O.2   116  PHE116     -0.2867
    169  CB        -9.4780    2.7600   11.4120 C.3   116  PHE116      0.0534
    170  CG       -10.0610    1.3850   11.1790 C.ar  116  PHE116     -0.0203
    171  CD1       -9.2860    0.3520   10.6710 C.ar  116  PHE116     -0.0042
    172  CD2      -11.4100    1.1440   11.4580 C.ar  116  PHE116     -0.0042
    173  CE1       -9.8480   -0.9150   10.4580 C.ar  116  PHE116     -0.0003
    174  CE2      -11.9780   -0.1230   11.2540 C.ar  116  PHE116     -0.0003
    175  CZ       -11.1940   -1.1420   10.7420 C.ar  116  PHE116     -0.0000
@<TRIPOS>BOND
     1   120   121    1
     2   120   119    1
     3   123   121   am
     4   115   116    1
     5   121   122    2
     6    99   101   ar
     7    99    97   ar
     8   116   119    1
     9   116   117    1
    10   101   102   ar
    11    96    97    1
    12    96    93    1
    13    97    98   ar
    14   102   103    1
    15   102   100   ar
    16   117   118    2
    17   117   124   am
    18    95    94    2
    19    98   100   ar
    20   150   151    2
    21   150   149    1
    22    94    93    1
    23    93    92    1
    24    92    86   am
    25   152   149    1
    26   152   153    1
    27    91    89   ar
    28   124   125    1
    29   140   141    1
    30    88    89    1
    31    88    85    1
    32   149   148    1
    33    89    90   ar
    34   148   142   am
    35   134   135    2
    36   134   133    1
    37   126   127    2
    38   126   125    1
    39   132   133    1
    40    86    85    1
    41    86    87    2
    42   142   143    2
    43   142   141    1
    44    85    84    1
    45   153   154    1
    46   125   128    1
    47   141   144    1
    48   133   136    1
    49   154   156   ar
    50   154   155   ar
    51   128   129    1
    52   136   138    1
    53   136   137    1
    54    79    78    2
    55    84    78   am
    56   144   145    1
    57   157   158    1
    58   129   130    1
    59   129   131    1
    60    78    77    1
    61   145   147    1
    62   145   146    1
    63   137   139    1
    64   160   159    2
    65   159   158    1
    66    21    20    1
    67   158   161    1
    68    12    11    1
    69    82    80    1
    70    81    80    1
    71    81    83    1
    72    77    80    1
    73    77    76    1
    74   161   162    1
    75    11     9   ar
    76    11    10   ar
    77     9     7   ar
    78    74    73    1
    79    20    19    1
    80    76    71   am
    81   162   163    1
    82    73    75    1
    83    73    70    1
    84    10     8   ar
    85     7     6   ar
    86    72    71    2
    87    71    70    1
    88    19    18    1
    89     8     6   ar
    90     6     5    1
    91   173   171   ar
    92   173   175   ar
    93   171   170   ar
    94    70    69    1
    95   175   174   ar
    96   163   164    1
    97   168   167    2
    98   170   169    1
    99   170   172   ar
   100     5     2    1
   101   174   172   ar
   102   169   166    1
   103    18    17    1
   104   166   167    1
   105   166   165    1
   106   114   112   ar
   107   114   113   ar
   108   112   110   ar
   109    40    38    1
   110   113   111   ar
   111    17    14    1
   112     2     3    1
   113     2     1    1
   114     3     4    2
   115   110   109   ar
   116   111   109   ar
   117   104   105    1
   118    38    37    1
   119   109   108    1
   120    14    15    1
   121    14    13    1
   122   105   108    1
   123   105   106    1
   124    39    37    1
   125    60    59    1
   126    65    64    2
   127    15    16    2
   128    37    34    1
   129    31    30    1
   130   106   107    2
   131    64    63    1
   132    58    59    1
   133    58    55    1
   134    59    61    1
   135    34    33    1
   136    34    35    1
   137    30    32    1
   138    30    29    2
   139    33    24   am
   140    28    29    1
   141    28    27    1
   142    47    46    1
   143    57    56    2
   144    26    27    1
   145    26    23    1
   146    56    62   am
   147    56    55    1
   148    63    62    1
   149    63    66    1
   150    62    68    1
   151    68    67    1
   152    35    36    2
   153    55    54    1
   154    66    67    1
   155    24    23    1
   156    24    25    2
   157    23    22    1
   158    53    50    1
   159    46    45    1
   160    46    48    1
   161    45    42    1
   162    50    49    1
   163    50    51    1
   164    49    43   am
   165    43    42    1
   166    43    44    2
   167    42    41    1
   168    51    52    2
