@<TRIPOS>MOLECULE
tmp/6a2wA06.pdb
 71 67 0 0 0
SMALL
GASTEIGER

@<TRIPOS>ATOM
      1  N        -23.5370  -10.3840   22.1930 N.3   149  MET149     -0.1230
      2  CA       -24.5550  -11.2230   22.7970 C.3   149  MET149      0.1702
      3  C        -25.7430  -10.3840   23.2390 C.2   149  MET149      0.2592
      4  O        -26.8970  -10.8400   23.1660 O.2   149  MET149     -0.2718
      5  CB       -23.9520  -11.9880   23.9730 C.3   149  MET149      0.0401
      6  CG       -22.7960  -12.9060   23.5990 C.3   149  MET149      0.0596
      7  SD       -23.2700  -14.0680   22.3170 S.3   149  MET149     -0.1393
      8  CE       -24.7020  -14.8390   23.0590 C.3   149  MET149      0.0692
      9  N        -25.4810   -9.1590   23.7090 N.am  150  GLY150     -0.1957
     10  CA       -26.5710   -8.3090   24.1720 C.3   150  GLY150      0.1869
     11  C        -27.4980   -7.9130   23.0340 C.2   150  GLY150      0.2309
     12  O        -28.7260   -8.0200   23.1430 O.2   150  GLY150     -0.2863
     13  N        -27.8350   -9.4120   20.1580 N.3   152  LEU152     -0.1231
     14  CA       -28.5440  -10.5890   19.6580 C.3   152  LEU152      0.1693
     15  C        -29.7410  -10.9100   20.5410 C.2   152  LEU152      0.2591
     16  O        -30.8400  -11.1750   20.0390 O.2   152  LEU152     -0.2718
     17  CB       -27.6070  -11.7930   19.5730 C.3   152  LEU152      0.0284
     18  CG       -28.2300  -13.0930   19.0490 C.3   152  LEU152      0.0019
     19  CD1      -28.6800  -12.9750   17.5890 C.3   152  LEU152      0.0001
     20  CD2      -27.2610  -14.2390   19.2230 C.3   152  LEU152      0.0001
     21  N        -29.5480  -10.8480   21.8610 N.am  153  ALA153     -0.1980
     22  CA       -30.6330  -11.0520   22.8180 C.3   153  ALA153      0.1597
     23  C        -31.7890  -10.0990   22.5660 C.2   153  ALA153      0.2287
     24  O        -32.9520  -10.5100   22.5570 O.2   153  ALA153     -0.2864
     25  CB       -30.1090  -10.8700   24.2460 C.3   153  ALA153      0.0319
     26  N        -33.5000  -10.9200   19.1190 N.3   156  VAL156     -0.1231
     27  CA       -34.2520  -12.1740   19.1930 C.3   156  VAL156      0.1692
     28  C        -35.5230  -11.9820   20.0120 C.2   156  VAL156      0.2592
     29  O        -36.6230  -12.3750   19.5960 O.2   156  VAL156     -0.2718
     30  CB       -33.3730  -13.3000   19.7740 C.3   156  VAL156      0.0266
     31  CG1      -34.2310  -14.4850   20.2060 C.3   156  VAL156      0.0020
     32  CG2      -32.3360  -13.7390   18.7580 C.3   156  VAL156      0.0020
     33  N        -35.3940  -11.3790   21.1950 N.am  157  HIS157     -0.1976
     34  CA       -36.5560  -11.2660   22.0640 C.3   157  HIS157      0.1656
     35  C        -37.5740  -10.2660   21.5400 C.2   157  HIS157      0.2291
     36  O        -38.7540  -10.3720   21.8770 O.2   157  HIS157     -0.2864
     37  CB       -36.1110  -10.9180   23.4830 C.3   157  HIS157      0.0771
     38  CG       -35.7270  -12.1220   24.2850 C.ar  157  HIS157      0.0820
     39  ND1      -36.6330  -12.8160   25.0580 N.ar  157  HIS157     -0.2267
     40  CD2      -34.5540  -12.7900   24.3880 C.ar  157  HIS157      0.1154
     41  CE1      -36.0270  -13.8430   25.6260 C.ar  157  HIS157      0.1986
     42  NE2      -34.7670  -13.8580   25.2300 N.ar  157  HIS157     -0.2212
     43  N        -39.4700  -12.6950   19.5480 N.3   160  LEU160     -0.1245
     44  CA       -40.1980  -13.5870   20.4420 C.3   160  LEU160      0.1561
     45  C        -41.3840  -12.8920   21.0870 C.2   160  LEU160      0.2260
     46  O        -42.3130  -13.5650   21.5480 O.2   160  LEU160     -0.2867
     47  CB       -39.2760  -14.1190   21.5460 C.3   160  LEU160      0.0270
     48  CG       -38.0950  -15.0180   21.1770 C.3   160  LEU160      0.0019
     49  CD1      -37.1950  -15.2290   22.3950 C.3   160  LEU160      0.0001
     50  CD2      -38.5740  -16.3470   20.6250 C.3   160  LEU160      0.0001
     51  N        -41.0990  -11.4320   23.9280 N.3   162  VAL162     -0.1231
     52  CA       -40.8390  -11.6100   25.3460 C.3   162  VAL162      0.1692
     53  C        -39.7810  -10.5770   25.6820 C.2   162  VAL162      0.2593
     54  O        -38.6150  -10.7520   25.3190 O.2   162  VAL162     -0.2718
     55  CB       -40.3560  -13.0210   25.6700 C.3   162  VAL162      0.0266
     56  CG1      -39.9190  -13.1110   27.1380 C.3   162  VAL162      0.0020
     57  CG2      -41.4470  -14.0220   25.3410 C.3   162  VAL162      0.0020
     58  N        -40.1800   -9.4880   26.3340 N.am  163  SER163     -0.1938
     59  CA       -39.3050   -8.3290   26.4740 C.3   163  SER163      0.2055
     60  C        -38.2510   -8.5580   27.5530 C.2   163  SER163      0.2642
     61  O        -38.5230   -9.1940   28.5760 O.2   163  SER163     -0.2714
     62  CB       -40.1340   -7.0950   26.8180 C.3   163  SER163      0.2130
     63  OG       -39.2970   -5.9930   27.0970 O.3   163  SER163     -0.2179
     64  N        -37.0470   -8.0380   27.3260 N.am  164  LEU164     -0.1977
     65  CA       -35.9770   -8.1140   28.3160 C.3   164  LEU164      0.1596
     66  C        -35.7850   -6.8020   29.0580 C.2   164  LEU164      0.2287
     67  O        -34.8460   -6.6780   29.8560 O.2   164  LEU164     -0.2864
     68  CB       -34.6570   -8.5180   27.6490 C.3   164  LEU164      0.0297
     69  CG       -34.6880   -9.8900   26.9860 C.3   164  LEU164      0.0022
     70  CD1      -33.3500  -10.1910   26.3360 C.3   164  LEU164      0.0001
     71  CD2      -35.0470  -10.9480   28.0140 C.3   164  LEU164      0.0001
@<TRIPOS>BOND
     1    19    18    1
     2    32    30    1
     3    18    20    1
     4    18    17    1
     5    26    27    1
     6    27    30    1
     7    27    28    1
     8    43    44    1
     9    17    14    1
    10    29    28    2
    11    14    13    1
    12    14    15    1
    13    30    31    1
    14    28    33   am
    15    16    15    2
    16    44    45    1
    17    44    47    1
    18    15    21   am
    19    50    48    1
    20    45    46    2
    21    48    47    1
    22    48    49    1
    23    33    34    1
    24    35    36    2
    25    35    34    1
    26    21    22    1
    27    34    37    1
    28     1     2    1
    29     7     8    1
    30     7     6    1
    31    24    23    2
    32    23    22    1
    33     2     3    1
    34     2     5    1
    35    22    25    1
    36    11    12    2
    37    11    10    1
    38     4     3    2
    39     3     9   am
    40    37    38    1
    41     6     5    1
    42     9    10    1
    43    51    52    1
    44    38    40   ar
    45    38    39   ar
    46    40    42   ar
    47    39    41   ar
    48    42    41   ar
    49    54    53    2
    50    57    55    1
    51    52    55    1
    52    52    53    1
    53    55    56    1
    54    53    58   am
    55    58    59    1
    56    70    69    1
    57    59    62    1
    58    59    60    1
    59    62    63    1
    60    69    68    1
    61    69    71    1
    62    64    60   am
    63    64    65    1
    64    60    61    2
    65    68    65    1
    66    65    66    1
    67    66    67    2
