@<TRIPOS>MOLECULE
tmp/6a3iB00.pdb
 131 129 0 0 0
SMALL
GASTEIGER

@<TRIPOS>ATOM
      1  N         -0.3030   13.4840  -52.8960 N.3     9  GLY9       -0.1225
      2  CA        -0.1730   14.2600  -51.6600 C.3     9  GLY9        0.1811
      3  C          1.2840   14.4810  -51.3070 C.2     9  GLY9        0.2280
      4  O          2.0720   13.5320  -51.2760 O.2     9  GLY9       -0.2866
      5  N          2.4490   16.5230  -48.3670 N.3    11  GLY11      -0.1210
      6  CA         2.3530   17.2500  -47.0990 C.3    11  GLY11       0.1956
      7  C          3.4480   16.8400  -46.1250 C.2    11  GLY11       0.2612
      8  O          4.6120   16.6530  -46.5150 O.2    11  GLY11      -0.2717
      9  N          3.0650   16.6940  -44.8500 N.am   12  PHE12      -0.1962
     10  CA         3.9660   16.2560  -43.7950 C.3    12  PHE12       0.1771
     11  C          4.5340   14.8830  -44.1810 C.2    12  PHE12       0.2619
     12  O          5.7130   14.6250  -43.9820 O.2    12  PHE12      -0.2715
     13  CB         3.2610   16.3010  -42.4290 C.3    12  PHE12       0.0574
     14  CG         2.9170   17.6840  -41.9140 C.ar   12  PHE12      -0.0200
     15  CD1        3.9080   18.6340  -41.6810 C.ar   12  PHE12      -0.0042
     16  CD2        1.6010   18.0420  -41.6440 C.ar   12  PHE12      -0.0042
     17  CE1        3.5890   19.9030  -41.2110 C.ar   12  PHE12      -0.0003
     18  CE2        1.2830   19.3120  -41.1770 C.ar   12  PHE12      -0.0003
     19  CZ         2.2770   20.2410  -40.9590 C.ar   12  PHE12      -0.0000
     20  N          3.7040   14.0330  -44.7980 N.am   13  MET13      -0.1977
     21  CA         4.1660   12.7600  -45.4100 C.3    13  MET13       0.1605
     22  C          4.5060   12.9760  -46.8930 C.2    13  MET13       0.2287
     23  O          4.2860   12.0960  -47.7290 O.2    13  MET13      -0.2864
     24  CB         3.0970   11.6660  -45.2920 C.3    13  MET13       0.0413
     25  CG         2.7970   11.2670  -43.8590 C.3    13  MET13       0.0598
     26  SD         4.3020   10.7820  -42.9570 S.3    13  MET13      -0.1393
     27  CE         4.0830   11.7380  -41.4550 C.3    13  MET13       0.0692
     28  N         -1.2070   17.1170  -56.0760 N.3    42  GLU42      -0.1245
     29  CA        -1.6810   17.8970  -54.9280 C.3    42  GLU42       0.1567
     30  C         -3.0800   18.4090  -55.2990 C.2    42  GLU42       0.2260
     31  O         -3.6440   17.9170  -56.2770 O.2    42  GLU42      -0.2867
     32  CB        -0.6560   18.9770  -54.5540 C.3    42  GLU42       0.0388
     33  CG         0.2410   18.6030  -53.3740 C.3    42  GLU42       0.1160
     34  CD        -0.4430   18.5110  -52.0150 C.2    42  GLU42       0.3649
     35  OE1       -1.5290   19.1010  -51.8400 O.co2  42  GLU42      -0.2457
     36  OE2        0.1110   17.8350  -51.1250 O.co2  42  GLU42      -0.2457
     37  N         -0.6350    9.3990  -49.9250 N.3    79  ALA79      -0.1231
     38  CA        -0.2150   10.1690  -48.7320 C.3    79  ALA79       0.1694
     39  C         -1.2080   11.3120  -48.4530 C.2    79  ALA79       0.2593
     40  O         -0.8480   12.3480  -47.9040 O.2    79  ALA79      -0.2718
     41  CB         1.2070   10.6630  -48.9040 C.3    79  ALA79       0.0304
     42  N         -2.4760   11.0910  -48.7960 N.am   80  THR80      -0.1940
     43  CA        -3.5460   12.0390  -48.5930 C.3    80  THR80       0.2013
     44  C         -4.1280   11.8900  -47.1940 C.2    80  THR80       0.2484
     45  O         -3.7810   10.9590  -46.4730 O.2    80  THR80      -0.2729
     46  CB        -4.6610   11.8100  -49.6170 C.3    80  THR80       0.1807
     47  OG1       -5.1540   10.4720  -49.4830 O.3    80  THR80      -0.2208
     48  CG2       -4.1760   12.0630  -51.0230 C.3    80  THR80       0.0379
     49  N         -5.0140   12.8140  -46.7590 N.am   81  PRO81      -0.2715
     50  CA        -5.8670   12.5640  -45.6000 C.3    81  PRO81       0.1536
     51  C         -6.6970   11.2790  -45.7680 C.2    81  PRO81       0.2598
     52  O         -6.7620   10.7040  -46.8590 O.2    81  PRO81      -0.2715
     53  CB        -6.7650   13.8120  -45.5440 C.3    81  PRO81       0.0310
     54  CG        -5.9530   14.8970  -46.2300 C.3    81  PRO81       0.0237
     55  CD        -5.1880   14.1680  -47.3130 C.3    81  PRO81       0.0939
     56  N         -7.3620   10.8630  -44.6870 N.am   82  ASN82      -0.1973
     57  CA        -7.9550    9.5320  -44.5980 C.3    82  ASN82       0.1688
     58  C         -9.2310    9.4470  -45.4550 C.2    82  ASN82       0.2292
     59  O         -9.6750    8.3440  -45.7860 O.2    82  ASN82      -0.2864
     60  CB        -8.1990    9.1300  -43.1340 C.3    82  ASN82       0.1181
     61  CG        -7.0000    9.3570  -42.2290 C.2    82  ASN82       0.2629
     62  OD1       -5.8620    9.4600  -42.6810 O.2    82  ASN82      -0.2716
     63  ND2       -7.2460    9.4500  -40.9360 N.am   82  ASN82      -0.0877
     64  N         -8.3720    7.8380  -49.0760 N.3    85  HIS85      -0.1241
     65  CA        -7.5990    6.6220  -49.2520 C.3    85  HIS85       0.1621
     66  C         -8.3900    5.6760  -50.1630 C.2    85  HIS85       0.2264
     67  O         -7.9110    5.3000  -51.2470 O.2    85  HIS85      -0.2867
     68  CB        -7.2520    5.9740  -47.9060 C.3    85  HIS85       0.0745
     69  CG        -6.2610    6.7470  -47.1020 C.ar   85  HIS85       0.0817
     70  ND1       -6.1560    6.6110  -45.7320 N.ar   85  HIS85      -0.2268
     71  CD2       -5.3490    7.6780  -47.4620 C.ar   85  HIS85       0.1154
     72  CE1       -5.2050    7.4110  -45.2880 C.ar   85  HIS85       0.1986
     73  NE2       -4.6950    8.0750  -46.3320 N.ar   85  HIS85      -0.2212
     74  N         -0.8640    5.1640  -46.9770 N.3   102  GLU102     -0.1231
     75  CA        -0.7190    5.5990  -45.5760 C.3   102  GLU102      0.1699
     76  C         -1.8420    5.0220  -44.7070 C.2   102  GLU102      0.2592
     77  O         -2.9260    4.6810  -45.1970 O.2   102  GLU102     -0.2718
     78  CB        -0.7700    7.1250  -45.4560 C.3   102  GLU102      0.0402
     79  CG         0.5840    7.7790  -45.6110 C.3   102  GLU102      0.1161
     80  CD         1.5920    7.3510  -44.5620 C.2   102  GLU102      0.3649
     81  OE1        1.1650    6.9210  -43.4680 O.co2 102  GLU102     -0.2457
     82  OE2        2.8000    7.4490  -44.8490 O.co2 102  GLU102     -0.2457
     83  N         -1.5680    4.9820  -43.4000 N.am  103  LYS103     -0.1966
     84  CA        -2.5360    4.5940  -42.3600 C.3   103  LYS103      0.1713
     85  C         -3.2870    5.8340  -41.8710 C.2   103  LYS103      0.2458
     86  O         -2.9080    6.9530  -42.2090 O.2   103  LYS103     -0.2730
     87  CB        -1.8220    3.8680  -41.2100 C.3   103  LYS103      0.0311
     88  CG        -0.5670    4.5340  -40.6570 C.3   103  LYS103      0.0038
     89  CD        -0.8740    5.5310  -39.5710 C.3   103  LYS103      0.0206
     90  CE        -0.7110    6.9740  -39.9920 C.3   103  LYS103      0.1093
     91  NZ        -1.3780    7.8900  -39.0330 N.3   103  LYS103     -0.1314
     92  N         -4.3980    5.6320  -41.1490 N.am  104  PRO104     -0.2727
     93  CA        -5.1560    4.3880  -41.1520 C.3   104  PRO104      0.1402
     94  C         -5.6270    4.0950  -42.5850 C.2   104  PRO104      0.2269
     95  O         -5.7810    5.0260  -43.3850 O.2   104  PRO104     -0.2865
     96  CB        -6.3570    4.6510  -40.2360 C.3   104  PRO104      0.0296
     97  CG        -6.5870    6.1330  -40.4080 C.3   104  PRO104      0.0237
     98  CD        -5.1790    6.6970  -40.5060 C.3   104  PRO104      0.0939
     99  N         -7.5810   18.8040  -40.1350 N.3   174  TRP174     -0.1227
    100  CA        -8.3730   17.6630  -40.5830 C.3   174  TRP174      0.1737
    101  C         -8.3320   16.5220  -39.5480 C.2   174  TRP174      0.2595
    102  O         -9.3620   15.8950  -39.2910 O.2   174  TRP174     -0.2718
    103  CB        -7.9690   17.2220  -42.0030 C.3   174  TRP174      0.0564
    104  CG        -6.6230   16.5780  -42.1830 C.ar  174  TRP174      0.0003
    105  CD1       -5.4970   17.1610  -42.6880 C.ar  174  TRP174      0.0946
    106  CD2       -6.2790   15.2020  -41.9310 C.ar  174  TRP174      0.0152
    107  NE1       -4.4750   16.2530  -42.7440 N.ar  174  TRP174     -0.2442
    108  CE2       -4.9200   15.0480  -42.2750 C.ar  174  TRP174      0.0810
    109  CE3       -6.9780   14.0930  -41.4340 C.ar  174  TRP174      0.0012
    110  CZ2       -4.2550   13.8240  -42.1520 C.ar  174  TRP174      0.0191
    111  CZ3       -6.3210   12.8890  -41.3010 C.ar  174  TRP174      0.0001
    112  CH2       -4.9740   12.7570  -41.6550 C.ar  174  TRP174      0.0015
    113  N         -7.1690   16.2910  -38.9180 N.am  175  ARG175     -0.1980
    114  CA        -6.9800   15.1900  -37.9390 C.3   175  ARG175      0.1597
    115  C         -8.0110   15.2290  -36.7990 C.2   175  ARG175      0.2287
    116  O         -8.2290   14.1910  -36.1400 O.2   175  ARG175     -0.2864
    117  CB        -5.5750   15.2240  -37.3380 C.3   175  ARG175      0.0334
    118  CG        -4.5580   14.4210  -38.1360 C.3   175  ARG175      0.0492
    119  CD        -3.1580   14.5630  -37.5780 C.3   175  ARG175      0.2205
    120  NE        -2.2310   13.6750  -38.2580 N.pl3 175  ARG175     -0.0865
    121  CZ        -1.6090   13.9540  -39.3970 C.cat 175  ARG175      0.5346
    122  NH1       -1.8670   15.0810  -40.0400 N.pl3 175  ARG175      0.1354
    123  NH2       -0.7250   13.1020  -39.8820 N.pl3 175  ARG175      0.1354
    124  N         -4.8830    7.6890  -35.8320 N.3   188  ASP188     -0.1239
    125  CA        -3.7200    8.4010  -36.3110 C.3   188  ASP188      0.1674
    126  C         -2.4420    7.8490  -35.6630 C.2   188  ASP188      0.2266
    127  O         -1.3690    7.9200  -36.2890 O.2   188  ASP188     -0.2867
    128  CB        -3.8970    9.9070  -36.1150 C.3   188  ASP188      0.1410
    129  CG        -2.7470   10.7370  -36.6420 C.2   188  ASP188      0.3668
    130  OD1       -2.3480   10.5390  -37.8250 O.co2 188  ASP188     -0.2456
    131  OD2       -2.2580   11.5750  -35.8730 O.co2 188  ASP188     -0.2456
@<TRIPOS>BOND
     1    31    30    2
     2    28    29    1
     3    30    29    1
     4    29    32    1
     5    32    33    1
     6    33    34    1
     7     1     2    1
     8    34    35   ar
     9    34    36   ar
    10     2     3    1
    11     3     4    2
    12    67    66    2
    13    48    46    1
    14    66    65    1
    15    37    38    1
    16    46    47    1
    17    46    43    1
    18    65    64    1
    19    65    68    1
    20    41    38    1
    21    42    43    1
    22    42    39   am
    23    38    39    1
    24    43    44    1
    25    39    40    2
    26     5     6    1
    27    68    69    1
    28    23    22    2
    29    71    69   ar
    30    71    73   ar
    31    55    49    1
    32    55    54    1
    33    44    49   am
    34    44    45    2
    35    69    70   ar
    36     6     7    1
    37    74    75    1
    38    22    21    1
    39    52    51    2
    40    49    50    1
    41     8     7    2
    42    73    72   ar
    43    54    53    1
    44     7     9   am
    45    59    58    2
    46    51    50    1
    47    51    56   am
    48    70    72   ar
    49    79    78    1
    50    79    80    1
    51    50    53    1
    52    75    78    1
    53    75    76    1
    54    58    57    1
    55    21    24    1
    56    21    20    1
    57    24    25    1
    58    77    76    2
    59     9    10    1
    60    82    80   ar
    61    20    11   am
    62    76    83   am
    63    56    57    1
    64    57    60    1
    65    80    81   ar
    66    11    12    2
    67    11    10    1
    68    25    26    1
    69    10    13    1
    70    83    84    1
    71    95    94    2
    72    60    61    1
    73    26    27    1
    74   107   105   ar
    75   107   108   ar
    76   105   104   ar
    77    62    61    2
    78    94    93    1
    79    13    14    1
    80    84    85    1
    81    84    87    1
    82   108   110   ar
    83   108   106   ar
    84    61    63   am
    85    86    85    2
    86   104   103    1
    87   104   106   ar
    88   110   112   ar
    89   103   100    1
    90   106   109   ar
    91    14    15   ar
    92    14    16   ar
    93    85    92   am
    94    15    17   ar
    95   112   111   ar
    96    16    18   ar
    97   109   111   ar
    98    17    19   ar
    99    87    88    1
   100    18    19   ar
   101    93    92    1
   102    93    96    1
   103    92    98    1
   104    88    89    1
   105   100    99    1
   106   100   101    1
   107    98    97    1
   108    97    96    1
   109   122   121    1
   110    90    89    1
   111    90    91    1
   112   123   121    1
   113   101   102    2
   114   101   113   am
   115   121   120    2
   116   113   114    1
   117   120   119    1
   118   118   119    1
   119   118   117    1
   120   114   117    1
   121   114   115    1
   122   130   129   ar
   123   115   116    2
   124   129   128    1
   125   129   131   ar
   126   125   128    1
   127   125   124    1
   128   125   126    1
   129   127   126    2
