@<TRIPOS>MOLECULE
tmp/6a3iA00.pdb
 149 145 0 0 0
SMALL
GASTEIGER

@<TRIPOS>ATOM
      1  N         11.0410  -10.0540    7.2460 N.3    12  PHE12      -0.1227
      2  CA        11.4150   -8.8810    6.4290 C.3    12  PHE12       0.1736
      3  C         10.3050   -7.8300    6.5110 C.2    12  PHE12       0.2598
      4  O          9.3250   -7.9080    5.7780 O.2    12  PHE12      -0.2717
      5  CB        11.6310   -9.2490    4.9620 C.3    12  PHE12       0.0547
      6  CG        11.4830   -8.0980    3.9950 C.ar   12  PHE12      -0.0202
      7  CD1       12.2560   -6.9500    4.1270 C.ar   12  PHE12      -0.0042
      8  CD2       10.5700   -8.1590    2.9440 C.ar   12  PHE12      -0.0042
      9  CE1       12.1200   -5.8950    3.2330 C.ar   12  PHE12      -0.0003
     10  CE2       10.4470   -7.1120    2.0400 C.ar   12  PHE12      -0.0003
     11  CZ        11.2200   -5.9810    2.1890 C.ar   12  PHE12      -0.0000
     12  N         10.4970   -6.8400    7.3790 N.am   13  MET13      -0.1934
     13  CA         9.4690   -5.8860    7.7890 C.3    13  MET13       0.1821
     14  C          9.6850   -5.6410    9.2760 C.2    13  MET13       0.2332
     15  O          9.8280   -4.4980    9.6920 O.2    13  MET13      -0.2860
     16  CB         8.0160   -6.3430    7.5920 C.2    13  MET13       0.0096
     17  CG         7.3280   -5.8780    6.2860 C.2    13  MET13       0.0285
     18  SD         8.1110   -4.5240    5.3220 S.3    13  MET13      -0.1125
     19  CE         8.7830   -5.4970    3.9800 C.3    13  MET13       0.0742
     20  N          0.7020   -3.4200    8.8090 N.3   102  GLU102     -0.1231
     21  CA         1.2460   -3.6100    7.4720 C.3   102  GLU102      0.1699
     22  C          0.1030   -3.8620    6.4850 C.2   102  GLU102      0.2592
     23  O         -0.9860   -4.3280    6.8630 O.2   102  GLU102     -0.2718
     24  CB         2.1680   -4.8310    7.4680 C.3   102  GLU102      0.0402
     25  CG         3.6140   -4.5410    7.8230 C.3   102  GLU102      0.1161
     26  CD         4.3640   -3.7460    6.7660 C.2   102  GLU102      0.3649
     27  OE1        3.8270   -3.5690    5.6210 O.co2 102  GLU102     -0.2457
     28  OE2        5.4920   -3.3120    7.0920 O.co2 102  GLU102     -0.2457
     29  N          0.3710   -3.5950    5.2040 N.am  103  LYS103     -0.1980
     30  CA        -0.6170   -3.8580    4.1360 C.3   103  LYS103      0.1596
     31  C         -0.5270   -5.3220    3.6940 C.2   103  LYS103      0.2287
     32  O          0.4120   -6.0360    4.0330 O.2   103  LYS103     -0.2864
     33  CB        -0.4240   -2.8960    2.9490 C.3   103  LYS103      0.0298
     34  CG         1.0100   -2.5120    2.6050 C.3   103  LYS103      0.0038
     35  CD         1.9290   -3.6970    2.3360 C.3   103  LYS103      0.0206
     36  CE         1.5210   -4.5120    1.1210 C.3   103  LYS103      0.1093
     37  NZ         2.5040   -5.5730    0.8030 N.3   103  LYS103     -0.1314
     38  N          4.1880    2.6510    2.6490 N.3   131  ASN131     -0.1225
     39  CA         5.3750    3.4570    2.9280 C.3   131  ASN131      0.1785
     40  C          5.8930    4.1800    1.6830 C.2   131  ASN131      0.2597
     41  O          6.5620    5.2090    1.8310 O.2   131  ASN131     -0.2718
     42  CB         6.5220    2.6090    3.4830 C.3   131  ASN131      0.1169
     43  CG         6.8430    1.4250    2.6000 C.2   131  ASN131      0.2627
     44  OD1        6.0260    0.5270    2.4700 O.2   131  ASN131     -0.2716
     45  ND2        8.0060    1.4320    1.9710 N.am  131  ASN131     -0.0877
     46  N          5.6110    3.6350    0.4900 N.am  132  TYR132     -0.1976
     47  CA         6.1350    4.1560   -0.7740 C.3   132  TYR132      0.1639
     48  C          5.5790    5.5700   -1.0770 C.2   132  TYR132      0.2290
     49  O          6.2500    6.3750   -1.7490 O.2   132  TYR132     -0.2864
     50  CB         5.8770    3.1740   -1.9320 C.3   132  TYR132      0.0560
     51  CG         6.6740    1.8940   -1.9030 C.ar  132  TYR132     -0.0198
     52  CD1        8.0630    1.9170   -1.9250 C.ar  132  TYR132     -0.0009
     53  CD2        6.0560    0.6530   -1.9020 C.ar  132  TYR132     -0.0009
     54  CE1        8.8190    0.7530   -1.8840 C.ar  132  TYR132      0.0417
     55  CE2        6.7950   -0.5270   -1.8710 C.ar  132  TYR132      0.0417
     56  CZ         8.1830   -0.4740   -1.8430 C.ar  132  TYR132      0.1957
     57  OH         8.9420   -1.6090   -1.8430 O.3   132  TYR132     -0.2866
     58  N          3.5030   -1.9700  -10.7290 N.3   160  TYR160     -0.1241
     59  CA         4.3730   -2.6270   -9.7710 C.3   160  TYR160      0.1605
     60  C          4.7340   -3.9930  -10.3720 C.2   160  TYR160      0.2264
     61  O          3.9290   -4.9090  -10.3030 O.2   160  TYR160     -0.2867
     62  CB         3.7070   -2.7870   -8.3990 C.3   160  TYR160      0.0534
     63  CG         4.6590   -2.8900   -7.2340 C.ar  160  TYR160     -0.0201
     64  CD1        4.3400   -2.3400   -6.0000 C.ar  160  TYR160     -0.0009
     65  CD2        5.9090   -3.4800   -7.3620 C.ar  160  TYR160     -0.0009
     66  CE1        5.2220   -2.3900   -4.9270 C.ar  160  TYR160      0.0417
     67  CE2        6.8000   -3.5410   -6.2980 C.ar  160  TYR160      0.0417
     68  CZ         6.4560   -2.9980   -5.0740 C.ar  160  TYR160      0.1957
     69  OH         7.3140   -3.0660   -4.0190 O.3   160  TYR160     -0.2866
     70  N          7.6000   -7.0600  -10.5930 N.3   162  GLN162     -0.1245
     71  CA         8.6400   -7.8510   -9.9540 C.3   162  GLN162      0.1566
     72  C          8.8460   -9.1600  -10.7360 C.2   162  GLN162      0.2260
     73  O          8.0580   -9.5390  -11.6030 O.2   162  GLN162     -0.2867
     74  CB         8.2400   -8.1880   -8.5150 C.3   162  GLN162      0.0367
     75  CG         7.8000   -6.9810   -7.7000 C.3   162  GLN162      0.0905
     76  CD         7.6720   -7.3020   -6.2280 C.2   162  GLN162      0.2608
     77  OE1        6.8430   -8.1140   -5.8300 O.2   162  GLN162     -0.2717
     78  NE2        8.5260   -6.7010   -5.4110 N.am  162  GLN162     -0.0878
     79  N         10.5430  -11.9080   -8.6930 N.3   164  TRP164     -0.1241
     80  CA        11.2480  -12.7290   -7.6840 C.3   164  TRP164      0.1605
     81  C         10.7490  -14.1910   -7.7050 C.2   164  TRP164      0.2264
     82  O         11.4820  -15.0850   -7.2270 O.2   164  TRP164     -0.2867
     83  CB        11.1850  -12.0930   -6.2760 C.3   164  TRP164      0.0550
     84  CG         9.8120  -11.7900   -5.7500 C.ar  164  TRP164      0.0003
     85  CD1        9.1180  -10.6190   -5.8680 C.ar  164  TRP164      0.0946
     86  CD2        8.9670  -12.6790   -5.0010 C.ar  164  TRP164      0.0152
     87  NE1        7.8930  -10.7270   -5.2680 N.ar  164  TRP164     -0.2442
     88  CE2        7.7740  -11.9760   -4.7230 C.ar  164  TRP164      0.0810
     89  CE3        9.1000  -13.9950   -4.5430 C.ar  164  TRP164      0.0012
     90  CZ2        6.7200  -12.5570   -4.0270 C.ar  164  TRP164      0.0191
     91  CZ3        8.0560  -14.5690   -3.8540 C.ar  164  TRP164      0.0001
     92  CH2        6.8840  -13.8570   -3.5990 C.ar  164  TRP164      0.0015
     93  N          2.4920  -15.9890    0.5680 N.3   175  ARG175     -0.1245
     94  CA         2.0910  -14.9990   -0.4670 C.3   175  ARG175      0.1563
     95  C          1.3180  -15.6660   -1.6150 C.2   175  ARG175      0.2260
     96  O          0.4870  -15.0290   -2.2660 O.2   175  ARG175     -0.2867
     97  CB         3.3010  -14.2060   -0.9610 C.3   175  ARG175      0.0307
     98  CG         3.8660  -13.2760    0.1060 C.3   175  ARG175      0.0489
     99  CD         4.5460  -12.0340   -0.4440 C.3   175  ARG175      0.2205
    100  NE         5.6370  -11.6220    0.4230 N.pl3 175  ARG175     -0.0865
    101  CZ         5.6130  -10.5690    1.2220 C.cat 175  ARG175      0.5346
    102  NH1        4.5550   -9.7790    1.2560 N.pl3 175  ARG175      0.1354
    103  NH2        6.6530  -10.3020    1.9870 N.pl3 175  ARG175      0.1354
    104  N         -0.5490   -7.9970   -2.4700 N.3   188  ASP188     -0.1225
    105  CA         0.8150   -7.8750   -2.0370 C.3   188  ASP188      0.1805
    106  C          1.4400   -6.5680   -2.5670 C.2   188  ASP188      0.2597
    107  O          2.1150   -5.8850   -1.8130 O.2   188  ASP188     -0.2718
    108  CB         1.6610   -9.0800   -2.4600 C.3   188  ASP188      0.1424
    109  CG         2.9850   -9.1290   -1.7210 C.2   188  ASP188      0.3668
    110  OD1        2.9750   -8.8490   -0.5180 O.co2 188  ASP188     -0.2456
    111  OD2        4.0090   -9.4300   -2.3490 O.co2 188  ASP188     -0.2456
    112  N          1.2410   -6.2270   -3.8470 N.am  189  ILE189     -0.1980
    113  CA         2.0280   -5.1150   -4.4730 C.3   189  ILE189      0.1595
    114  C          1.1400   -4.0590   -5.1610 C.2   189  ILE189      0.2287
    115  O          1.4420   -2.8540   -5.0610 O.2   189  ILE189     -0.2864
    116  CB         3.1220   -5.6380   -5.4250 C.3   189  ILE189      0.0276
    117  CG1        2.6060   -6.7280   -6.3720 C.3   189  ILE189      0.0022
    118  CG2        4.3520   -6.0830   -4.6360 C.3   189  ILE189      0.0022
    119  CD1        3.6000   -7.1070   -7.4680 C.3   189  ILE189      0.0001
    120  N         -0.0240   -0.9090   -3.0550 N.3   192  HIS192     -0.1241
    121  CA         0.8580    0.2430   -2.9190 C.3   192  HIS192      0.1621
    122  C          0.5860    1.2600   -4.0420 C.2   192  HIS192      0.2264
    123  O          0.6340    2.4590   -3.8160 O.2   192  HIS192     -0.2867
    124  CB         2.3420   -0.1570   -2.9670 C.3   192  HIS192      0.0745
    125  CG         2.8130   -1.0390   -1.8620 C.ar  192  HIS192      0.0817
    126  ND1        3.0090   -0.5690   -0.5700 N.ar  192  HIS192     -0.2268
    127  CD2        3.1620   -2.3520   -1.8550 C.ar  192  HIS192      0.1154
    128  CE1        3.4580   -1.5600    0.1850 C.ar  192  HIS192      0.1986
    129  NE2        3.5500   -2.6730   -0.5810 N.ar  192  HIS192     -0.2212
    130  N         11.6630   -4.1890   -8.5070 N.3   257  ASN257     -0.1240
    131  CA        10.7380   -3.4450   -7.6180 C.3   257  ASN257      0.1653
    132  C         10.3000   -2.1710   -8.3400 C.2   257  ASN257      0.2266
    133  O         10.4190   -1.0350   -7.8040 O.2   257  ASN257     -0.2867
    134  CB        11.3770   -3.1310   -6.2650 C.3   257  ASN257      0.1155
    135  CG        10.3780   -2.9770   -5.1430 C.2   257  ASN257      0.2627
    136  OD1        9.5490   -3.8580   -4.9410 O.2   257  ASN257     -0.2716
    137  ND2       10.5070   -1.9130   -4.3660 N.am  257  ASN257     -0.0877
    138  N         15.1160    1.9570    0.8950 N.3   319  TYR319     -0.1241
    139  CA        13.8840    1.4540    1.4690 C.3   319  TYR319      0.1605
    140  C         13.6730    2.0170    2.8870 C.2   319  TYR319      0.2264
    141  O         12.5600    2.4430    3.2320 O.2   319  TYR319     -0.2867
    142  CB        13.8460   -0.0740    1.5320 C.3   319  TYR319      0.0534
    143  CG        12.5010   -0.5960    1.9880 C.ar  319  TYR319     -0.0201
    144  CD1       11.3980   -0.4890    1.1600 C.ar  319  TYR319     -0.0009
    145  CD2       12.3090   -1.1550    3.2410 C.ar  319  TYR319     -0.0009
    146  CE1       10.1500   -0.9360    1.5480 C.ar  319  TYR319      0.0417
    147  CE2       11.0590   -1.6020    3.6490 C.ar  319  TYR319      0.0417
    148  CZ         9.9750   -1.4850    2.8010 C.ar  319  TYR319      0.1957
    149  OH         8.7210   -1.9040    3.1370 O.3   319  TYR319     -0.2866
@<TRIPOS>BOND
     1    73    72    2
     2    72    71    1
     3    58    59    1
     4    70    71    1
     5    60    61    2
     6    60    59    1
     7    71    74    1
     8    59    62    1
     9    79    80    1
    10    74    75    1
    11   130   131    1
    12    62    63    1
    13   132   133    2
    14   132   131    1
    15    81    80    1
    16    81    82    2
    17    75    76    1
    18    80    83    1
    19   131   134    1
    20   119   117    1
    21    65    63   ar
    22    65    67   ar
    23    63    64   ar
    24   117   116    1
    25    67    68   ar
    26    83    84    1
    27   134   135    1
    28    76    77    2
    29    76    78   am
    30    64    66   ar
    31    85    84   ar
    32    85    87   ar
    33    84    86   ar
    34   116   118    1
    35   116   113    1
    36    87    88   ar
    37   114   115    2
    38   114   113    1
    39   135   136    2
    40   135   137   am
    41    68    66   ar
    42    68    69    1
    43    86    88   ar
    44    86    89   ar
    45    88    90   ar
    46    89    91   ar
    47   113   112    1
    48   122   123    2
    49   122   121    1
    50    90    92   ar
    51    91    92   ar
    52   112   106   am
    53   120   121    1
    54   124   121    1
    55   124   125    1
    56   106   105    1
    57   106   107    2
    58   104   105    1
    59   108   105    1
    60   108   109    1
    61   111   109   ar
    62    96    95    2
    63    50    51    1
    64    50    47    1
    65    52    51   ar
    66    52    54   ar
    67    51    53   ar
    68    53    55   ar
    69    54    56   ar
    70    55    56   ar
    71   125   127   ar
    72   125   126   ar
    73   127   129   ar
    74    57    56    1
    75    49    48    2
    76   109   110   ar
    77    95    94    1
    78    48    47    1
    79    97    94    1
    80    97    98    1
    81    47    46    1
    82   129   128   ar
    83   126   128   ar
    84    94    93    1
    85    99    98    1
    86    99   100    1
    87   100   101    2
    88    46    40   am
    89    37    36    1
    90   138   139    1
    91    36    35    1
    92   144   146   ar
    93   144   143   ar
    94   101   102    1
    95   101   103    1
    96   139   142    1
    97   139   140    1
    98   142   143    1
    99   146   148   ar
   100    40    41    2
   101    40    39    1
   102    45    43   am
   103   143   145   ar
   104    10    11   ar
   105    10     8   ar
   106    11     9   ar
   107    35    34    1
   108    44    43    2
   109    43    42    1
   110    34    33    1
   111    38    39    1
   112   148   149    1
   113   148   147   ar
   114   140   141    2
   115    39    42    1
   116     8     6   ar
   117    33    30    1
   118     9     7   ar
   119   145   147   ar
   120    31    32    2
   121    31    30    1
   122    19    18    1
   123     6     7   ar
   124     6     5    1
   125    30    29    1
   126     5     2    1
   127    29    22   am
   128    18    17    1
   129    27    26   ar
   130     4     3    2
   131    17    16    2
   132     2     3    1
   133     2     1    1
   134    22    23    2
   135    22    21    1
   136     3    12   am
   137    26    28   ar
   138    26    25    1
   139    12    13    1
   140    24    21    1
   141    24    25    1
   142    21    20    1
   143    16    13    1
   144    13    14    1
   145    14    15    2
