@<TRIPOS>MOLECULE
tmp/6a3jC00.pdb
 95 95 0 0 0
SMALL
GASTEIGER

@<TRIPOS>ATOM
      1  N        -39.2730   17.1640  -44.5120 N.3    11  PHE11      -0.1227
      2  CA       -38.2910   16.9250  -43.4460 C.3    11  PHE11       0.1736
      3  C        -37.5100   15.6440  -43.7610 C.2    11  PHE11       0.2595
      4  O        -36.3830   15.5530  -43.3890 O.2    11  PHE11      -0.2718
      5  CB       -38.9190   16.8950  -42.0430 C.3    11  PHE11       0.0547
      6  CG       -39.2440   18.2530  -41.4540 C.ar   11  PHE11      -0.0202
      7  CD1      -38.2350   19.1200  -41.0620 C.ar   11  PHE11      -0.0042
      8  CD2      -40.5630   18.6800  -41.3280 C.ar   11  PHE11      -0.0042
      9  CE1      -38.5360   20.3740  -40.5420 C.ar   11  PHE11      -0.0003
     10  CE2      -40.8680   19.9360  -40.8150 C.ar   11  PHE11      -0.0003
     11  CZ       -39.8500   20.7870  -40.4360 C.ar   11  PHE11      -0.0000
     12  N        -38.1240   14.6680  -44.4400 N.am   12  MET12      -0.1979
     13  CA       -37.4670   13.3890  -44.7100 C.3    12  MET12       0.1605
     14  C        -36.7170   13.4010  -46.0570 C.2    12  MET12       0.2287
     15  O        -35.8720   12.5100  -46.3150 O.2    12  MET12      -0.2864
     16  CB       -38.5000   12.2540  -44.7100 C.3    12  MET12       0.0413
     17  CG       -39.0770   11.9570  -43.3190 C.3    12  MET12       0.0598
     18  SD       -37.8030   11.4970  -42.0950 S.3    12  MET12      -0.1393
     19  CE       -37.2440    9.9870  -42.9110 C.3    12  MET12       0.0692
     20  N        -39.1630   11.5390  -27.0470 N.3   161  GLN161     -0.1245
     21  CA       -38.7560   12.7280  -27.7610 C.3   161  GLN161      0.1566
     22  C        -39.2750   13.9740  -27.0010 C.2   161  GLN161      0.2260
     23  O        -40.1160   13.8800  -26.0970 O.2   161  GLN161     -0.2867
     24  CB       -39.3340   12.6890  -29.1870 C.3   161  GLN161      0.0367
     25  CG       -38.7150   11.6660  -30.1390 C.3   161  GLN161      0.0905
     26  CD       -39.1480   11.9120  -31.5690 C.2   161  GLN161      0.2608
     27  OE1      -40.3420   12.0650  -31.8730 O.2   161  GLN161     -0.2717
     28  NE2      -38.1800   11.8920  -32.4680 N.am  161  GLN161     -0.0878
     29  N        -39.4180   17.3070  -29.0380 N.3   163  TRP163     -0.1241
     30  CA       -39.4290   18.3990  -30.0270 C.3   163  TRP163      0.1605
     31  C        -40.7320   19.2010  -29.9430 C.2   163  TRP163      0.2264
     32  O        -40.7040   20.3450  -30.3380 O.2   163  TRP163     -0.2867
     33  CB       -39.1910   17.9270  -31.4820 C.3   163  TRP163      0.0550
     34  CG       -40.1550   16.8990  -31.9870 C.ar  163  TRP163      0.0003
     35  CD1      -39.9860   15.5380  -31.9510 C.ar  163  TRP163      0.0946
     36  CD2      -41.4430   17.1270  -32.5870 C.ar  163  TRP163      0.0152
     37  NE1      -41.0760   14.9120  -32.4830 N.ar  163  TRP163     -0.2442
     38  CE2      -41.9810   15.8570  -32.8880 C.ar  163  TRP163      0.0810
     39  CE3      -42.1780   18.2760  -32.9190 C.ar  163  TRP163      0.0012
     40  CZ2      -43.2240   15.7040  -33.5000 C.ar  163  TRP163      0.0191
     41  CZ3      -43.4250   18.1300  -33.4870 C.ar  163  TRP163      0.0001
     42  CH2      -43.9410   16.8590  -33.7610 C.ar  163  TRP163      0.0015
     43  N        -45.1080   25.0190  -29.8550 N.3   169  SER169     -0.1203
     44  CA       -44.8030   24.3370  -31.1080 C.3   169  SER169      0.2005
     45  C        -46.1120   24.1840  -31.9010 C.2   169  SER169      0.2460
     46  O        -47.1570   23.8560  -31.3410 O.2   169  SER169     -0.2732
     47  CB       -44.1120   23.0250  -30.8610 C.3   169  SER169      0.2103
     48  OG       -43.4250   22.5930  -32.0150 O.3   169  SER169     -0.2182
     49  N        -46.1260   24.5380  -33.2080 N.am  170  PRO170     -0.2728
     50  CA       -47.3840   24.6750  -33.9350 C.3   170  PRO170      0.1401
     51  C        -48.1290   23.3720  -34.2650 C.2   170  PRO170      0.2269
     52  O        -47.5740   22.2610  -34.1850 O.2   170  PRO170     -0.2865
     53  CB       -46.9810   25.4150  -35.2170 C.3   170  PRO170      0.0296
     54  CG       -45.5180   25.1130  -35.3860 C.3   170  PRO170      0.0237
     55  CD       -44.9780   25.0320  -33.9720 C.3   170  PRO170      0.0939
     56  N        -48.9650   21.3510  -36.6200 N.3   172  SER172     -0.1202
     57  CA       -48.6310   20.7090  -37.8890 C.3   172  SER172      0.2020
     58  C        -49.5710   19.5190  -38.1030 C.2   172  SER172      0.2619
     59  O        -50.3590   19.1760  -37.2110 O.2   172  SER172     -0.2717
     60  CB       -47.1990   20.2630  -37.8560 C.3   172  SER172      0.2103
     61  OG       -47.0670   19.2730  -36.8520 O.3   172  SER172     -0.2182
     62  N        -49.4480   18.8670  -39.2640 N.am  173  TRP173     -0.1961
     63  CA       -50.2930   17.6990  -39.6420 C.3   173  TRP173      0.1771
     64  C        -50.0960   16.5280  -38.6560 C.2   173  TRP173      0.2619
     65  O        -51.0110   15.7600  -38.3980 O.2   173  TRP173     -0.2715
     66  CB       -50.0540   17.2800  -41.1180 C.3   173  TRP173      0.0590
     67  CG       -48.7130   16.6830  -41.4330 C.ar  173  TRP173      0.0006
     68  CD1      -47.6470   17.3120  -41.9970 C.ar  173  TRP173      0.0946
     69  CD2      -48.2660   15.3380  -41.1670 C.ar  173  TRP173      0.0152
     70  NE1      -46.5830   16.4480  -42.1250 N.ar  173  TRP173     -0.2442
     71  CE2      -46.9360   15.2310  -41.6240 C.ar  173  TRP173      0.0810
     72  CE3      -48.8450   14.2170  -40.5620 C.ar  173  TRP173      0.0012
     73  CZ2      -46.1950   14.0480  -41.5280 C.ar  173  TRP173      0.0191
     74  CZ3      -48.1250   13.0480  -40.4760 C.ar  173  TRP173      0.0001
     75  CH2      -46.8110   12.9710  -40.9390 C.ar  173  TRP173      0.0015
     76  N        -48.9160   16.4250  -38.0470 N.am  174  ARG174     -0.1977
     77  CA       -48.6640   15.3720  -37.0420 C.3   174  ARG174      0.1597
     78  C        -49.6040   15.4480  -35.8380 C.2   174  ARG174      0.2287
     79  O        -49.6940   14.4400  -35.0710 O.2   174  ARG174     -0.2864
     80  CB       -47.2220   15.4230  -36.5480 C.3   174  ARG174      0.0334
     81  CG       -46.2550   14.6970  -37.4710 C.3   174  ARG174      0.0492
     82  CD       -44.8220   14.8330  -37.0210 C.3   174  ARG174      0.2205
     83  NE       -43.9310   13.9480  -37.7770 N.pl3 174  ARG174     -0.0865
     84  CZ       -43.2610   14.2790  -38.8840 C.cat 174  ARG174      0.5346
     85  NH1      -43.4700   15.4330  -39.5040 N.pl3 174  ARG174      0.1354
     86  NH2      -42.3580   13.4450  -39.3580 N.pl3 174  ARG174      0.1354
     87  N        -50.3680   26.9430  -37.8240 N.3   220  GLN220     -0.1245
     88  CA       -49.0580   27.3100  -38.4380 C.3   220  GLN220      0.1566
     89  C        -49.1630   28.6390  -39.1890 C.2   220  GLN220      0.2260
     90  O        -50.0710   28.7930  -39.9830 O.2   220  GLN220     -0.2867
     91  CB       -48.5540   26.2460  -39.4130 C.3   220  GLN220      0.0367
     92  CG       -48.4730   24.8670  -38.8010 C.3   220  GLN220      0.0905
     93  CD       -47.5680   23.9500  -39.5790 C.2   220  GLN220      0.2608
     94  OE1      -48.0210   23.2090  -40.4370 O.2   220  GLN220     -0.2717
     95  NE2      -46.2810   23.9910  -39.2820 N.am  220  GLN220     -0.0878
@<TRIPOS>BOND
     1    15    14    2
     2    14    13    1
     3    16    13    1
     4    16    17    1
     5    13    12    1
     6     1     2    1
     7    12     3   am
     8     3     2    1
     9     3     4    2
    10     2     5    1
    11    17    18    1
    12    19    18    1
    13    70    68   ar
    14    70    71   ar
    15     5     6    1
    16    68    67   ar
    17    71    73   ar
    18    71    69   ar
    19    73    75   ar
    20     6     8   ar
    21     6     7   ar
    22    67    69   ar
    23    67    66    1
    24     8    10   ar
    25    69    72   ar
    26    66    63    1
    27     7     9   ar
    28    75    74   ar
    29    10    11   ar
    30    72    74   ar
    31     9    11   ar
    32    94    93    2
    33    90    89    2
    34    63    62    1
    35    63    64    1
    36    93    95   am
    37    93    92    1
    38    85    84    1
    39    91    92    1
    40    91    88    1
    41    86    84    1
    42    62    58   am
    43    89    88    1
    44    84    83    2
    45    64    65    2
    46    64    76   am
    47    88    87    1
    48    58    57    1
    49    58    59    2
    50    76    77    1
    51    57    60    1
    52    57    56    1
    53    60    61    1
    54    83    82    1
    55    81    82    1
    56    81    80    1
    57    77    80    1
    58    77    78    1
    59    78    79    2
    60    54    53    1
    61    54    55    1
    62    53    50    1
    63    51    52    2
    64    51    50    1
    65    55    49    1
    66    50    49    1
    67    42    40   ar
    68    42    41   ar
    69    40    38   ar
    70    41    39   ar
    71    49    45   am
    72    39    36   ar
    73    38    36   ar
    74    38    37   ar
    75    36    34   ar
    76    37    35   ar
    77    28    26   am
    78    48    47    1
    79    34    35   ar
    80    34    33    1
    81    45    46    2
    82    45    44    1
    83    27    26    2
    84    26    25    1
    85    33    30    1
    86    44    47    1
    87    44    43    1
    88    32    31    2
    89    25    24    1
    90    30    31    1
    91    30    29    1
    92    24    21    1
    93    21    20    1
    94    21    22    1
    95    22    23    2
