@<TRIPOS>MOLECULE
tmp/6a3jC02.pdb
 199 199 0 0 0
SMALL
GASTEIGER

@<TRIPOS>ATOM
      1  N        -42.0050   10.9260  -53.9260 N.3     7  ILE7       -0.1231
      2  CA       -43.1510   11.7850  -53.7490 C.3     7  ILE7        0.1692
      3  C        -43.1000   12.4070  -52.3510 C.2     7  ILE7        0.2593
      4  O        -43.3510   11.7440  -51.3240 O.2     7  ILE7       -0.2718
      5  CB       -44.4450   11.0070  -54.0280 C.3     7  ILE7        0.0266
      6  CG1      -44.4120   10.4250  -55.4450 C.3     7  ILE7        0.0019
      7  CG2      -45.6630   11.8880  -53.8130 C.3     7  ILE7        0.0020
      8  CD1      -45.3800    9.3040  -55.6400 C.3     7  ILE7        0.0001
      9  N        -42.7690   13.7020  -52.3290 N.am    8  GLY8       -0.1942
     10  CA       -42.5980   14.4480  -51.0990 C.3     8  GLY8        0.2014
     11  C        -41.1230   14.6570  -50.8290 C.2     8  GLY8        0.2639
     12  O        -40.3210   13.7410  -50.9290 O.2     8  GLY8       -0.2714
     13  N        -40.7660   15.8970  -50.5220 N.am    9  GLY9       -0.1939
     14  CA       -39.3700   16.2590  -50.2970 C.3     9  GLY9        0.2014
     15  C        -39.2810   17.2220  -49.1310 C.2     9  GLY9        0.2639
     16  O        -38.6870   18.2950  -49.2520 O.2     9  GLY9       -0.2714
     17  N        -39.9160   16.8380  -48.0190 N.am   10  GLY10      -0.1939
     18  CA       -39.9850   17.6520  -46.7870 C.3    10  GLY10       0.2014
     19  C        -38.9060   17.2530  -45.8020 C.2    10  GLY10       0.2639
     20  O        -37.7690   16.9850  -46.2130 O.2    10  GLY10      -0.2714
     21  N        -39.2730   17.1640  -44.5120 N.am   11  PHE11      -0.1959
     22  CA       -38.2910   16.9250  -43.4460 C.3    11  PHE11       0.1771
     23  C        -37.5100   15.6440  -43.7610 C.2    11  PHE11       0.2619
     24  O        -36.3830   15.5530  -43.3890 O.2    11  PHE11      -0.2715
     25  CB       -38.9190   16.8950  -42.0430 C.3    11  PHE11       0.0574
     26  CG       -39.2440   18.2530  -41.4540 C.ar   11  PHE11      -0.0200
     27  CD1      -38.2350   19.1200  -41.0620 C.ar   11  PHE11      -0.0042
     28  CD2      -40.5630   18.6800  -41.3280 C.ar   11  PHE11      -0.0042
     29  CE1      -38.5360   20.3740  -40.5420 C.ar   11  PHE11      -0.0003
     30  CE2      -40.8680   19.9360  -40.8150 C.ar   11  PHE11      -0.0003
     31  CZ       -39.8500   20.7870  -40.4360 C.ar   11  PHE11      -0.0000
     32  N        -38.1240   14.6680  -44.4400 N.am   12  MET12      -0.1977
     33  CA       -37.4670   13.3890  -44.7100 C.3    12  MET12       0.1605
     34  C        -36.7170   13.4010  -46.0570 C.2    12  MET12       0.2287
     35  O        -35.8720   12.5100  -46.3150 O.2    12  MET12      -0.2864
     36  CB       -38.5000   12.2540  -44.7100 C.3    12  MET12       0.0413
     37  CG       -39.0770   11.9570  -43.3190 C.3    12  MET12       0.0598
     38  SD       -37.8030   11.4970  -42.0950 S.3    12  MET12      -0.1393
     39  CE       -37.2440    9.9870  -42.9110 C.3    12  MET12       0.0692
     40  N        -41.9320   14.5290  -57.0170 N.3    40  ALA40      -0.1231
     41  CA       -43.1710   15.2700  -56.9580 C.3    40  ALA40       0.1694
     42  C        -43.2110   16.1330  -55.6890 C.2    40  ALA40       0.2592
     43  O        -42.7040   15.7090  -54.6160 O.2    40  ALA40      -0.2718
     44  CB       -44.3280   14.3210  -57.0210 C.3    40  ALA40       0.0304
     45  N        -43.8290   17.3160  -55.7950 N.am   41  GLU41      -0.1966
     46  CA       -44.1110   18.1610  -54.6310 C.3    41  GLU41       0.1733
     47  C        -45.4750   18.8340  -54.8180 C.2    41  GLU41       0.2616
     48  O        -46.1320   18.6410  -55.8260 O.2    41  GLU41      -0.2715
     49  CB       -42.9730   19.1550  -54.3610 C.3    41  GLU41       0.0429
     50  CG       -42.1530   18.8680  -53.0980 C.3    41  GLU41       0.1163
     51  CD       -42.8620   18.8540  -51.7450 C.2    41  GLU41       0.3649
     52  OE1      -43.9910   19.4200  -51.6100 O.co2  41  GLU41      -0.2457
     53  OE2      -42.2900   18.2590  -50.7990 O.co2  41  GLU41      -0.2457
     54  N        -45.8890   19.6000  -53.8040 N.am   42  ALA42      -0.1977
     55  CA       -47.2510   20.1050  -53.6640 C.3    42  ALA42       0.1597
     56  C        -47.5350   21.2470  -54.6510 C.2    42  ALA42       0.2287
     57  O        -48.6750   21.5090  -54.9630 O.2    42  ALA42      -0.2864
     58  CB       -47.4900   20.5310  -52.2320 C.3    42  ALA42       0.0319
     59  N        -41.9490   24.5670  -55.6330 N.3    46  LEU46      -0.1245
     60  CA       -41.4680   23.6370  -54.5890 C.3    46  LEU46       0.1561
     61  C        -40.7740   22.4310  -55.2380 C.2    46  LEU46       0.2260
     62  O        -39.6330   22.0700  -54.8790 O.2    46  LEU46      -0.2867
     63  CB       -42.6820   23.1860  -53.7670 C.3    46  LEU46       0.0270
     64  CG       -42.5010   23.0150  -52.2600 C.3    46  LEU46       0.0019
     65  CD1      -41.5360   24.0440  -51.6860 C.3    46  LEU46       0.0001
     66  CD2      -43.8580   23.1150  -51.5690 C.3    46  LEU46       0.0001
     67  N        -45.4810   18.5320  -60.1560 N.3    61  SER61      -0.1217
     68  CA       -46.3540   18.9380  -59.0760 C.3    61  SER61       0.1889
     69  C        -47.5650   18.0050  -59.0030 C.2    61  SER61       0.2288
     70  O        -48.4720   18.2520  -58.2320 O.2    61  SER61      -0.2866
     71  CB       -46.7640   20.3860  -59.2120 C.3    61  SER61       0.2089
     72  OG       -47.8950   20.5240  -60.0520 O.3    61  SER61      -0.2183
     73  N        -48.1090   13.9340  -58.6970 N.3    63  TRP63      -0.1241
     74  CA       -47.5070   12.5910  -58.4610 C.3    63  TRP63       0.1605
     75  C        -48.0930   11.5090  -59.3880 C.2    63  TRP63       0.2264
     76  O        -47.4410   10.4870  -59.6430 O.2    63  TRP63      -0.2867
     77  CB       -47.6570   12.1810  -56.9820 C.3    63  TRP63       0.0550
     78  CG       -49.0680   12.0800  -56.4810 C.ar   63  TRP63       0.0003
     79  CD1      -49.7490   13.0200  -55.7680 C.ar   63  TRP63       0.0946
     80  CD2      -49.9660   10.9560  -56.6090 C.ar   63  TRP63       0.0152
     81  NE1      -51.0150   12.5800  -55.4710 N.ar   63  TRP63      -0.2442
     82  CE2      -51.1820   11.3180  -55.9790 C.ar   63  TRP63       0.0810
     83  CE3      -49.8870    9.7030  -57.2260 C.ar   63  TRP63       0.0012
     84  CZ2      -52.2910   10.4620  -55.9280 C.ar   63  TRP63       0.0191
     85  CZ3      -50.9860    8.8690  -57.1910 C.ar   63  TRP63       0.0001
     86  CH2      -52.1650    9.2350  -56.5390 C.ar   63  TRP63       0.0015
     87  N        -43.1140    9.6990  -49.4970 N.3    78  ALA78      -0.1231
     88  CA       -42.6410   10.4530  -48.3570 C.3    78  ALA78       0.1694
     89  C        -43.5700   11.6410  -48.1070 C.2    78  ALA78       0.2593
     90  O        -43.1220   12.6910  -47.7010 O.2    78  ALA78      -0.2718
     91  CB       -41.2030   10.8910  -48.5820 C.3    78  ALA78       0.0304
     92  N        -44.8730   11.4220  -48.2910 N.am   79  THR79      -0.1940
     93  CA       -45.8660   12.4030  -47.9850 C.3    79  THR79       0.2013
     94  C        -46.3720   12.2430  -46.5560 C.2    79  THR79       0.2484
     95  O        -46.0970   11.2510  -45.8820 O.2    79  THR79      -0.2729
     96  CB       -47.0600   12.2680  -48.9370 C.3    79  THR79       0.1807
     97  OG1      -47.6940   11.0140  -48.6790 O.3    79  THR79      -0.2208
     98  CG2      -46.6490   12.3540  -50.3950 C.3    79  THR79       0.0379
     99  N        -47.2110   13.1780  -46.0590 N.am   80  PRO80      -0.2715
    100  CA       -47.9630   12.9070  -44.8430 C.3    80  PRO80       0.1536
    101  C        -48.8580   11.6700  -45.0250 C.2    80  PRO80       0.2599
    102  O        -49.1180   11.2050  -46.1820 O.2    80  PRO80      -0.2715
    103  CB       -48.7950   14.1710  -44.6090 C.3    80  PRO80       0.0310
    104  CG       -48.0370   15.2400  -45.3690 C.3    80  PRO80       0.0237
    105  CD       -47.4620   14.5280  -46.5720 C.3    80  PRO80       0.0939
    106  N        -49.3090   11.1540  -43.8800 N.am   81  ASN81      -0.1959
    107  CA       -49.8700    9.8080  -43.7550 C.3    81  ASN81       0.1819
    108  C        -51.1780    9.6910  -44.5600 C.2    81  ASN81       0.2621
    109  O        -51.5750    8.5960  -44.8830 O.2    81  ASN81      -0.2715
    110  CB       -50.0930    9.4150  -42.2880 C.3    81  ASN81       0.1195
    111  CG       -48.8560    9.5430  -41.4210 C.2    81  ASN81       0.2630
    112  OD1      -47.7390    9.6370  -41.9300 O.2    81  ASN81      -0.2716
    113  ND2      -49.0360    9.5050  -40.1080 N.am   81  ASN81      -0.0877
    114  N        -51.8400   10.8140  -44.8730 N.am   82  HIS82      -0.1959
    115  CA       -53.1810   10.7900  -45.5000 C.3    82  HIS82       0.1787
    116  C        -53.1290   10.4200  -46.9890 C.2    82  HIS82       0.2620
    117  O        -54.1550   10.0660  -47.5520 O.2    82  HIS82      -0.2715
    118  CB       -53.8890   12.1300  -45.3220 C.3    82  HIS82       0.0785
    119  CG       -53.2710   13.2490  -46.0930 C.ar   82  HIS82       0.0821
    120  ND1      -51.9310   13.5460  -45.9920 N.ar   82  HIS82      -0.2267
    121  CD2      -53.7970   14.1410  -46.9640 C.ar   82  HIS82       0.1154
    122  CE1      -51.6510   14.5650  -46.7880 C.ar   82  HIS82       0.1986
    123  NE2      -52.7850   14.9630  -47.3720 N.ar   82  HIS82      -0.2212
    124  N        -51.9550   10.4940  -47.6230 N.am   83  LEU83      -0.1963
    125  CA       -51.8180   10.1370  -49.0480 C.3    83  LEU83       0.1728
    126  C        -51.0610    8.8160  -49.2450 C.2    83  LEU83       0.2616
    127  O        -50.8540    8.4160  -50.3800 O.2    83  LEU83      -0.2715
    128  CB       -51.0400   11.2450  -49.7500 C.3    83  LEU83       0.0311
    129  CG       -51.7280   12.6000  -49.7470 C.3    83  LEU83       0.0022
    130  CD1      -50.7630   13.6740  -50.2160 C.3    83  LEU83       0.0001
    131  CD2      -52.9830   12.5640  -50.6060 C.3    83  LEU83       0.0001
    132  N        -50.5840    8.1770  -48.1710 N.am   84  HIS84      -0.1973
    133  CA       -49.8100    6.9480  -48.3670 C.3    84  HIS84       0.1656
    134  C        -50.6140    5.9540  -49.2220 C.2    84  HIS84       0.2291
    135  O        -50.0740    5.3850  -50.1810 O.2    84  HIS84      -0.2864
    136  CB       -49.4000    6.3060  -47.0370 C.3    84  HIS84       0.0771
    137  CG       -48.3440    7.0440  -46.2770 C.ar   84  HIS84       0.0820
    138  ND1      -47.7960    6.5360  -45.1100 N.ar   84  HIS84      -0.2267
    139  CD2      -47.7540    8.2400  -46.4920 C.ar   84  HIS84       0.1154
    140  CE1      -46.8870    7.3740  -44.6660 C.ar   84  HIS84       0.1986
    141  NE2      -46.8450    8.4330  -45.4960 N.ar   84  HIS84      -0.2212
    142  N        -43.0010    5.4550  -46.3920 N.3   101  GLU101     -0.1231
    143  CA       -42.7070    5.9290  -45.0530 C.3   101  GLU101      0.1699
    144  C        -43.7330    5.3550  -44.0630 C.2   101  GLU101      0.2592
    145  O        -44.9040    5.0250  -44.4080 O.2   101  GLU101     -0.2718
    146  CB       -42.6980    7.4600  -45.0270 C.3   101  GLU101      0.0402
    147  CG       -41.3160    8.0430  -45.2130 C.3   101  GLU101      0.1161
    148  CD       -40.3480    7.7140  -44.0850 C.2   101  GLU101      0.3649
    149  OE1      -40.8060    7.1790  -43.0770 O.co2 101  GLU101     -0.2457
    150  OE2      -39.1240    7.9270  -44.2590 O.co2 101  GLU101     -0.2457
    151  N        -43.3100    5.2690  -42.8000 N.am  102  LYS102     -0.1966
    152  CA       -44.2380    4.8770  -41.7120 C.3   102  LYS102      0.1713
    153  C        -45.0230    6.1040  -41.2240 C.2   102  LYS102      0.2458
    154  O        -44.6530    7.2400  -41.5320 O.2   102  LYS102     -0.2730
    155  CB       -43.4550    4.2170  -40.5740 C.3   102  LYS102      0.0311
    156  CG       -42.1060    4.8420  -40.2220 C.3   102  LYS102      0.0038
    157  CD       -42.1070    6.3400  -40.0190 C.3   102  LYS102      0.0206
    158  CE       -42.8920    6.7690  -38.7960 C.3   102  LYS102      0.1093
    159  NZ       -42.8760    8.2420  -38.6080 N.3   102  LYS102     -0.1314
    160  N        -46.1190    5.9000  -40.4770 N.am  103  PRO103     -0.2727
    161  CA       -46.8590    4.6490  -40.4120 C.3   103  PRO103      0.1402
    162  C        -47.4430    4.3180  -41.8040 C.2   103  PRO103      0.2269
    163  O        -47.5760    5.2150  -42.6350 O.2   103  PRO103     -0.2865
    164  CB       -47.9360    4.9640  -39.3620 C.3   103  PRO103      0.0296
    165  CG       -48.2870    6.3870  -39.6660 C.3   103  PRO103      0.0237
    166  CD       -46.9300    7.0020  -39.9320 C.3   103  PRO103      0.0939
    167  N        -49.4480   18.8670  -39.2640 N.3   173  TRP173     -0.1227
    168  CA       -50.2930   17.6990  -39.6420 C.3   173  TRP173      0.1737
    169  C        -50.0960   16.5280  -38.6560 C.2   173  TRP173      0.2595
    170  O        -51.0110   15.7600  -38.3980 O.2   173  TRP173     -0.2718
    171  CB       -50.0540   17.2800  -41.1180 C.3   173  TRP173      0.0564
    172  CG       -48.7130   16.6830  -41.4330 C.ar  173  TRP173      0.0003
    173  CD1      -47.6470   17.3120  -41.9970 C.ar  173  TRP173      0.0946
    174  CD2      -48.2660   15.3380  -41.1670 C.ar  173  TRP173      0.0152
    175  NE1      -46.5830   16.4480  -42.1250 N.ar  173  TRP173     -0.2442
    176  CE2      -46.9360   15.2310  -41.6240 C.ar  173  TRP173      0.0810
    177  CE3      -48.8450   14.2170  -40.5620 C.ar  173  TRP173      0.0012
    178  CZ2      -46.1950   14.0480  -41.5280 C.ar  173  TRP173      0.0191
    179  CZ3      -48.1250   13.0480  -40.4760 C.ar  173  TRP173      0.0001
    180  CH2      -46.8110   12.9710  -40.9390 C.ar  173  TRP173      0.0015
    181  N        -48.9160   16.4250  -38.0470 N.am  174  ARG174     -0.1980
    182  CA       -48.6640   15.3720  -37.0420 C.3   174  ARG174      0.1597
    183  C        -49.6040   15.4480  -35.8380 C.2   174  ARG174      0.2287
    184  O        -49.6940   14.4400  -35.0710 O.2   174  ARG174     -0.2864
    185  CB       -47.2220   15.4230  -36.5480 C.3   174  ARG174      0.0334
    186  CG       -46.2550   14.6970  -37.4710 C.3   174  ARG174      0.0492
    187  CD       -44.8220   14.8330  -37.0210 C.3   174  ARG174      0.2205
    188  NE       -43.9310   13.9480  -37.7770 N.pl3 174  ARG174     -0.0865
    189  CZ       -43.2610   14.2790  -38.8840 C.cat 174  ARG174      0.5346
    190  NH1      -43.4700   15.4330  -39.5040 N.pl3 174  ARG174      0.1354
    191  NH2      -42.3580   13.4450  -39.3580 N.pl3 174  ARG174      0.1354
    192  N        -46.5380    7.8500  -35.1630 N.3   187  ASP187     -0.1239
    193  CA       -45.3550    8.5290  -35.6680 C.3   187  ASP187      0.1674
    194  C        -44.0450    7.9260  -35.1400 C.2   187  ASP187      0.2266
    195  O        -43.0250    7.9430  -35.8490 O.2   187  ASP187     -0.2867
    196  CB       -45.4600    9.9880  -35.2720 C.3   187  ASP187      0.1410
    197  CG       -44.4700   10.9040  -35.9490 C.2   187  ASP187      0.3668
    198  OD1      -44.1060   10.6650  -37.1390 O.co2 187  ASP187     -0.2456
    199  OD2      -44.0990   11.8850  -35.2840 O.co2 187  ASP187     -0.2456
@<TRIPOS>BOND
     1    67    68    1
     2    72    71    1
     3    76    75    2
     4    75    74    1
     5    71    68    1
     6    68    69    1
     7    69    70    2
     8    73    74    1
     9    74    77    1
    10    83    85   ar
    11    83    80   ar
    12    85    86   ar
    13    44    41    1
    14    40    41    1
    15    77    78    1
    16    41    42    1
    17    80    78   ar
    18    80    82   ar
    19    86    84   ar
    20    78    79   ar
    21    82    84   ar
    22    82    81   ar
    23    48    47    2
    24    45    42   am
    25    45    46    1
    26    79    81   ar
    27    42    43    2
    28     8     6    1
    29    59    60    1
    30     6     5    1
    31    61    62    2
    32    61    60    1
    33    57    56    2
    34    47    46    1
    35    47    54   am
    36    56    55    1
    37    46    49    1
    38    60    63    1
    39    49    50    1
    40     5     7    1
    41     5     2    1
    42     1     2    1
    43    54    55    1
    44    63    64    1
    45     2     3    1
    46    55    58    1
    47    50    51    1
    48     3     9   am
    49     3     4    2
    50     9    10    1
    51    64    65    1
    52    64    66    1
    53    51    52   ar
    54    51    53   ar
    55    10    11    1
    56    12    11    2
    57    11    13   am
    58   131   129    1
    59    13    14    1
    60    98    96    1
    61   127   126    2
    62    14    15    1
    63   130   129    1
    64   135   134    2
    65   128   129    1
    66   128   125    1
    67    87    88    1
    68    16    15    2
    69   126   125    1
    70   126   132   am
    71   134   133    1
    72    15    17   am
    73   125   124    1
    74    96    97    1
    75    96    93    1
    76    91    88    1
    77   133   132    1
    78   133   136    1
    79    88    89    1
    80    92    89   am
    81    92    93    1
    82    89    90    2
    83    17    18    1
    84    93    94    1
    85   124   116   am
    86   117   116    2
    87   123   121   ar
    88   123   122   ar
    89   136   137    1
    90   116   115    1
    91   121   119   ar
    92   122   120   ar
    93    18    19    1
    94   105    99    1
    95   105   104    1
    96    94    99   am
    97    94    95    2
    98   139   137   ar
    99   139   141   ar
   100   142   143    1
   101    35    34    2
   102   137   138   ar
   103    20    19    2
   104   102   101    2
   105   119   120   ar
   106   119   118    1
   107    99   100    1
   108    34    33    1
   109    19    21   am
   110   115   118    1
   111   115   114    1
   112   141   140   ar
   113   104   103    1
   114   147   146    1
   115   147   148    1
   116   138   140   ar
   117   143   146    1
   118   143   144    1
   119   101   100    1
   120   101   106   am
   121   109   108    2
   122   114   108   am
   123   100   103    1
   124    33    36    1
   125    33    32    1
   126    36    37    1
   127   108   107    1
   128    21    22    1
   129    32    23   am
   130   145   144    2
   131   150   148   ar
   132   148   149   ar
   133   144   151   am
   134   106   107    1
   135    23    22    1
   136    23    24    2
   137   107   110    1
   138    22    25    1
   139    37    38    1
   140    39    38    1
   141   151   152    1
   142   163   162    2
   143   110   111    1
   144   175   173   ar
   145   175   176   ar
   146    25    26    1
   147   173   172   ar
   148   112   111    2
   149   162   161    1
   150   152   153    1
   151   152   155    1
   152   176   178   ar
   153   176   174   ar
   154   154   153    2
   155   178   180   ar
   156    26    28   ar
   157    26    27   ar
   158   172   174   ar
   159   172   171    1
   160   111   113   am
   161    28    30   ar
   162   153   160   am
   163   174   177   ar
   164   171   168    1
   165    27    29   ar
   166   180   179   ar
   167    30    31   ar
   168   155   156    1
   169   177   179   ar
   170    29    31   ar
   171   160   161    1
   172   160   166    1
   173   161   164    1
   174   156   157    1
   175   157   158    1
   176   166   165    1
   177   165   164    1
   178   168   167    1
   179   168   169    1
   180   190   189    1
   181   191   189    1
   182   189   188    2
   183   158   159    1
   184   169   170    2
   185   169   181   am
   186   181   182    1
   187   188   187    1
   188   186   187    1
   189   186   185    1
   190   198   197   ar
   191   182   185    1
   192   182   183    1
   193   197   199   ar
   194   197   196    1
   195   195   194    2
   196   183   184    2
   197   193   196    1
   198   193   192    1
   199   193   194    1
