@<TRIPOS>MOLECULE
tmp/6a3jC01.pdb
 130 125 0 0 0
SMALL
GASTEIGER

@<TRIPOS>ATOM
      1  N        -38.1240   14.6680  -44.4400 N.3    12  MET12      -0.1245
      2  CA       -37.4670   13.3890  -44.7100 C.3    12  MET12       0.1570
      3  C        -36.7170   13.4010  -46.0570 C.2    12  MET12       0.2261
      4  O        -35.8720   12.5100  -46.3150 O.2    12  MET12      -0.2867
      5  CB       -38.5000   12.2540  -44.7100 C.3    12  MET12       0.0387
      6  CG       -39.0770   11.9570  -43.3190 C.3    12  MET12       0.0595
      7  SD       -37.8030   11.4970  -42.0950 S.3    12  MET12      -0.1393
      8  CE       -37.2440    9.9870  -42.9110 C.3    12  MET12       0.0692
      9  N        -43.0010    5.4550  -46.3920 N.3   101  GLU101     -0.1231
     10  CA       -42.7070    5.9290  -45.0530 C.3   101  GLU101      0.1699
     11  C        -43.7330    5.3550  -44.0630 C.2   101  GLU101      0.2592
     12  O        -44.9040    5.0250  -44.4080 O.2   101  GLU101     -0.2718
     13  CB       -42.6980    7.4600  -45.0270 C.3   101  GLU101      0.0402
     14  CG       -41.3160    8.0430  -45.2130 C.3   101  GLU101      0.1161
     15  CD       -40.3480    7.7140  -44.0850 C.2   101  GLU101      0.3649
     16  OE1      -40.8060    7.1790  -43.0770 O.co2 101  GLU101     -0.2457
     17  OE2      -39.1240    7.9270  -44.2590 O.co2 101  GLU101     -0.2457
     18  N        -43.3100    5.2690  -42.8000 N.am  102  LYS102     -0.1980
     19  CA       -44.2380    4.8770  -41.7120 C.3   102  LYS102      0.1596
     20  C        -45.0230    6.1040  -41.2240 C.2   102  LYS102      0.2287
     21  O        -44.6530    7.2400  -41.5320 O.2   102  LYS102     -0.2864
     22  CB       -43.4550    4.2170  -40.5740 C.3   102  LYS102      0.0298
     23  CG       -42.1060    4.8420  -40.2220 C.3   102  LYS102      0.0038
     24  CD       -42.1070    6.3400  -40.0190 C.3   102  LYS102      0.0206
     25  CE       -42.8920    6.7690  -38.7960 C.3   102  LYS102      0.1093
     26  NZ       -42.8760    8.2420  -38.6080 N.3   102  LYS102     -0.1314
     27  N        -34.9270    1.9950  -38.3690 N.3   131  TYR131     -0.1241
     28  CA       -34.1090    1.8680  -37.1730 C.3   131  TYR131      0.1605
     29  C        -33.7590    0.4030  -36.9070 C.2   131  TYR131      0.2264
     30  O        -32.7260    0.1540  -36.2700 O.2   131  TYR131     -0.2867
     31  CB       -34.7400    2.5370  -35.9470 C.3   131  TYR131      0.0534
     32  CG       -34.8340    4.0360  -36.0550 C.ar  131  TYR131     -0.0201
     33  CD1      -33.7070    4.8330  -35.9590 C.ar  131  TYR131     -0.0009
     34  CD2      -36.0560    4.6740  -36.1980 C.ar  131  TYR131     -0.0009
     35  CE1      -33.7910    6.2140  -36.0500 C.ar  131  TYR131      0.0417
     36  CE2      -36.1590    6.0590  -36.2400 C.ar  131  TYR131      0.0417
     37  CZ       -35.0180    6.8300  -36.1800 C.ar  131  TYR131      0.1957
     38  OH       -35.1070    8.1910  -36.2040 O.3   131  TYR131     -0.2866
     39  N        -39.6320    5.0200  -27.1350 N.3   159  TYR159     -0.1241
     40  CA       -39.2770    6.0870  -28.0520 C.3   159  TYR159      0.1605
     41  C        -39.6830    7.4170  -27.4230 C.2   159  TYR159      0.2264
     42  O        -40.8550    7.8380  -27.4880 O.2   159  TYR159     -0.2867
     43  CB       -39.9020    5.8650  -29.4320 C.3   159  TYR159      0.0534
     44  CG       -39.1600    6.5190  -30.5720 C.ar  159  TYR159     -0.0201
     45  CD1      -38.5470    7.7550  -30.4260 C.ar  159  TYR159     -0.0009
     46  CD2      -39.1020    5.9130  -31.8210 C.ar  159  TYR159     -0.0009
     47  CE1      -37.9140    8.3790  -31.4910 C.ar  159  TYR159      0.0417
     48  CE2      -38.4350    6.5050  -32.8790 C.ar  159  TYR159      0.0417
     49  CZ       -37.8420    7.7390  -32.7130 C.ar  159  TYR159      0.1957
     50  OH       -37.1840    8.3290  -33.7380 O.3   159  TYR159     -0.2866
     51  N        -39.1630   11.5390  -27.0470 N.3   161  GLN161     -0.1245
     52  CA       -38.7560   12.7280  -27.7610 C.3   161  GLN161      0.1566
     53  C        -39.2750   13.9740  -27.0010 C.2   161  GLN161      0.2260
     54  O        -40.1160   13.8800  -26.0970 O.2   161  GLN161     -0.2867
     55  CB       -39.3340   12.6890  -29.1870 C.3   161  GLN161      0.0367
     56  CG       -38.7150   11.6660  -30.1390 C.3   161  GLN161      0.0905
     57  CD       -39.1480   11.9120  -31.5690 C.2   161  GLN161      0.2608
     58  OE1      -40.3420   12.0650  -31.8730 O.2   161  GLN161     -0.2717
     59  NE2      -38.1800   11.8920  -32.4680 N.am  161  GLN161     -0.0878
     60  N        -39.4180   17.3070  -29.0380 N.3   163  TRP163     -0.1241
     61  CA       -39.4290   18.3990  -30.0270 C.3   163  TRP163      0.1605
     62  C        -40.7320   19.2010  -29.9430 C.2   163  TRP163      0.2264
     63  O        -40.7040   20.3450  -30.3380 O.2   163  TRP163     -0.2867
     64  CB       -39.1910   17.9270  -31.4820 C.3   163  TRP163      0.0550
     65  CG       -40.1550   16.8990  -31.9870 C.ar  163  TRP163      0.0003
     66  CD1      -39.9860   15.5380  -31.9510 C.ar  163  TRP163      0.0946
     67  CD2      -41.4430   17.1270  -32.5870 C.ar  163  TRP163      0.0152
     68  NE1      -41.0760   14.9120  -32.4830 N.ar  163  TRP163     -0.2442
     69  CE2      -41.9810   15.8570  -32.8880 C.ar  163  TRP163      0.0810
     70  CE3      -42.1780   18.2760  -32.9190 C.ar  163  TRP163      0.0012
     71  CZ2      -43.2240   15.7040  -33.5000 C.ar  163  TRP163      0.0191
     72  CZ3      -43.4250   18.1300  -33.4870 C.ar  163  TRP163      0.0001
     73  CH2      -43.9410   16.8590  -33.7610 C.ar  163  TRP163      0.0015
     74  N        -48.9160   16.4250  -38.0470 N.3   174  ARG174     -0.1245
     75  CA       -48.6640   15.3720  -37.0420 C.3   174  ARG174      0.1563
     76  C        -49.6040   15.4480  -35.8380 C.2   174  ARG174      0.2260
     77  O        -49.6940   14.4400  -35.0710 O.2   174  ARG174     -0.2867
     78  CB       -47.2220   15.4230  -36.5480 C.3   174  ARG174      0.0307
     79  CG       -46.2550   14.6970  -37.4710 C.3   174  ARG174      0.0489
     80  CD       -44.8220   14.8330  -37.0210 C.3   174  ARG174      0.2205
     81  NE       -43.9310   13.9480  -37.7770 N.pl3 174  ARG174     -0.0865
     82  CZ       -43.2610   14.2790  -38.8840 C.cat 174  ARG174      0.5346
     83  NH1      -43.4700   15.4330  -39.5040 N.pl3 174  ARG174      0.1354
     84  NH2      -42.3580   13.4450  -39.3580 N.pl3 174  ARG174      0.1354
     85  N        -46.5380    7.8500  -35.1630 N.3   187  ASP187     -0.1225
     86  CA       -45.3550    8.5290  -35.6680 C.3   187  ASP187      0.1805
     87  C        -44.0450    7.9260  -35.1400 C.2   187  ASP187      0.2597
     88  O        -43.0250    7.9430  -35.8490 O.2   187  ASP187     -0.2718
     89  CB       -45.4600    9.9880  -35.2720 C.3   187  ASP187      0.1424
     90  CG       -44.4700   10.9040  -35.9490 C.2   187  ASP187      0.3668
     91  OD1      -44.1060   10.6650  -37.1390 O.co2 187  ASP187     -0.2456
     92  OD2      -44.0990   11.8850  -35.2840 O.co2 187  ASP187     -0.2456
     93  N        -44.0300    7.5060  -33.8690 N.am  188  ILE188     -0.1980
     94  CA       -42.7850    6.9830  -33.2990 C.3   188  ILE188      0.1595
     95  C        -42.9710    5.6190  -32.6260 C.2   188  ILE188      0.2287
     96  O        -42.0390    4.7820  -32.7060 O.2   188  ILE188     -0.2864
     97  CB       -42.1170    8.0080  -32.3650 C.3   188  ILE188      0.0276
     98  CG1      -43.1080    8.5940  -31.3510 C.3   188  ILE188      0.0022
     99  CG2      -41.3940    9.0690  -33.2030 C.3   188  ILE188      0.0022
    100  CD1      -42.4470    9.3050  -30.1880 C.3   188  ILE188      0.0001
    101  N        -42.0840    2.5570  -34.7590 N.3   191  HIS191     -0.1241
    102  CA       -40.6580    2.1580  -34.8700 C.3   191  HIS191      0.1621
    103  C        -40.2700    1.1210  -33.8020 C.2   191  HIS191      0.2264
    104  O        -39.5020    0.1950  -34.0690 O.2   191  HIS191     -0.2867
    105  CB       -39.7400    3.3700  -34.7540 C.3   191  HIS191      0.0745
    106  CG       -39.7880    4.3040  -35.9150 C.ar  191  HIS191      0.0817
    107  ND1      -39.3760    3.9210  -37.1870 N.ar  191  HIS191     -0.2268
    108  CD2      -40.0510    5.6320  -35.9730 C.ar  191  HIS191      0.1154
    109  CE1      -39.4390    4.9600  -37.9900 C.ar  191  HIS191      0.1986
    110  NE2      -39.8370    6.0410  -37.2650 N.ar  191  HIS191     -0.2212
    111  N        -34.0740   11.6930  -29.4400 N.3   261  ASN261     -0.1240
    112  CA       -34.4350   10.6110  -30.3210 C.3   261  ASN261      0.1653
    113  C        -34.1220    9.2930  -29.6130 C.2   261  ASN261      0.2266
    114  O        -33.3840    8.4230  -30.1520 O.2   261  ASN261     -0.2867
    115  CB       -33.7220   10.7020  -31.6700 C.3   261  ASN261      0.1155
    116  CG       -34.5300   10.0850  -32.7880 C.2   261  ASN261      0.2627
    117  OD1      -35.7280   10.3560  -32.9130 O.2   261  ASN261     -0.2716
    118  ND2      -33.8750    9.2920  -33.6290 N.am  261  ASN261     -0.0877
    119  N        -27.9100    8.7580  -38.8990 N.3   323  TYR323     -0.1241
    120  CA       -29.2130    8.4190  -39.4510 C.3   323  TYR323      0.1605
    121  C        -29.0930    7.9380  -40.9080 C.2   323  TYR323      0.2264
    122  O        -29.7800    7.0150  -41.3410 O.2   323  TYR323     -0.2867
    123  CB       -30.1190    9.6410  -39.4230 C.3   323  TYR323      0.0534
    124  CG       -31.5390    9.3660  -39.8440 C.ar  323  TYR323     -0.0201
    125  CD1      -32.4210    8.7450  -38.9860 C.ar  323  TYR323     -0.0009
    126  CD2      -32.0020    9.7140  -41.0960 C.ar  323  TYR323     -0.0009
    127  CE1      -33.7310    8.5010  -39.3470 C.ar  323  TYR323      0.0417
    128  CE2      -33.3130    9.4800  -41.4700 C.ar  323  TYR323      0.0417
    129  CZ       -34.1840    8.8660  -40.5940 C.ar  323  TYR323      0.1957
    130  OH       -35.4760    8.5900  -40.9410 O.3   323  TYR323     -0.2866
@<TRIPOS>BOND
     1     9    10    1
     2     4     3    2
     3     3     2    1
     4    14    13    1
     5    14    15    1
     6    10    13    1
     7    10    11    1
     8     2     5    1
     9     2     1    1
    10     5     6    1
    11    12    11    2
    12    17    15   ar
    13    15    16   ar
    14    11    18   am
    15     6     7    1
    16     8     7    1
    17    18    19    1
    18    19    20    1
    19    19    22    1
    20    21    20    2
    21   128   126   ar
    22   128   129   ar
    23   122   121    2
    24   126   124   ar
    25   130   129    1
    26   121   120    1
    27   129   127   ar
    28    22    23    1
    29    23    24    1
    30    24    25    1
    31   124   123    1
    32   124   125   ar
    33    83    82    1
    34   120   123    1
    35   120   119    1
    36    84    82    1
    37   127   125   ar
    38    82    81    2
    39    25    26    1
    40    27    28    1
    41    74    75    1
    42   109   110   ar
    43   109   107   ar
    44    81    80    1
    45    79    80    1
    46    79    78    1
    47   110   108   ar
    48   107   106   ar
    49    28    29    1
    50    28    31    1
    51    91    90   ar
    52    75    78    1
    53    75    76    1
    54    29    30    2
    55    36    34   ar
    56    36    37   ar
    57    38    37    1
    58    34    32   ar
    59    37    35   ar
    60    32    33   ar
    61    32    31    1
    62    35    33   ar
    63   108   106   ar
    64    90    92   ar
    65    90    89    1
    66   106   105    1
    67    88    87    2
    68    76    77    2
    69    86    89    1
    70    86    85    1
    71    86    87    1
    72    87    93   am
    73   102   101    1
    74   102   105    1
    75   102   103    1
    76   104   103    2
    77    93    94    1
    78    73    71   ar
    79    73    72   ar
    80    50    49    1
    81   118   116   am
    82    71    69   ar
    83    72    70   ar
    84    94    95    1
    85    94    97    1
    86    99    97    1
    87    70    67   ar
    88   117   116    2
    89    69    67   ar
    90    69    68   ar
    91    48    49   ar
    92    48    46   ar
    93   116   115    1
    94    49    47   ar
    95    96    95    2
    96    67    65   ar
    97    68    66   ar
    98    59    57   am
    99    97    98    1
   100    65    66   ar
   101    65    64    1
   102    58    57    2
   103    46    44   ar
   104   115   112    1
   105    57    56    1
   106    47    45   ar
   107    64    61    1
   108    98   100    1
   109    44    45   ar
   110    44    43    1
   111    63    62    2
   112   112   113    1
   113   112   111    1
   114   114   113    2
   115    56    55    1
   116    61    62    1
   117    61    60    1
   118    43    40    1
   119    55    52    1
   120    40    41    1
   121    40    39    1
   122    52    51    1
   123    52    53    1
   124    42    41    2
   125    53    54    2
