@<TRIPOS>MOLECULE
tmp/6a46A00.pdb
 124 117 0 0 0
SMALL
GASTEIGER

@<TRIPOS>ATOM
      1  N          4.7470    7.0570   12.9590 N.3    12  ASP12      -0.1225
      2  CA         4.2060    8.3710   13.2360 C.3    12  ASP12       0.1805
      3  C          5.2680    9.1900   13.9430 C.2    12  ASP12       0.2598
      4  O          6.0200    8.6660   14.7680 O.2    12  ASP12      -0.2718
      5  CB         2.9430    8.2670   14.0930 C.3    12  ASP12       0.1424
      6  CG         2.1000    9.5200   14.0470 C.2    12  ASP12       0.3668
      7  OD1        1.2480    9.6100   13.1410 O.co2  12  ASP12      -0.2456
      8  OD2        2.2650   10.3990   14.9180 O.co2  12  ASP12      -0.2456
      9  N          5.3350   10.4710   13.6020 N.am   13  LEU13      -0.1966
     10  CA         6.2630   11.3900   14.2380 C.3    13  LEU13       0.1728
     11  C          5.5160   12.4780   14.9820 C.2    13  LEU13       0.2616
     12  O          4.4810   12.9630   14.5200 O.2    13  LEU13      -0.2715
     13  CB         7.1880   12.0320   13.2050 C.3    13  LEU13       0.0311
     14  CG         7.9910   11.1080   12.2910 C.3    13  LEU13       0.0022
     15  CD1        8.8710   11.9400   11.3740 C.3    13  LEU13       0.0001
     16  CD2        8.8290   10.1310   13.1000 C.3    13  LEU13       0.0001
     17  N          6.0410   12.8460   16.1440 N.am   14  GLU14      -0.1963
     18  CA         5.6720   14.0960   16.7820 C.3    14  GLU14       0.1733
     19  C          6.8940   14.9980   16.7010 C.2    14  GLU14       0.2616
     20  O          8.0250   14.5370   16.8670 O.2    14  GLU14      -0.2715
     21  CB         5.2210   13.8890   18.2300 C.3    14  GLU14       0.0429
     22  CG         4.0870   12.8820   18.4050 C.3    14  GLU14       0.1163
     23  CD         2.8290   13.2630   17.6450 C.2    14  GLU14       0.3649
     24  OE1        1.9720   12.3770   17.4350 O.co2  14  GLU14      -0.2457
     25  OE2        2.6920   14.4430   17.2620 O.co2  14  GLU14      -0.2457
     26  N          6.6680   16.2740   16.4180 N.am   15  ALA15      -0.1977
     27  CA         7.7610   17.2130   16.2210 C.3    15  ALA15       0.1597
     28  C          7.3880   18.5890   16.7430 C.2    15  ALA15       0.2287
     29  O          6.2920   18.7920   17.2630 O.2    15  ALA15      -0.2864
     30  CB         8.1340   17.2840   14.7520 C.3    15  ALA15       0.0319
     31  N          6.9020   21.4560   15.2380 N.3    17  GLY17      -0.1210
     32  CA         6.0320   22.3160   14.4550 C.3    17  GLY17       0.1956
     33  C          5.7920   21.8330   13.0370 C.2    17  GLY17       0.2611
     34  O          6.0750   20.6840   12.7020 O.2    17  GLY17      -0.2717
     35  N          5.2620   22.7270   12.2060 N.am   18  LEU18      -0.1979
     36  CA         4.9480   22.4210   10.8130 C.3    18  LEU18       0.1596
     37  C          6.1710   22.6840    9.9280 C.2    18  LEU18       0.2287
     38  O          7.0980   23.3690   10.3540 O.2    18  LEU18      -0.2864
     39  CB         3.7420   23.2510   10.3610 C.3    18  LEU18       0.0297
     40  CG         2.4560   23.0070   11.1580 C.3    18  LEU18       0.0022
     41  CD1        1.3620   23.9580   10.7030 C.3    18  LEU18       0.0001
     42  CD2        1.9870   21.5620   11.0360 C.3    18  LEU18       0.0001
     43  N          6.8180   24.7130   19.2700 N.3    69  THR69      -0.1218
     44  CA         5.9210   25.8500   19.1330 C.3    69  THR69       0.1862
     45  C          4.8200   25.6880   20.1650 C.2    69  THR69       0.2287
     46  O          4.6060   24.5890   20.6810 O.2    69  THR69      -0.2866
     47  CB         5.2990   25.9520   17.7290 C.3    69  THR69       0.1770
     48  OG1        4.5670   24.7550   17.4370 O.3    69  THR69      -0.2211
     49  CG2        6.3740   26.1530   16.6810 C.3    69  THR69       0.0375
     50  N          1.6370   25.6370   19.8120 N.3    71  LYS71      -0.1231
     51  CA         0.6510   24.6770   19.3320 C.3    71  LYS71       0.1693
     52  C          1.1660   23.2440   19.4320 C.2    71  LYS71       0.2591
     53  O          0.4890   22.3710   19.9730 O.2    71  LYS71      -0.2718
     54  CB         0.2720   24.9920   17.8840 C.3    71  LYS71       0.0285
     55  CG        -1.0110   24.3270   17.4090 C.3    71  LYS71       0.0035
     56  CD        -1.2440   24.5860   15.9270 C.3    71  LYS71       0.0206
     57  CE        -2.7110   24.4450   15.5480 C.3    71  LYS71       0.1093
     58  NZ        -3.2690   23.1080   15.8880 N.3    71  LYS71      -0.1314
     59  N          2.3650   23.0110   18.9060 N.am   72  ALA72      -0.1980
     60  CA         2.9320   21.6680   18.8500 C.3    72  ALA72       0.1597
     61  C          3.0500   21.0510   20.2390 C.2    72  ALA72       0.2287
     62  O          2.7290   19.8790   20.4350 O.2    72  ALA72      -0.2864
     63  CB         4.2900   21.7000   18.1730 C.3    72  ALA72       0.0319
     64  N         -0.4680   20.3350   21.6040 N.3    75  ILE75      -0.1231
     65  CA        -1.0090   19.1760   20.9060 C.3    75  ILE75       0.1692
     66  C         -0.4330   17.8690   21.4480 C.2    75  ILE75       0.2592
     67  O         -1.1710   16.9880   21.8880 O.2    75  ILE75      -0.2718
     68  CB        -0.7240   19.2660   19.3890 C.3    75  ILE75       0.0266
     69  CG1       -1.6160   20.3300   18.7470 C.3    75  ILE75       0.0019
     70  CG2       -0.9620   17.9240   18.7060 C.3    75  ILE75       0.0020
     71  CD1       -1.2440   20.6630   17.3160 C.3    75  ILE75       0.0001
     72  N          0.8890   17.7520   21.4020 N.am   76  THR76      -0.1953
     73  CA         1.5680   16.5020   21.7280 C.3    76  THR76       0.1897
     74  C          1.6370   16.2280   23.2260 C.2    76  THR76       0.2313
     75  O          1.8420   15.0880   23.6430 O.2    76  THR76      -0.2863
     76  CB         3.0040   16.4970   21.1730 C.3    76  THR76       0.1794
     77  OG1        3.7610   17.5500   21.7850 O.3    76  THR76      -0.2208
     78  CG2        2.9960   16.6830   19.6610 C.3    76  THR76       0.0378
     79  N          4.9350   15.2860    5.2510 N.3   120  TYR120     -0.1227
     80  CA         5.4670   15.5470    6.5900 C.3   120  TYR120      0.1736
     81  C          6.4420   14.4930    7.1150 C.2   120  TYR120      0.2595
     82  O          7.6410   14.7480    7.2160 O.2   120  TYR120     -0.2718
     83  CB         4.3110   15.6910    7.5800 C.3   120  TYR120      0.0548
     84  CG         4.7230   16.3340    8.8800 C.ar  120  TYR120     -0.0200
     85  CD1        4.8300   17.7120    8.9850 C.ar  120  TYR120     -0.0009
     86  CD2        5.0140   15.5650   10.0000 C.ar  120  TYR120     -0.0009
     87  CE1        5.2110   18.3100   10.1670 C.ar  120  TYR120      0.0417
     88  CE2        5.3960   16.1540   11.1890 C.ar  120  TYR120      0.0417
     89  CZ         5.4940   17.5270   11.2650 C.ar  120  TYR120      0.1957
     90  OH         5.8710   18.1220   12.4440 O.3   120  TYR120     -0.2866
     91  N          5.9260   13.3190    7.4580 N.am  121  ASP121     -0.1974
     92  CA         6.7150   12.3180    8.1690 C.3   121  ASP121      0.1709
     93  C          7.9440   11.8510    7.3940 C.2   121  ASP121      0.2293
     94  O          9.0430   11.8010    7.9480 O.2   121  ASP121     -0.2864
     95  CB         5.8340   11.1190    8.5160 C.3   121  ASP121      0.1436
     96  CG         4.6680   11.4990    9.4100 C.2   121  ASP121      0.3671
     97  OD1        3.6850   12.0710    8.8930 O.co2 121  ASP121     -0.2456
     98  OD2        4.7370   11.2340   10.6270 O.co2 121  ASP121     -0.2456
     99  N         -6.4450   11.9250   10.0570 N.3   163  LEU163     -0.1245
    100  CA        -6.4150   10.6820   10.8200 C.3   163  LEU163      0.1561
    101  C         -7.6540   10.5560   11.7010 C.2   163  LEU163      0.2260
    102  O         -8.3020    9.5100   11.7310 O.2   163  LEU163     -0.2867
    103  CB        -5.1530   10.6120   11.6810 C.3   163  LEU163      0.0270
    104  CG        -4.8460    9.2600   12.3270 C.3   163  LEU163      0.0019
    105  CD1       -4.4330    8.2350   11.2780 C.3   163  LEU163      0.0001
    106  CD2       -3.7620    9.4160   13.3810 C.3   163  LEU163      0.0001
    107  N         -2.5060   12.3040   18.9600 N.3   179  HIS179     -0.1241
    108  CA        -1.3650   13.2140   18.8500 C.3   179  HIS179      0.1621
    109  C         -0.1590   12.7840   19.6890 C.2   179  HIS179      0.2264
    110  O          0.7660   13.5690   19.9040 O.2   179  HIS179     -0.2867
    111  CB        -1.7850   14.6370   19.2270 C.3   179  HIS179      0.0745
    112  CG        -2.8760   15.1880   18.3610 C.ar  179  HIS179      0.0817
    113  ND1       -2.6850   15.4870   17.0300 N.ar  179  HIS179     -0.2268
    114  CD2       -4.1670   15.4950   18.6340 C.ar  179  HIS179      0.1154
    115  CE1       -3.8100   15.9530   16.5190 C.ar  179  HIS179      0.1986
    116  NE2       -4.7250   15.9690   17.4710 N.ar  179  HIS179     -0.2212
    117  N         -1.0500    7.5440   17.6280 N.3   184  ASP184     -0.1239
    118  CA        -1.4160    7.8220   16.2430 C.3   184  ASP184      0.1674
    119  C         -1.1130    6.6420   15.3170 C.2   184  ASP184      0.2266
    120  O         -1.8260    6.4300   14.3360 O.2   184  ASP184     -0.2867
    121  CB        -0.6980    9.0820   15.7440 C.3   184  ASP184      0.1410
    122  CG        -1.2830   10.3640   16.3280 C.2   184  ASP184      0.3668
    123  OD1       -2.4170   10.3280   16.8520 O.co2 184  ASP184     -0.2456
    124  OD2       -0.6140   11.4170   16.2540 O.co2 184  ASP184     -0.2456
@<TRIPOS>BOND
     1    79    80    1
     2    80    81    1
     3    80    83    1
     4    81    82    2
     5    81    91   am
     6    93    94    2
     7    93    92    1
     8    91    92    1
     9    83    84    1
    10    92    95    1
    11    95    96    1
    12    84    85   ar
    13    84    86   ar
    14    97    96   ar
    15    85    87   ar
    16    96    98   ar
    17    37    38    2
    18    37    36    1
    19    86    88   ar
    20    99   100    1
    21    87    89   ar
    22    39    36    1
    23    39    40    1
    24    41    40    1
    25    36    35    1
    26   100   103    1
    27   100   101    1
    28    42    40    1
    29    88    89   ar
    30    89    90    1
    31   105   104    1
    32    15    14    1
    33   103   104    1
    34   101   102    2
    35    35    33   am
    36    14    16    1
    37    14    13    1
    38   104   106    1
    39    34    33    2
    40     1     2    1
    41    33    32    1
    42     7     6   ar
    43    13    10    1
    44     2     3    1
    45     2     5    1
    46     9     3   am
    47     9    10    1
    48     3     4    2
    49     6     5    1
    50     6     8   ar
    51    10    11    1
    52   120   119    2
    53    32    31    1
    54    12    11    2
    55    30    27    1
    56    11    17   am
    57   119   118    1
    58    57    58    1
    59    57    56    1
    60   121   118    1
    61   121   122    1
    62    56    55    1
    63    17    18    1
    64    27    26    1
    65    27    28    1
    66   118   117    1
    67   124   122   ar
    68   122   123   ar
    69    26    19   am
    70   115   113   ar
    71   115   116   ar
    72    49    47    1
    73    19    18    1
    74    19    20    2
    75    28    29    2
    76    18    21    1
    77   113   112   ar
    78    25    23   ar
    79    71    69    1
    80    55    54    1
    81    24    23   ar
    82    48    47    1
    83   116   114   ar
    84    23    22    1
    85    47    44    1
    86    54    51    1
    87    63    60    1
    88    21    22    1
    89   112   114   ar
    90   112   111    1
    91    70    68    1
    92    69    68    1
    93   108   107    1
    94   108   111    1
    95   108   109    1
    96    60    59    1
    97    60    61    1
    98    59    52   am
    99    44    43    1
   100    44    45    1
   101    51    52    1
   102    51    50    1
   103    68    65    1
   104    52    53    2
   105    78    76    1
   106   109   110    2
   107    45    46    2
   108    61    62    2
   109    65    66    1
   110    65    64    1
   111    76    73    1
   112    76    77    1
   113    72    66   am
   114    72    73    1
   115    66    67    2
   116    73    74    1
   117    74    75    2
