@<TRIPOS>MOLECULE
tmp/6a4dA00.pdb
 130 119 0 0 0
SMALL
GASTEIGER

@<TRIPOS>ATOM
      1  N         -9.6140  -19.7510  -19.5210 N.3    15  ASP15      -0.1225
      2  CA        -9.3880  -21.1370  -19.2090 C.3    15  ASP15       0.1805
      3  C         -9.2950  -21.2530  -17.7120 C.2    15  ASP15       0.2597
      4  O         -8.8360  -20.3320  -17.0600 O.2    15  ASP15      -0.2718
      5  CB        -8.1310  -21.6460  -19.9040 C.3    15  ASP15       0.1424
      6  CG        -7.8200  -23.1220  -19.5800 C.2    15  ASP15       0.3668
      7  OD1       -8.7080  -23.9770  -19.8300 O.co2  15  ASP15      -0.2456
      8  OD2       -6.6950  -23.3960  -19.0680 O.co2  15  ASP15      -0.2456
      9  N         -9.7590  -22.3980  -17.1980 N.am   16  LEU16      -0.1979
     10  CA        -9.8020  -22.6960  -15.7740 C.3    16  LEU16       0.1596
     11  C         -9.1430  -24.0370  -15.5190 C.2    16  LEU16       0.2287
     12  O         -9.1880  -24.9340  -16.3520 O.2    16  LEU16      -0.2864
     13  CB       -11.2500  -22.8400  -15.2990 C.3    16  LEU16       0.0297
     14  CG       -12.1800  -21.6350  -15.1980 C.3    16  LEU16       0.0022
     15  CD1      -13.4190  -21.9470  -14.3650 C.3    16  LEU16       0.0001
     16  CD2      -11.5200  -20.4190  -14.6180 C.3    16  LEU16       0.0001
     17  N         -9.5030  -26.9750  -12.4260 N.3    18  MET18      -0.1245
     18  CA       -10.3640  -27.3630  -11.3290 C.3    18  MET18       0.1570
     19  C         -9.7840  -28.6300  -10.6370 C.2    18  MET18       0.2261
     20  O         -8.7530  -29.1500  -11.0400 O.2    18  MET18      -0.2867
     21  CB       -11.7280  -27.6620  -11.8910 C.3    18  MET18       0.0387
     22  CG       -12.3210  -26.5620  -12.7300 C.3    18  MET18       0.0595
     23  SD       -11.8430  -26.5490  -14.4810 S.3    18  MET18      -0.1393
     24  CE       -13.4180  -26.1860  -15.2260 C.3    18  MET18       0.0692
     25  N        -13.9090  -32.9410  -12.6420 N.3    21  LEU21      -0.1245
     26  CA       -14.9130  -32.7110  -13.6740 C.3    21  LEU21       0.1561
     27  C        -16.3020  -32.3130  -13.2120 C.2    21  LEU21       0.2260
     28  O        -17.1230  -31.9110  -14.0330 O.2    21  LEU21      -0.2867
     29  CB       -15.0710  -33.9650  -14.5410 C.3    21  LEU21       0.0270
     30  CG       -14.0390  -34.2630  -15.6290 C.3    21  LEU21       0.0019
     31  CD1      -13.6870  -33.1020  -16.5750 C.3    21  LEU21       0.0001
     32  CD2      -12.7850  -34.7460  -14.9620 C.3    21  LEU21       0.0001
     33  N        -11.8940  -23.8010  -25.7550 N.3   110  ASN110     -0.1225
     34  CA       -12.1670  -25.1740  -26.1660 C.3   110  ASN110      0.1785
     35  C        -13.0590  -25.7850  -25.0810 C.2   110  ASN110      0.2597
     36  O        -12.7240  -25.6840  -23.9370 O.2   110  ASN110     -0.2718
     37  CB       -10.8640  -25.9820  -26.2540 C.3   110  ASN110      0.1169
     38  CG       -10.0910  -25.7340  -27.5440 C.2   110  ASN110      0.2627
     39  OD1       -9.1580  -24.9340  -27.5830 O.2   110  ASN110     -0.2716
     40  ND2      -10.4320  -26.4790  -28.5840 N.am  110  ASN110     -0.0877
     41  N        -14.1420  -26.4610  -25.4490 N.am  111  SER111     -0.1952
     42  CA       -15.0800  -27.0740  -24.4830 C.3   111  SER111      0.1924
     43  C        -15.3580  -26.1040  -23.3350 C.2   111  SER111      0.2314
     44  O        -15.3860  -26.4560  -22.1240 O.2   111  SER111     -0.2863
     45  CB       -14.5790  -28.4500  -24.0060 C.3   111  SER111      0.2116
     46  OG       -14.8210  -29.4100  -25.0060 O.3   111  SER111     -0.2180
     47  N        -17.9110  -26.3960  -20.3560 N.3   114  GLN114     -0.1231
     48  CA       -17.5270  -27.0640  -19.1450 C.3   114  GLN114      0.1698
     49  C        -17.0480  -26.0660  -18.1360 C.2   114  GLN114      0.2592
     50  O        -17.4340  -26.1380  -16.9580 O.2   114  GLN114     -0.2718
     51  CB       -16.4610  -28.1150  -19.3900 C.3   114  GLN114      0.0381
     52  CG       -15.9000  -28.7860  -18.1370 C.3   114  GLN114      0.0905
     53  CD       -16.9030  -29.6580  -17.3530 C.2   114  GLN114      0.2608
     54  OE1      -18.0130  -29.9560  -17.7930 O.2   114  GLN114     -0.2717
     55  NE2      -16.4800  -30.0950  -16.2240 N.am  114  GLN114     -0.0878
     56  N        -16.1990  -25.1340  -18.5650 N.am  115  ASP115     -0.1974
     57  CA       -15.7160  -24.0770  -17.6400 C.3   115  ASP115      0.1709
     58  C        -16.8890  -23.2110  -17.1430 C.2   115  ASP115      0.2293
     59  O        -16.8660  -22.7580  -16.0240 O.2   115  ASP115     -0.2864
     60  CB       -14.7130  -23.1220  -18.2900 C.3   115  ASP115      0.1436
     61  CG       -13.4810  -23.8220  -18.9030 C.2   115  ASP115      0.3671
     62  OD1      -13.6500  -24.6360  -19.8460 O.co2 115  ASP115     -0.2456
     63  OD2      -12.3440  -23.4630  -18.5030 O.co2 115  ASP115     -0.2456
     64  N        -13.8310  -26.2350  -29.9840 N.3   138  SER138     -0.1217
     65  CA       -13.9730  -27.6720  -30.1500 C.3   138  SER138      0.1889
     66  C        -15.1970  -28.0480  -30.9480 C.2   138  SER138      0.2288
     67  O        -15.2060  -29.1090  -31.5040 O.2   138  SER138     -0.2866
     68  CB       -14.0330  -28.3870  -28.8030 C.3   138  SER138      0.2089
     69  OG       -12.8970  -28.0740  -28.0730 O.3   138  SER138     -0.2183
     70  N        -13.5360  -27.8910  -34.1510 N.3   141  LYS141     -0.1245
     71  CA       -12.7830  -29.1480  -34.2190 C.3   141  LYS141      0.1561
     72  C        -13.5900  -30.3830  -34.6090 C.2   141  LYS141      0.2260
     73  O        -13.1650  -31.1730  -35.4620 O.2   141  LYS141     -0.2867
     74  CB       -12.0570  -29.3970  -32.9150 C.3   141  LYS141      0.0271
     75  CG       -10.8930  -30.3580  -33.0870 C.3   141  LYS141      0.0035
     76  CD       -10.6690  -31.1460  -31.8090 C.3   141  LYS141      0.0206
     77  CE       -10.4000  -30.2480  -30.6070 C.3   141  LYS141      0.1093
     78  NZ        -9.1030  -29.5450  -30.7230 N.3   141  LYS141     -0.1314
     79  N         -3.1950  -27.5910  -36.9160 N.3   155  VAL155     -0.1231
     80  CA        -3.4350  -27.2350  -35.4760 C.3   155  VAL155      0.1692
     81  C         -2.2980  -27.7670  -34.6580 C.2   155  VAL155      0.2592
     82  O         -1.9280  -28.9140  -34.8280 O.2   155  VAL155     -0.2718
     83  CB        -4.7450  -27.8620  -34.9830 C.3   155  VAL155      0.0266
     84  CG1       -4.9940  -27.6620  -33.4940 C.3   155  VAL155      0.0020
     85  CG2       -5.8920  -27.3060  -35.7860 C.3   155  VAL155      0.0020
     86  N         -1.7580  -26.9190  -33.7760 N.am  156  VAL156     -0.1966
     87  CA        -0.6580  -27.2100  -32.8630 C.3   156  VAL156      0.1727
     88  C         -1.1650  -27.5300  -31.4580 C.2   156  VAL156      0.2616
     89  O         -1.7930  -26.6920  -30.7870 O.2   156  VAL156     -0.2715
     90  CB         0.2970  -25.9860  -32.7390 C.3   156  VAL156      0.0290
     91  CG1        1.4840  -26.2780  -31.8010 C.3   156  VAL156      0.0023
     92  CG2        0.8050  -25.5680  -34.1210 C.3   156  VAL156      0.0023
     93  N         -0.8080  -28.7100  -30.9750 N.am  157  LYS157     -0.1977
     94  CA        -1.3150  -29.2040  -29.7000 C.3   157  LYS157      0.1596
     95  C         -0.4820  -28.7910  -28.4760 C.2   157  LYS157      0.2287
     96  O         -0.9560  -27.9980  -27.6930 O.2   157  LYS157     -0.2864
     97  CB        -1.5100  -30.7180  -29.7540 C.3   157  LYS157      0.0298
     98  CG        -2.9650  -31.1270  -29.8920 C.3   157  LYS157      0.0038
     99  CD        -3.0910  -32.6350  -30.0430 C.3   157  LYS157      0.0206
    100  CE        -2.9450  -33.3720  -28.7230 C.3   157  LYS157      0.1093
    101  NZ        -4.2510  -33.4520  -28.0120 N.3   157  LYS157     -0.1314
    102  N         -2.7800  -22.5720  -22.3040 N.3   166  ALA166     -0.1245
    103  CA        -3.9300  -23.2660  -22.8230 C.3   166  ALA166      0.1562
    104  C         -4.8160  -22.2990  -23.6830 C.2   166  ALA166      0.2260
    105  O         -5.2260  -22.6710  -24.7640 O.2   166  ALA166     -0.2867
    106  CB        -4.7090  -23.9000  -21.6980 C.3   166  ALA166      0.0290
    107  N         -3.1690  -21.2840  -26.9450 N.3   169  GLU169     -0.1231
    108  CA        -3.4410  -22.4550  -27.7630 C.3   169  GLU169      0.1699
    109  C         -4.8270  -22.5590  -28.4920 C.2   169  GLU169      0.2592
    110  O         -4.9040  -23.0150  -29.6090 O.2   169  GLU169     -0.2718
    111  CB        -3.2150  -23.7210  -26.9230 C.3   169  GLU169      0.0402
    112  CG        -1.9100  -24.4370  -27.2210 C.3   169  GLU169      0.1161
    113  CD        -1.7770  -25.7290  -26.4410 C.2   169  GLU169      0.3649
    114  OE1       -0.7630  -25.8370  -25.7130 O.co2 169  GLU169     -0.2457
    115  OE2       -2.6880  -26.6120  -26.5560 O.co2 169  GLU169     -0.2457
    116  N         -5.9010  -22.2220  -27.8030 N.am  170  SER170     -0.1952
    117  CA        -7.2450  -22.2280  -28.3650 C.3   170  SER170      0.1924
    118  C         -7.3570  -21.1630  -29.4460 C.2   170  SER170      0.2314
    119  O         -7.9160  -21.4250  -30.5020 O.2   170  SER170     -0.2863
    120  CB        -8.3160  -21.9280  -27.2820 C.3   170  SER170      0.2116
    121  OG        -8.0810  -22.6820  -26.1010 O.3   170  SER170     -0.2180
    122  N         -5.5970  -22.1970  -32.3860 N.3   173  GLU173     -0.1245
    123  CA        -6.3430  -23.2160  -33.1100 C.3   173  GLU173      0.1567
    124  C         -7.4270  -22.5900  -34.0210 C.2   173  GLU173      0.2260
    125  O         -7.6080  -23.0010  -35.1350 O.2   173  GLU173     -0.2867
    126  CB        -6.9730  -24.2450  -32.1690 C.3   173  GLU173      0.0388
    127  CG        -7.7180  -25.3880  -32.8800 C.3   173  GLU173      0.1160
    128  CD        -8.4370  -26.3290  -31.8900 C.2   173  GLU173      0.3649
    129  OE1       -8.2310  -26.1820  -30.6590 O.co2 173  GLU173     -0.2457
    130  OE2       -9.2330  -27.2010  -32.3460 O.co2 173  GLU173     -0.2457
@<TRIPOS>BOND
     1    79    80    1
     2    85    83    1
     3    80    83    1
     4    80    81    1
     5    73    72    2
     6   125   124    2
     7    83    84    1
     8    82    81    2
     9    81    86   am
    10    72    71    1
    11    71    70    1
    12    71    74    1
    13    92    90    1
    14   124   123    1
    15    86    87    1
    16   123   122    1
    17   123   126    1
    18    75    74    1
    19    75    76    1
    20   127   126    1
    21   127   128    1
    22    87    90    1
    23    87    88    1
    24    90    91    1
    25   130   128   ar
    26   128   129   ar
    27    76    77    1
    28    67    66    2
    29    88    93   am
    30    88    89    2
    31    93    94    1
    32    66    65    1
    33    78    77    1
    34   119   118    2
    35    65    64    1
    36    65    68    1
    37    99    98    1
    38    99   100    1
    39    98    97    1
    40    97    94    1
    41    94    95    1
    42   110   109    2
    43   118   117    1
    44    68    69    1
    45   100   101    1
    46    40    38   am
    47   109   116   am
    48   109   108    1
    49    95    96    2
    50   117   116    1
    51   117   120    1
    52   108   107    1
    53   108   111    1
    54    39    38    2
    55    38    37    1
    56   120   121    1
    57   112   111    1
    58   112   113    1
    59   115   113   ar
    60   113   114   ar
    61    37    34    1
    62    34    33    1
    63    34    35    1
    64    41    35   am
    65    41    42    1
    66    35    36    2
    67    46    45    1
    68   105   104    2
    69    42    45    1
    70    42    43    1
    71   104   103    1
    72    43    44    2
    73   103   102    1
    74   103   106    1
    75    47    48    1
    76     5     6    1
    77     5     2    1
    78    62    61   ar
    79     7     6   ar
    80     6     8   ar
    81     1     2    1
    82    51    48    1
    83    51    52    1
    84     2     3    1
    85    48    49    1
    86    61    63   ar
    87    61    60    1
    88    56    49   am
    89    56    57    1
    90    60    57    1
    91    52    53    1
    92    49    50    2
    93    54    53    2
    94     3     9   am
    95     3     4    2
    96    57    58    1
    97    53    55   am
    98     9    10    1
    99    58    59    2
   100    31    30    1
   101    12    11    2
   102    10    11    1
   103    10    13    1
   104    30    32    1
   105    30    29    1
   106    13    14    1
   107    24    23    1
   108    14    16    1
   109    14    15    1
   110    29    26    1
   111    23    22    1
   112    28    27    2
   113    26    27    1
   114    26    25    1
   115    22    21    1
   116    17    18    1
   117    21    18    1
   118    18    19    1
   119    20    19    2
