@<TRIPOS>MOLECULE
tmp/6a4dA01.pdb
 120 113 0 0 0
SMALL
GASTEIGER

@<TRIPOS>ATOM
      1  N         -9.6140  -19.7510  -19.5210 N.3    15  ASP15      -0.1225
      2  CA        -9.3880  -21.1370  -19.2090 C.3    15  ASP15       0.1805
      3  C         -9.2950  -21.2530  -17.7120 C.2    15  ASP15       0.2598
      4  O         -8.8360  -20.3320  -17.0600 O.2    15  ASP15      -0.2718
      5  CB        -8.1310  -21.6460  -19.9040 C.3    15  ASP15       0.1424
      6  CG        -7.8200  -23.1220  -19.5800 C.2    15  ASP15       0.3668
      7  OD1       -8.7080  -23.9770  -19.8300 O.co2  15  ASP15      -0.2456
      8  OD2       -6.6950  -23.3960  -19.0680 O.co2  15  ASP15      -0.2456
      9  N         -9.7590  -22.3980  -17.1980 N.am   16  LEU16      -0.1966
     10  CA        -9.8020  -22.6960  -15.7740 C.3    16  LEU16       0.1728
     11  C         -9.1430  -24.0370  -15.5190 C.2    16  LEU16       0.2616
     12  O         -9.1880  -24.9340  -16.3520 O.2    16  LEU16      -0.2715
     13  CB       -11.2500  -22.8400  -15.2990 C.3    16  LEU16       0.0311
     14  CG       -12.1800  -21.6350  -15.1980 C.3    16  LEU16       0.0022
     15  CD1      -13.4190  -21.9470  -14.3650 C.3    16  LEU16       0.0001
     16  CD2      -11.5200  -20.4190  -14.6180 C.3    16  LEU16       0.0001
     17  N         -8.5530  -24.1880  -14.3390 N.am   17  GLU17      -0.1963
     18  CA        -8.2070  -25.5100  -13.8300 C.3    17  GLU17       0.1733
     19  C         -9.1010  -25.7240  -12.6240 C.2    17  GLU17       0.2616
     20  O         -9.4520  -24.7560  -11.9220 O.2    17  GLU17      -0.2715
     21  CB        -6.7250  -25.6070  -13.4880 C.3    17  GLU17       0.0429
     22  CG        -5.7370  -25.3230  -14.6300 C.3    17  GLU17       0.1163
     23  CD        -6.1230  -25.9980  -15.9380 C.2    17  GLU17       0.3649
     24  OE1       -6.4120  -27.2130  -15.9140 O.co2  17  GLU17      -0.2457
     25  OE2       -6.2000  -25.3050  -16.9860 O.co2  17  GLU17      -0.2457
     26  N         -9.5030  -26.9750  -12.4260 N.am   18  MET18      -0.1977
     27  CA       -10.3640  -27.3630  -11.3290 C.3    18  MET18       0.1605
     28  C         -9.7840  -28.6300  -10.6370 C.2    18  MET18       0.2287
     29  O         -8.7530  -29.1500  -11.0400 O.2    18  MET18      -0.2864
     30  CB       -11.7280  -27.6620  -11.8910 C.3    18  MET18       0.0413
     31  CG       -12.3210  -26.5620  -12.7300 C.3    18  MET18       0.0598
     32  SD       -11.8430  -26.5490  -14.4810 S.3    18  MET18      -0.1393
     33  CE       -13.4180  -26.1860  -15.2260 C.3    18  MET18       0.0692
     34  N        -11.5050  -31.3750  -10.4600 N.3    20  GLY20      -0.1210
     35  CA       -12.1240  -32.5010  -11.1420 C.3    20  GLY20       0.1956
     36  C        -13.1200  -31.9990  -12.1250 C.2    20  GLY20       0.2611
     37  O        -13.1910  -30.7770  -12.3640 O.2    20  GLY20      -0.2717
     38  N        -13.9090  -32.9410  -12.6420 N.am   21  LEU21      -0.1979
     39  CA       -14.9130  -32.7110  -13.6740 C.3    21  LEU21       0.1596
     40  C        -16.3020  -32.3130  -13.2120 C.2    21  LEU21       0.2287
     41  O        -17.1230  -31.9110  -14.0330 O.2    21  LEU21      -0.2864
     42  CB       -15.0710  -33.9650  -14.5410 C.3    21  LEU21       0.0297
     43  CG       -14.0390  -34.2630  -15.6290 C.3    21  LEU21       0.0022
     44  CD1      -13.6870  -33.1020  -16.5750 C.3    21  LEU21       0.0001
     45  CD2      -12.7850  -34.7460  -14.9620 C.3    21  LEU21       0.0001
     46  N         -9.0980  -35.7340   -7.4570 N.3    62  ASN62      -0.1240
     47  CA        -8.9200  -37.0330   -8.1480 C.3    62  ASN62       0.1653
     48  C         -7.4480  -37.3420   -8.5770 C.2    62  ASN62       0.2266
     49  O         -6.5700  -36.4550   -8.4820 O.2    62  ASN62      -0.2867
     50  CB        -9.9350  -37.2020   -9.2870 C.3    62  ASN62       0.1155
     51  CG        -9.6310  -36.3460  -10.5110 C.2    62  ASN62       0.2627
     52  OD1       -8.4820  -35.9320  -10.7650 O.2    62  ASN62      -0.2716
     53  ND2      -10.6700  -36.1190  -11.3120 N.am   62  ASN62      -0.0877
     54  N         -5.8580  -38.1250  -11.5100 N.3    64  TRP64      -0.1227
     55  CA        -5.4790  -37.2810  -12.6530 C.3    64  TRP64       0.1737
     56  C         -4.9670  -35.9440  -12.1360 C.2    64  TRP64       0.2595
     57  O         -3.8350  -35.5190  -12.5000 O.2    64  TRP64      -0.2718
     58  CB        -6.6640  -37.0480  -13.5790 C.3    64  TRP64       0.0564
     59  CG        -6.2680  -36.4460  -14.8960 C.ar   64  TRP64       0.0003
     60  CD1       -5.9460  -37.1230  -16.0440 C.ar   64  TRP64       0.0946
     61  CD2       -6.1590  -35.0540  -15.2110 C.ar   64  TRP64       0.0152
     62  NE1       -5.6480  -36.2380  -17.0550 N.ar   64  TRP64      -0.2442
     63  CE2       -5.7600  -34.9610  -16.5740 C.ar   64  TRP64       0.0810
     64  CE3       -6.3450  -33.8760  -14.4780 C.ar   64  TRP64       0.0012
     65  CZ2       -5.5480  -33.7270  -17.2220 C.ar   64  TRP64       0.0191
     66  CZ3       -6.1320  -32.6490  -15.1260 C.ar   64  TRP64       0.0001
     67  CH2       -5.7410  -32.5890  -16.4860 C.ar   64  TRP64       0.0015
     68  N         -5.7650  -35.3210  -11.2430 N.am   65  CYS65      -0.1970
     69  CA        -5.4510  -33.9890  -10.7910 C.3    65  CYS65       0.1712
     70  C         -4.2040  -33.9230   -9.9360 C.2    65  CYS65       0.2296
     71  O         -3.3900  -33.0160  -10.1270 O.2    65  CYS65      -0.2864
     72  CB        -6.6420  -33.3140  -10.0980 C.3    65  CYS65       0.0983
     73  SG        -8.0430  -32.9140  -11.1740 S.3    65  CYS65      -0.0798
     74  N         -1.6600  -31.6130  -11.9030 N.3    69  HIS69      -0.1241
     75  CA        -1.4430  -30.3380  -11.2000 C.3    69  HIS69       0.1621
     76  C         -0.2790  -30.4090  -10.2830 C.2    69  HIS69       0.2264
     77  O          0.3970  -29.3780  -10.0690 O.2    69  HIS69      -0.2867
     78  CB        -2.6780  -29.8900  -10.4360 C.3    69  HIS69       0.0745
     79  CG        -3.8470  -29.6580  -11.3300 C.ar   69  HIS69       0.0817
     80  ND1       -5.1490  -29.8820  -10.9400 N.ar   69  HIS69      -0.2268
     81  CD2       -3.8980  -29.2690  -12.6230 C.ar   69  HIS69       0.1154
     82  CE1       -5.9520  -29.6240  -11.9590 C.ar   69  HIS69       0.1986
     83  NE2       -5.2170  -29.2500  -12.9900 N.ar   69  HIS69      -0.2212
     84  N        -17.9110  -26.3960  -20.3560 N.3   114  GLN114     -0.1245
     85  CA       -17.5270  -27.0640  -19.1450 C.3   114  GLN114      0.1566
     86  C        -17.0480  -26.0660  -18.1360 C.2   114  GLN114      0.2260
     87  O        -17.4340  -26.1380  -16.9580 O.2   114  GLN114     -0.2867
     88  CB       -16.4610  -28.1150  -19.3900 C.3   114  GLN114      0.0367
     89  CG       -15.9000  -28.7860  -18.1370 C.3   114  GLN114      0.0905
     90  CD       -16.9030  -29.6580  -17.3530 C.2   114  GLN114      0.2608
     91  OE1      -18.0130  -29.9560  -17.7930 O.2   114  GLN114     -0.2717
     92  NE2      -16.4800  -30.0950  -16.2240 N.am  114  GLN114     -0.0878
     93  N        -13.5360  -27.8910  -34.1510 N.3   141  LYS141     -0.1245
     94  CA       -12.7830  -29.1480  -34.2190 C.3   141  LYS141      0.1561
     95  C        -13.5900  -30.3830  -34.6090 C.2   141  LYS141      0.2260
     96  O        -13.1650  -31.1730  -35.4620 O.2   141  LYS141     -0.2867
     97  CB       -12.0570  -29.3970  -32.9150 C.3   141  LYS141      0.0271
     98  CG       -10.8930  -30.3580  -33.0870 C.3   141  LYS141      0.0035
     99  CD       -10.6690  -31.1460  -31.8090 C.3   141  LYS141      0.0206
    100  CE       -10.4000  -30.2480  -30.6070 C.3   141  LYS141      0.1093
    101  NZ        -9.1030  -29.5450  -30.7230 N.3   141  LYS141     -0.1314
    102  N         -0.8080  -28.7100  -30.9750 N.3   157  LYS157     -0.1245
    103  CA        -1.3150  -29.2040  -29.7000 C.3   157  LYS157      0.1561
    104  C         -0.4820  -28.7910  -28.4760 C.2   157  LYS157      0.2260
    105  O         -0.9560  -27.9980  -27.6930 O.2   157  LYS157     -0.2867
    106  CB        -1.5100  -30.7180  -29.7540 C.3   157  LYS157      0.0271
    107  CG        -2.9650  -31.1270  -29.8920 C.3   157  LYS157      0.0035
    108  CD        -3.0910  -32.6350  -30.0430 C.3   157  LYS157      0.0206
    109  CE        -2.9450  -33.3720  -28.7230 C.3   157  LYS157      0.1093
    110  NZ        -4.2510  -33.4520  -28.0120 N.3   157  LYS157     -0.1314
    111  N          0.1480  -28.4590  -21.4310 N.3   160  ALA160     -0.1245
    112  CA        -0.7410  -27.6560  -20.5670 C.3   160  ALA160      0.1562
    113  C          0.0780  -26.6340  -19.7480 C.2   160  ALA160      0.2260
    114  O          0.3420  -25.5310  -20.2350 O.2   160  ALA160     -0.2867
    115  CB        -1.6290  -28.5400  -19.6790 C.3   160  ALA160      0.0290
    116  N         -2.7800  -22.5720  -22.3040 N.3   166  ALA166     -0.1245
    117  CA        -3.9300  -23.2660  -22.8230 C.3   166  ALA166      0.1562
    118  C         -4.8160  -22.2990  -23.6830 C.2   166  ALA166      0.2260
    119  O         -5.2260  -22.6710  -24.7640 O.2   166  ALA166     -0.2867
    120  CB        -4.7090  -23.9000  -21.6980 C.3   166  ALA166      0.0290
@<TRIPOS>BOND
     1    96    95    2
     2    95    94    1
     3    94    93    1
     4    94    97    1
     5    98    97    1
     6    98    99    1
     7    99   100    1
     8   102   103    1
     9   101   100    1
    10   108   107    1
    11   108   109    1
    12   107   106    1
    13   106   103    1
    14   103   104    1
    15   109   110    1
    16   104   105    2
    17   119   118    2
    18   118   117    1
    19   117   116    1
    20   117   120    1
    21   111   112    1
    22   112   113    1
    23   112   115    1
    24    84    85    1
    25   114   113    2
    26     5     6    1
    27     5     2    1
    28     7     6   ar
    29     6     8   ar
    30     1     2    1
    31    88    85    1
    32    88    89    1
    33     2     3    1
    34    85    86    1
    35    89    90    1
    36    86    87    2
    37    91    90    2
    38     3     9   am
    39     3     4    2
    40    90    92   am
    41    65    63   ar
    42    65    67   ar
    43     9    10    1
    44    62    63   ar
    45    62    60   ar
    46    25    23   ar
    47    44    43    1
    48    63    61   ar
    49    67    66   ar
    50    12    11    2
    51    60    59   ar
    52    23    24   ar
    53    23    22    1
    54    10    11    1
    55    10    13    1
    56    43    45    1
    57    43    42    1
    58    11    17   am
    59    13    14    1
    60    33    32    1
    61    61    59   ar
    62    61    64   ar
    63    14    16    1
    64    14    15    1
    65    66    64   ar
    66    59    58    1
    67    22    21    1
    68    42    39    1
    69    32    31    1
    70    17    18    1
    71    41    40    2
    72    18    21    1
    73    18    19    1
    74    39    40    1
    75    39    38    1
    76    58    55    1
    77    83    81   ar
    78    83    82   ar
    79    31    30    1
    80    55    56    1
    81    55    54    1
    82    38    36   am
    83    19    26   am
    84    19    20    2
    85    81    79   ar
    86    57    56    2
    87    26    27    1
    88    37    36    2
    89    56    68   am
    90    36    35    1
    91    82    80   ar
    92    74    75    1
    93    30    27    1
    94    79    80   ar
    95    79    78    1
    96    27    28    1
    97    53    51   am
    98    68    69    1
    99    75    78    1
   100    75    76    1
   101    73    72    1
   102    35    34    1
   103    29    28    2
   104    69    72    1
   105    69    70    1
   106    52    51    2
   107    51    50    1
   108    76    77    2
   109    71    70    2
   110    50    47    1
   111    48    49    2
   112    48    47    1
   113    47    46    1
