@<TRIPOS>MOLECULE
tmp/6a4fB01.pdb
 78 71 0 0 0
SMALL
GASTEIGER

@<TRIPOS>ATOM
      1  N         33.1640   29.8640  -28.4740 N.3    14  ASP14      -0.1225
      2  CA        33.6550   28.7110  -27.7110 C.3    14  ASP14       0.1805
      3  C         34.5150   29.1690  -26.5270 C.2    14  ASP14       0.2597
      4  O         35.1690   30.2340  -26.5700 O.2    14  ASP14      -0.2718
      5  CB        34.5230   27.7900  -28.5600 C.3    14  ASP14       0.1424
      6  CG        34.7970   26.4510  -27.8760 C.2    14  ASP14       0.3668
      7  OD1       33.8210   25.8900  -27.3420 O.co2  14  ASP14      -0.2456
      8  OD2       35.9600   25.9530  -27.8470 O.co2  14  ASP14      -0.2456
      9  N         34.5120   28.3440  -25.4800 N.am   15  LEU15      -0.1979
     10  CA        35.4620   28.4470  -24.3820 C.3    15  LEU15       0.1596
     11  C         36.2030   27.1540  -24.2690 C.2    15  LEU15       0.2287
     12  O         35.6750   26.0990  -24.6220 O.2    15  LEU15      -0.2864
     13  CB        34.7620   28.6780  -23.0560 C.3    15  LEU15       0.0297
     14  CG        33.6700   29.7350  -23.0220 C.3    15  LEU15       0.0022
     15  CD1       33.0500   29.7320  -21.6520 C.3    15  LEU15       0.0001
     16  CD2       34.1810   31.1250  -23.3710 C.3    15  LEU15       0.0001
     17  N         38.2380   25.3170  -20.8410 N.3    17  MET17      -0.1245
     18  CA        38.1370   25.3700  -19.3750 C.3    17  MET17       0.1570
     19  C         39.1080   24.3780  -18.7310 C.2    17  MET17       0.2261
     20  O         39.7700   23.6090  -19.4330 O.2    17  MET17      -0.2867
     21  CB        36.7140   25.0620  -18.9210 C.3    17  MET17       0.0387
     22  CG        35.6170   25.9470  -19.5120 C.3    17  MET17       0.0595
     23  SD        35.0670   25.3720  -21.1430 S.3    17  MET17      -0.1393
     24  CE        33.2700   25.5720  -21.0120 C.3    17  MET17       0.0692
     25  N         34.5460   20.4150  -16.4640 N.3    20  LEU20      -0.1245
     26  CA        33.1240   20.4250  -16.8240 C.3    20  LEU20       0.1561
     27  C         32.1760   21.1000  -15.8030 C.2    20  LEU20       0.2260
     28  O         31.0360   21.3900  -16.1510 O.2    20  LEU20      -0.2867
     29  CB        32.6570   18.9820  -17.1080 C.3    20  LEU20       0.0270
     30  CG        33.4120   18.2180  -18.2110 C.3    20  LEU20       0.0019
     31  CD1       33.0690   16.7270  -18.2260 C.3    20  LEU20       0.0001
     32  CD2       33.1690   18.8540  -19.5810 C.3    20  LEU20       0.0001
     33  N         28.4350   24.9620  -30.4870 N.3   109  ASN109     -0.1225
     34  CA        28.1420   23.5440  -30.2800 C.3   109  ASN109      0.1785
     35  C         28.0840   23.3300  -28.7820 C.2   109  ASN109      0.2597
     36  O         29.0570   23.6210  -28.0890 O.2   109  ASN109     -0.2718
     37  CB        29.2910   22.6590  -30.8100 C.3   109  ASN109      0.1169
     38  CG        29.1790   22.3470  -32.2830 C.2   109  ASN109      0.2627
     39  OD1       29.6590   23.1140  -33.1230 O.2   109  ASN109     -0.2716
     40  ND2       28.5040   21.2180  -32.6130 N.am  109  ASN109     -0.0877
     41  N         26.9760   22.7910  -28.2670 N.am  110  SER110     -0.1952
     42  CA        26.7650   22.6210  -26.8290 C.3   110  SER110      0.1924
     43  C         27.0390   23.9230  -26.0430 C.2   110  SER110      0.2314
     44  O         27.6250   23.9920  -24.9740 O.2   110  SER110     -0.2863
     45  CB        27.6380   21.4590  -26.3390 C.3   110  SER110      0.2116
     46  OG        27.0550   20.2450  -26.7320 O.3   110  SER110     -0.2180
     47  N         26.6030   24.5850  -22.1250 N.3   113  GLN113     -0.1231
     48  CA        27.7310   24.3070  -21.2510 C.3   113  GLN113      0.1698
     49  C         28.5680   25.5910  -21.1140 C.2   113  GLN113      0.2592
     50  O         28.7570   26.0700  -20.0020 O.2   113  GLN113     -0.2718
     51  CB        28.5250   23.1150  -21.8170 C.3   113  GLN113      0.0381
     52  CG        29.7130   22.6000  -20.9940 C.3   113  GLN113      0.0905
     53  CD        29.3010   22.0570  -19.6210 C.2   113  GLN113      0.2608
     54  OE1       28.1090   21.8730  -19.3190 O.2   113  GLN113     -0.2717
     55  NE2       30.2890   21.8200  -18.7750 N.am  113  GLN113     -0.0878
     56  N         28.9660   26.2000  -22.2410 N.am  114  ASP114     -0.1974
     57  CA        29.6840   27.4890  -22.2360 C.3   114  ASP114      0.1709
     58  C         28.9260   28.6050  -21.5850 C.2   114  ASP114      0.2293
     59  O         29.5180   29.4500  -20.9190 O.2   114  ASP114     -0.2864
     60  CB        30.0450   28.0000  -23.6530 C.3   114  ASP114      0.1436
     61  CG        30.9350   27.0320  -24.4410 C.2   114  ASP114      0.3671
     62  OD1       32.1040   26.8520  -24.1060 O.co2 114  ASP114     -0.2456
     63  OD2       30.4510   26.4550  -25.4280 O.co2 114  ASP114     -0.2456
     64  N         24.7680   21.5500  -31.9880 N.3   137  SER137     -0.1217
     65  CA        24.6920   20.1340  -31.6070 C.3   137  SER137      0.1889
     66  C         23.2510   19.5660  -31.4970 C.2   137  SER137      0.2288
     67  O         23.0630   18.3600  -31.6500 O.2   137  SER137     -0.2866
     68  CB        25.4710   19.9170  -30.3230 C.3   137  SER137      0.2089
     69  OG        26.8450   20.1070  -30.5650 O.3   137  SER137     -0.2183
     70  N         22.8370   18.4190  -35.0440 N.3   140  LYS140     -0.1245
     71  CA        23.6220   17.1940  -35.1920 C.3   140  LYS140      0.1561
     72  C         22.8410   15.9880  -34.7160 C.2   140  LYS140      0.2260
     73  O         22.7960   15.0220  -35.4120 O.2   140  LYS140     -0.2867
     74  CB        24.9470   17.2700  -34.4320 C.3   140  LYS140      0.0271
     75  CG        25.8370   16.0150  -34.6540 C.3   140  LYS140      0.0035
     76  CD        27.0300   15.9470  -33.7170 C.3   140  LYS140      0.0206
     77  CE        27.7910   17.2480  -33.4240 C.3   140  LYS140      0.1093
     78  NZ        28.9940   17.4790  -34.2440 N.3   140  LYS140     -0.1314
@<TRIPOS>BOND
     1    73    72    2
     2    71    70    1
     3    71    72    1
     4    71    74    1
     5    75    74    1
     6    75    76    1
     7    78    77    1
     8    76    77    1
     9    39    38    2
    10    40    38   am
    11    38    37    1
    12    64    65    1
    13    67    66    2
    14    65    66    1
    15    65    68    1
    16    37    34    1
    17    69    68    1
    18    33    34    1
    19    34    35    1
    20    35    41   am
    21    35    36    2
    22     5     6    1
    23     5     2    1
    24     1     2    1
    25    41    42    1
    26     6     8   ar
    27     6     7   ar
    28     2     3    1
    29    42    45    1
    30    42    43    1
    31    46    45    1
    32     4     3    2
    33     3     9   am
    34    43    44    2
    35     9    10    1
    36    63    61   ar
    37    12    11    2
    38    61    62   ar
    39    61    60    1
    40    10    11    1
    41    10    13    1
    42    60    57    1
    43    16    14    1
    44    13    14    1
    45    14    15    1
    46    56    57    1
    47    56    49   am
    48    57    58    1
    49    47    48    1
    50    51    48    1
    51    51    52    1
    52    58    59    2
    53    48    49    1
    54    23    24    1
    55    23    22    1
    56    49    50    2
    57    52    53    1
    58    17    18    1
    59    53    54    2
    60    53    55   am
    61    32    30    1
    62    22    21    1
    63    20    19    2
    64    18    21    1
    65    18    19    1
    66    31    30    1
    67    30    29    1
    68    29    26    1
    69    26    25    1
    70    26    27    1
    71    28    27    2
