@<TRIPOS>MOLECULE
tmp/6a4fB00.pdb
 118 114 0 0 0
SMALL
GASTEIGER

@<TRIPOS>ATOM
      1  N         33.1640   29.8640  -28.4740 N.3    14  ASP14      -0.1225
      2  CA        33.6550   28.7110  -27.7110 C.3    14  ASP14       0.1805
      3  C         34.5150   29.1690  -26.5270 C.2    14  ASP14       0.2598
      4  O         35.1690   30.2340  -26.5700 O.2    14  ASP14      -0.2718
      5  CB        34.5230   27.7900  -28.5600 C.3    14  ASP14       0.1424
      6  CG        34.7970   26.4510  -27.8760 C.2    14  ASP14       0.3668
      7  OD1       33.8210   25.8900  -27.3420 O.co2  14  ASP14      -0.2456
      8  OD2       35.9600   25.9530  -27.8470 O.co2  14  ASP14      -0.2456
      9  N         34.5120   28.3440  -25.4800 N.am   15  LEU15      -0.1966
     10  CA        35.4620   28.4470  -24.3820 C.3    15  LEU15       0.1728
     11  C         36.2030   27.1540  -24.2690 C.2    15  LEU15       0.2616
     12  O         35.6750   26.0990  -24.6220 O.2    15  LEU15      -0.2715
     13  CB        34.7620   28.6780  -23.0560 C.3    15  LEU15       0.0311
     14  CG        33.6700   29.7350  -23.0220 C.3    15  LEU15       0.0022
     15  CD1       33.0500   29.7320  -21.6520 C.3    15  LEU15       0.0001
     16  CD2       34.1810   31.1250  -23.3710 C.3    15  LEU15       0.0001
     17  N         37.4420   27.2480  -23.7710 N.am   16  GLU16      -0.1963
     18  CA        38.0980   26.1130  -23.1150 C.3    16  GLU16       0.1733
     19  C         38.1260   26.3990  -21.5990 C.2    16  GLU16       0.2616
     20  O         37.9500   27.5640  -21.1140 O.2    16  GLU16      -0.2715
     21  CB        39.5040   25.8300  -23.6960 C.3    16  GLU16       0.0429
     22  CG        39.5440   25.6260  -25.2120 C.3    16  GLU16       0.1163
     23  CD        38.7040   24.4460  -25.7220 C.2    16  GLU16       0.3649
     24  OE1       38.5470   23.4200  -25.0130 O.co2  16  GLU16      -0.2457
     25  OE2       38.2020   24.5370  -26.8600 O.co2  16  GLU16      -0.2457
     26  N         38.2380   25.3170  -20.8410 N.am   17  MET17      -0.1977
     27  CA        38.1370   25.3700  -19.3750 C.3    17  MET17       0.1605
     28  C         39.1080   24.3780  -18.7310 C.2    17  MET17       0.2287
     29  O         39.7700   23.6090  -19.4330 O.2    17  MET17      -0.2864
     30  CB        36.7140   25.0620  -18.9210 C.3    17  MET17       0.0413
     31  CG        35.6170   25.9470  -19.5120 C.3    17  MET17       0.0598
     32  SD        35.0670   25.3720  -21.1430 S.3    17  MET17      -0.1393
     33  CE        33.2700   25.5720  -21.0120 C.3    17  MET17       0.0692
     34  N         37.8190   22.1540  -16.6810 N.3    19  GLY19      -0.1210
     35  CA        36.8940   21.0130  -16.5760 C.3    19  GLY19       0.1956
     36  C         35.4110   21.3570  -16.8390 C.2    19  GLY19       0.2611
     37  O         35.0590   22.4500  -17.3480 O.2    19  GLY19      -0.2717
     38  N         34.5460   20.4150  -16.4640 N.am   20  LEU20      -0.1979
     39  CA        33.1240   20.4250  -16.8240 C.3    20  LEU20       0.1596
     40  C         32.1760   21.1000  -15.8030 C.2    20  LEU20       0.2287
     41  O         31.0360   21.3900  -16.1510 O.2    20  LEU20      -0.2864
     42  CB        32.6570   18.9820  -17.1080 C.3    20  LEU20       0.0297
     43  CG        33.4120   18.2180  -18.2110 C.3    20  LEU20       0.0022
     44  CD1       33.0690   16.7270  -18.2260 C.3    20  LEU20       0.0001
     45  CD2       33.1690   18.8540  -19.5810 C.3    20  LEU20       0.0001
     46  N         41.4720   18.2350  -14.8000 N.3    61  ASN61      -0.1240
     47  CA        41.2030   16.7920  -14.9850 C.3    61  ASN61       0.1653
     48  C         42.2620   16.1260  -15.9250 C.2    61  ASN61       0.2266
     49  O         42.9870   16.8460  -16.6300 O.2    61  ASN61      -0.2867
     50  CB        39.7140   16.5110  -15.3810 C.3    61  ASN61       0.1155
     51  CG        39.3220   17.0130  -16.7750 C.2    61  ASN61       0.2627
     52  OD1       40.0940   16.9490  -17.7310 O.2    61  ASN61      -0.2716
     53  ND2       38.0800   17.4740  -16.8940 N.am   61  ASN61      -0.0877
     54  N         41.9820   14.4400  -18.7120 N.3    63  TRP63      -0.1227
     55  CA        41.7110   14.8580  -20.0770 C.3    63  TRP63       0.1737
     56  C         42.3430   16.2460  -20.3250 C.2    63  TRP63       0.2595
     57  O         43.0720   16.4200  -21.3060 O.2    63  TRP63      -0.2718
     58  CB        40.2000   14.8940  -20.3610 C.3    63  TRP63       0.0564
     59  CG        39.8920   15.1480  -21.8000 C.ar   63  TRP63       0.0003
     60  CD1       39.6310   14.2080  -22.7430 C.ar   63  TRP63       0.0946
     61  CD2       39.8450   16.4230  -22.4780 C.ar   63  TRP63       0.0152
     62  NE1       39.4190   14.8060  -23.9610 N.ar   63  TRP63      -0.2442
     63  CE2       39.5470   16.1640  -23.8280 C.ar   63  TRP63       0.0810
     64  CE3       40.0270   17.7560  -22.0720 C.ar   63  TRP63       0.0012
     65  CZ2       39.4140   17.1890  -24.7840 C.ar   63  TRP63       0.0191
     66  CZ3       39.9110   18.7770  -23.0260 C.ar   63  TRP63       0.0001
     67  CH2       39.6010   18.4840  -24.3620 C.ar   63  TRP63       0.0015
     68  N         42.0610   17.2060  -19.4330 N.am   64  CYS64      -0.1970
     69  CA        42.4710   18.6160  -19.6120 C.3    64  CYS64       0.1712
     70  C         43.9900   18.9030  -19.6890 C.2    64  CYS64       0.2296
     71  O         44.4270   19.5650  -20.6330 O.2    64  CYS64      -0.2864
     72  CB        41.8010   19.5250  -18.5680 C.3    64  CYS64       0.0983
     73  SG        40.1410   20.0800  -19.0430 S.3    64  CYS64      -0.0798
     74  N         45.2300   20.1030  -23.3200 N.3    68  HIS68      -0.1241
     75  CA        45.6800   21.5070  -23.2720 C.3    68  HIS68       0.1621
     76  C         47.2280   21.6170  -23.1520 C.2    68  HIS68       0.2264
     77  O         47.8150   22.6530  -23.4900 O.2    68  HIS68      -0.2867
     78  CB        44.9600   22.2690  -22.1570 C.3    68  HIS68       0.0745
     79  CG        43.4640   22.1860  -22.2390 C.ar   68  HIS68       0.0817
     80  ND1       42.7790   22.2580  -23.4350 N.ar   68  HIS68      -0.2268
     81  CD2       42.5220   22.0580  -21.2740 C.ar   68  HIS68       0.1154
     82  CE1       41.4820   22.1790  -23.2030 C.ar   68  HIS68       0.1986
     83  NE2       41.2990   22.0520  -21.9000 N.ar   68  HIS68      -0.2212
     84  N         26.6030   24.5850  -22.1250 N.3   113  GLN113     -0.1231
     85  CA        27.7310   24.3070  -21.2510 C.3   113  GLN113      0.1698
     86  C         28.5680   25.5910  -21.1140 C.2   113  GLN113      0.2592
     87  O         28.7570   26.0700  -20.0020 O.2   113  GLN113     -0.2718
     88  CB        28.5250   23.1150  -21.8170 C.3   113  GLN113      0.0381
     89  CG        29.7130   22.6000  -20.9940 C.3   113  GLN113      0.0905
     90  CD        29.3010   22.0570  -19.6210 C.2   113  GLN113      0.2608
     91  OE1       28.1090   21.8730  -19.3190 O.2   113  GLN113     -0.2717
     92  NE2       30.2890   21.8200  -18.7750 N.am  113  GLN113     -0.0878
     93  N         28.9660   26.2000  -22.2410 N.am  114  ASP114     -0.1974
     94  CA        29.6840   27.4890  -22.2360 C.3   114  ASP114      0.1709
     95  C         28.9260   28.6050  -21.5850 C.2   114  ASP114      0.2293
     96  O         29.5180   29.4500  -20.9190 O.2   114  ASP114     -0.2864
     97  CB        30.0450   28.0000  -23.6530 C.3   114  ASP114      0.1436
     98  CG        30.9350   27.0320  -24.4410 C.2   114  ASP114      0.3671
     99  OD1       32.1040   26.8520  -24.1060 O.co2 114  ASP114     -0.2456
    100  OD2       30.4510   26.4550  -25.4280 O.co2 114  ASP114     -0.2456
    101  N         41.6210   21.3720  -30.2730 N.3   160  HIS160     -0.1241
    102  CA        40.7850   21.8060  -29.1510 C.3   160  HIS160      0.1621
    103  C         41.2700   23.1680  -28.6860 C.2   160  HIS160      0.2264
    104  O         41.8960   23.2870  -27.6320 O.2   160  HIS160     -0.2867
    105  CB        40.8200   20.8070  -27.9730 C.3   160  HIS160      0.0745
    106  CG        40.1090   19.5110  -28.2350 C.ar  160  HIS160      0.0817
    107  ND1       38.7330   19.4020  -28.2450 N.ar  160  HIS160     -0.2268
    108  CD2       40.5850   18.2610  -28.4580 C.ar  160  HIS160      0.1154
    109  CE1       38.3940   18.1460  -28.4860 C.ar  160  HIS160      0.1986
    110  NE2       39.4980   17.4340  -28.6170 N.ar  160  HIS160     -0.2212
    111  N         37.6810   25.7040  -32.9530 N.3   165  ASP165     -0.1239
    112  CA        36.3940   25.1160  -32.5510 C.3   165  ASP165      0.1674
    113  C         35.2280   25.9350  -33.0960 C.2   165  ASP165      0.2266
    114  O         34.3960   25.4060  -33.8000 O.2   165  ASP165     -0.2867
    115  CB        36.2820   24.9260  -31.0190 C.3   165  ASP165      0.1410
    116  CG        37.1000   23.7300  -30.4850 C.2   165  ASP165      0.3668
    117  OD1       37.8220   23.0730  -31.2650 O.co2 165  ASP165     -0.2456
    118  OD2       37.0450   23.4630  -29.2580 O.co2 165  ASP165     -0.2456
@<TRIPOS>BOND
     1   114   113    2
     2   113   112    1
     3   111   112    1
     4   112   115    1
     5   117   116   ar
     6   115   116    1
     7   116   118   ar
     8   101   102    1
     9   102   103    1
    10   102   105    1
    11   103   104    2
    12   110   109   ar
    13   110   108   ar
    14     5     6    1
    15     5     2    1
    16   109   107   ar
    17     1     2    1
    18   108   106   ar
    19   107   106   ar
    20   106   105    1
    21     6     8   ar
    22     6     7   ar
    23     2     3    1
    24    25    23   ar
    25     4     3    2
    26     3     9   am
    27    23    22    1
    28    23    24   ar
    29     9    10    1
    30   100    98   ar
    31    22    21    1
    32    65    67   ar
    33    65    63   ar
    34    12    11    2
    35    98    99   ar
    36    98    97    1
    37    10    11    1
    38    10    13    1
    39    67    66   ar
    40    11    17   am
    41    62    63   ar
    42    62    60   ar
    43    63    61   ar
    44    17    18    1
    45    21    18    1
    46    97    94    1
    47    77    76    2
    48    80    82   ar
    49    80    79   ar
    50    16    14    1
    51    74    75    1
    52    75    76    1
    53    75    78    1
    54    82    83   ar
    55    18    19    1
    56    13    14    1
    57    66    64   ar
    58    14    15    1
    59    60    59   ar
    60    61    64   ar
    61    61    59   ar
    62    93    94    1
    63    93    86   am
    64    79    78    1
    65    79    81   ar
    66    94    95    1
    67    84    85    1
    68    83    81   ar
    69    88    85    1
    70    88    89    1
    71    59    58    1
    72    19    20    2
    73    19    26   am
    74    95    96    2
    75    57    56    2
    76    85    86    1
    77    32    33    1
    78    32    31    1
    79    86    87    2
    80    89    90    1
    81    26    27    1
    82    71    70    2
    83    58    55    1
    84    56    55    1
    85    56    68   am
    86    55    54    1
    87    70    69    1
    88    90    91    2
    89    90    92   am
    90    69    68    1
    91    69    72    1
    92    45    43    1
    93    31    30    1
    94    29    28    2
    95    27    30    1
    96    27    28    1
    97    73    72    1
    98    44    43    1
    99    43    42    1
   100    52    51    2
   101    37    36    2
   102    42    39    1
   103    53    51   am
   104    36    35    1
   105    36    38   am
   106    39    38    1
   107    39    40    1
   108    51    50    1
   109    34    35    1
   110    49    48    2
   111    41    40    2
   112    48    47    1
   113    50    47    1
   114    47    46    1
