@<TRIPOS>MOLECULE
tmp/6a4iD00.pdb
 255 249 0 0 0
SMALL
GASTEIGER

@<TRIPOS>ATOM
      1  N         54.4250  125.0820   11.4190 N.3    33  PHE33      -0.1241
      2  CA        54.3730  124.2180   12.5920 C.3    33  PHE33       0.1605
      3  C         54.4330  125.0440   13.8660 C.2    33  PHE33       0.2264
      4  O         53.6660  124.7650   14.7830 O.2    33  PHE33      -0.2867
      5  CB        55.5030  123.2010   12.5770 C.3    33  PHE33       0.0534
      6  CG        55.3970  122.1420   13.6650 C.ar   33  PHE33      -0.0203
      7  CD1       54.5020  121.0600   13.5360 C.ar   33  PHE33      -0.0042
      8  CD2       56.2690  122.1740   14.7900 C.ar   33  PHE33      -0.0042
      9  CE1       54.4850  120.0370   14.4940 C.ar   33  PHE33      -0.0003
     10  CE2       56.1930  121.1650   15.7530 C.ar   33  PHE33      -0.0003
     11  CZ        55.3130  120.0980   15.5990 C.ar   33  PHE33      -0.0000
     12  N         51.0470  127.4990   14.0670 N.3    36  THR36      -0.1203
     13  CA        49.8920  126.7170   14.4720 C.3    36  THR36       0.1994
     14  C         49.9570  126.4970   16.0150 C.2    36  THR36       0.2617
     15  O         49.0510  126.9550   16.7700 O.2    36  THR36      -0.2717
     16  CB        49.8250  125.3960   13.7190 C.3    36  THR36       0.1784
     17  OG1       50.0350  125.6410   12.3210 O.3    36  THR36      -0.2211
     18  CG2       48.4980  124.7690   13.8990 C.3    36  THR36       0.0376
     19  N         51.0470  125.8820   16.4710 N.am   37  HIS37      -0.1975
     20  CA        51.2880  125.6470   17.8890 C.3    37  HIS37       0.1656
     21  C         51.0530  126.9170   18.7130 C.2    37  HIS37       0.2291
     22  O         50.2440  126.8740   19.6510 O.2    37  HIS37      -0.2864
     23  CB        52.6540  124.9720   18.1230 C.3    37  HIS37       0.0771
     24  CG        52.5950  123.4950   17.9330 C.ar   37  HIS37       0.0820
     25  ND1       52.6970  122.8850   16.6570 N.ar   37  HIS37      -0.2267
     26  CD2       52.3360  122.5020   18.8220 C.ar   37  HIS37       0.1154
     27  CE1       52.5700  121.5730   16.7870 C.ar   37  HIS37       0.1986
     28  NE2       52.3850  121.3090   18.0940 N.ar   37  HIS37      -0.2212
     29  N         47.2940  127.7770   18.8870 N.3    40  TYR40      -0.1227
     30  CA        46.6040  126.8980   19.8220 C.3    40  TYR40       0.1736
     31  C         46.8960  127.3520   21.2750 C.2    40  TYR40       0.2595
     32  O         46.0020  127.4400   22.0990 O.2    40  TYR40      -0.2718
     33  CB        46.9990  125.4300   19.6050 C.3    40  TYR40       0.0548
     34  CG        46.1970  124.6660   18.5190 C.ar   40  TYR40      -0.0200
     35  CD1       46.6660  124.5480   17.2060 C.ar   40  TYR40      -0.0009
     36  CD2       44.9990  124.0440   18.8140 C.ar   40  TYR40      -0.0009
     37  CE1       45.9560  123.8660   16.2330 C.ar   40  TYR40       0.0417
     38  CE2       44.2840  123.3510   17.8540 C.ar   40  TYR40       0.0417
     39  CZ        44.7680  123.2710   16.5610 C.ar   40  TYR40       0.1957
     40  OH        44.0530  122.5820   15.5890 O.3    40  TYR40      -0.2866
     41  N         48.1450  127.6710   21.5780 N.am   41  GLU41      -0.1979
     42  CA        48.5380  128.0690   22.9060 C.3    41  GLU41       0.1602
     43  C         47.8970  129.3870   23.3190 C.2    41  GLU41       0.2287
     44  O         47.5940  129.5880   24.4970 O.2    41  GLU41      -0.2864
     45  CB        50.0710  128.1530   23.0430 C.3    41  GLU41       0.0415
     46  CG        50.8060  126.8240   22.9180 C.3    41  GLU41       0.1163
     47  CD        50.5620  125.8340   24.0520 C.2    41  GLU41       0.3649
     48  OE1       50.2070  126.2750   25.1710 O.co2  41  GLU41      -0.2457
     49  OE2       50.7470  124.6060   23.8300 O.co2  41  GLU41      -0.2457
     50  N         44.2640  128.2580   24.1040 N.3    44  PHE44      -0.1241
     51  CA        44.4100  127.5410   25.3690 C.3    44  PHE44       0.1605
     52  C         44.4520  128.5230   26.5210 C.2    44  PHE44       0.2264
     53  O         43.6710  128.3780   27.4830 O.2    44  PHE44      -0.2867
     54  CB        45.6570  126.6750   25.4080 C.3    44  PHE44       0.0534
     55  CG        45.5750  125.4210   24.5680 C.ar   44  PHE44      -0.0203
     56  CD1       44.3760  125.0170   23.9530 C.ar   44  PHE44      -0.0042
     57  CD2       46.7110  124.6080   24.4160 C.ar   44  PHE44      -0.0042
     58  CE1       44.3080  123.8480   23.1780 C.ar   44  PHE44      -0.0003
     59  CE2       46.6540  123.4230   23.6690 C.ar   44  PHE44      -0.0003
     60  CZ        45.4550  123.0430   23.0370 C.ar   44  PHE44      -0.0000
     61  N         42.7520  122.5680   12.3200 N.3    90  PHE90      -0.1241
     62  CA        43.7220  121.5370   11.8990 C.3    90  PHE90       0.1605
     63  C         43.8110  121.5750   10.3960 C.2    90  PHE90       0.2264
     64  O         44.8080  121.2830    9.8190 O.2    90  PHE90      -0.2867
     65  CB        43.3360  120.1390   12.3650 C.3    90  PHE90       0.0534
     66  CG        43.7360  119.8070   13.7940 C.ar   90  PHE90      -0.0203
     67  CD1       45.0810  119.6360   14.1500 C.ar   90  PHE90      -0.0042
     68  CD2       42.7700  119.6150   14.7870 C.ar   90  PHE90      -0.0042
     69  CE1       45.4580  119.3000   15.4540 C.ar   90  PHE90      -0.0003
     70  CE2       43.1520  119.2760   16.0940 C.ar   90  PHE90      -0.0003
     71  CZ        44.4970  119.1070   16.4130 C.ar   90  PHE90      -0.0000
     72  N         47.0930  122.8840    9.0130 N.3    93  LEU93      -0.1245
     73  CA        48.2910  122.1030    9.1230 C.3    93  LEU93       0.1561
     74  C         48.2080  120.8310    8.2670 C.2    93  LEU93       0.2260
     75  O         49.2510  120.1740    8.0310 O.2    93  LEU93      -0.2867
     76  CB        48.5640  121.8130   10.6090 C.3    93  LEU93       0.0270
     77  CG        49.9980  121.5570   11.0760 C.3    93  LEU93       0.0019
     78  CD1       50.8150  122.8380   10.9940 C.3    93  LEU93       0.0001
     79  CD2       49.9950  120.9740   12.4980 C.3    93  LEU93       0.0001
     80  N         50.2700  120.9940    5.0210 N.3    96  MET96      -0.1245
     81  CA        51.6710  120.5470    5.0240 C.3    96  MET96       0.1570
     82  C         51.6330  119.0500    4.8670 C.2    96  MET96       0.2261
     83  O         50.8430  118.3880    5.5350 O.2    96  MET96      -0.2867
     84  CB        52.4270  120.9650    6.3110 C.3    96  MET96       0.0387
     85  CG        53.6160  120.0960    6.7630 C.3    96  MET96       0.0595
     86  SD        54.4070  120.7760    8.2390 S.3    96  MET96      -0.1393
     87  CE        53.2390  120.2140    9.4630 C.3    96  MET96       0.0692
     88  N         57.2680  117.6800    6.1690 N.3   101  PHE101     -0.1241
     89  CA        57.4260  117.5470    7.6000 C.3   101  PHE101      0.1605
     90  C         58.7200  116.8130    7.8920 C.2   101  PHE101      0.2264
     91  O         59.5950  117.3670    8.5560 O.2   101  PHE101     -0.2867
     92  CB        56.2340  116.8920    8.2840 C.3   101  PHE101      0.0534
     93  CG        56.3240  116.8890    9.7830 C.ar  101  PHE101     -0.0203
     94  CD1       56.2200  118.1190   10.5080 C.ar  101  PHE101     -0.0042
     95  CD2       56.5670  115.6700   10.4870 C.ar  101  PHE101     -0.0042
     96  CE1       56.2780  118.1290   11.9040 C.ar  101  PHE101     -0.0003
     97  CE2       56.5860  115.6740   11.8910 C.ar  101  PHE101     -0.0003
     98  CZ        56.4510  116.8990   12.5910 C.ar  101  PHE101     -0.0000
     99  N         61.5080  117.8160   21.8470 N.3   111  ALA111     -0.1231
    100  CA        60.3090  118.5770   22.2630 C.3   111  ALA111      0.1694
    101  C         59.1570  117.6040   22.1870 C.2   111  ALA111      0.2593
    102  O         59.2200  116.6260   21.4260 O.2   111  ALA111     -0.2718
    103  CB        60.0600  119.8050   21.3850 C.3   111  ALA111      0.0304
    104  N         58.1510  117.8190   23.0250 N.am  112  SER112     -0.1938
    105  CA        56.9730  116.9550   23.0170 C.3   112  SER112      0.2055
    106  C         55.6890  117.7350   23.3490 C.2   112  SER112      0.2644
    107  O         55.7200  118.7220   24.0970 O.2   112  SER112     -0.2714
    108  CB        57.1800  115.7690   23.9760 C.3   112  SER112      0.2130
    109  OG        56.1330  114.8160   23.8520 O.3   112  SER112     -0.2179
    110  N         54.5680  117.3120   22.7750 N.am  113  GLY113     -0.1939
    111  CA        53.2710  117.8680   23.1770 C.3   113  GLY113      0.2014
    112  C         52.8770  117.4670   24.6000 C.2   113  GLY113      0.2638
    113  O         52.1160  118.1740   25.2480 O.2   113  GLY113     -0.2714
    114  N         53.3770  116.3230   25.0790 N.am  114  PHE114     -0.1973
    115  CA        53.3990  116.0150   26.5300 C.3   114  PHE114      0.1639
    116  C         53.9970  117.1250   27.4230 C.2   114  PHE114      0.2290
    117  O         53.6500  117.2220   28.6150 O.2   114  PHE114     -0.2864
    118  CB        54.0970  114.6800   26.8330 C.3   114  PHE114      0.0560
    119  CG        53.4010  113.4620   26.2590 C.ar  114  PHE114     -0.0200
    120  CD1       51.9910  113.4140   26.1000 C.ar  114  PHE114     -0.0042
    121  CD2       54.1630  112.3270   25.9110 C.ar  114  PHE114     -0.0042
    122  CE1       51.3560  112.2910   25.5810 C.ar  114  PHE114     -0.0003
    123  CE2       53.5290  111.1950   25.3780 C.ar  114  PHE114     -0.0003
    124  CZ        52.1170  111.1790   25.1980 C.ar  114  PHE114     -0.0000
    125  N         53.3470  120.3850   27.0590 N.3   116  SER116     -0.1217
    126  CA        52.5000  121.6020   26.9910 C.3   116  SER116      0.1889
    127  C         51.7790  121.8080   28.3320 C.2   116  SER116      0.2288
    128  O         50.8150  121.0790   28.6350 O.2   116  SER116     -0.2866
    129  CB        51.4840  121.5550   25.8320 C.3   116  SER116      0.2089
    130  OG        50.6610  122.7230   25.8230 O.3   116  SER116     -0.2183
    131  N         48.0370  122.5330   28.2010 N.3   119  PHE119     -0.1241
    132  CA        47.1840  121.3880   27.9120 C.3   119  PHE119      0.1605
    133  C         46.8840  120.6470   29.2040 C.2   119  PHE119      0.2264
    134  O         45.7360  120.4010   29.5250 O.2   119  PHE119     -0.2867
    135  CB        47.7730  120.4510   26.8470 C.3   119  PHE119      0.0534
    136  CG        46.7490  119.5740   26.1910 C.ar  119  PHE119     -0.0203
    137  CD1       45.8270  120.1220   25.2710 C.ar  119  PHE119     -0.0042
    138  CD2       46.7000  118.2180   26.4710 C.ar  119  PHE119     -0.0042
    139  CE1       44.8610  119.3110   24.6470 C.ar  119  PHE119     -0.0003
    140  CE2       45.7320  117.4040   25.8910 C.ar  119  PHE119     -0.0003
    141  CZ        44.8080  117.9430   24.9770 C.ar  119  PHE119     -0.0000
    142  N         43.3560  120.3140   31.0600 N.3   123  GLU123     -0.1245
    143  CA        42.8240  119.0050   31.4210 C.3   123  GLU123      0.1567
    144  C         42.5080  118.8120   32.9450 C.2   123  GLU123      0.2260
    145  O         41.4640  118.2220   33.2920 O.2   123  GLU123     -0.2867
    146  CB        43.7630  117.9350   30.9170 C.3   123  GLU123      0.0388
    147  CG        43.6970  117.7880   29.3890 C.3   123  GLU123      0.1160
    148  CD        44.3550  116.5160   28.8710 C.2   123  GLU123      0.3649
    149  OE1       45.3390  116.0570   29.5120 O.co2 123  GLU123     -0.2457
    150  OE2       43.8860  115.9940   27.8120 O.co2 123  GLU123     -0.2457
    151  N         38.9090  117.2370   19.2470 N.3   235  TRP235     -0.1227
    152  CA        40.2750  117.7400   19.2030 C.3   235  TRP235      0.1737
    153  C         41.2740  116.6400   19.3370 C.2   235  TRP235      0.2595
    154  O         42.3140  116.6820   18.6690 O.2   235  TRP235     -0.2718
    155  CB        40.5680  118.7090   20.3240 C.3   235  TRP235      0.0564
    156  CG        41.8980  119.4020   20.1570 C.ar  235  TRP235      0.0003
    157  CD1       42.1110  120.6120   19.5610 C.ar  235  TRP235      0.0946
    158  CD2       43.2050  118.9310   20.5720 C.ar  235  TRP235      0.0152
    159  NE1       43.4460  120.9250   19.5730 N.ar  235  TRP235     -0.2442
    160  CE2       44.1430  119.9230   20.1960 C.ar  235  TRP235      0.0810
    161  CE3       43.6630  117.7810   21.2330 C.ar  235  TRP235      0.0012
    162  CZ2       45.5150  119.8070   20.4550 C.ar  235  TRP235      0.0191
    163  CZ3       45.0270  117.6580   21.4810 C.ar  235  TRP235      0.0001
    164  CH2       45.9410  118.6710   21.0880 C.ar  235  TRP235      0.0015
    165  N         41.0250  115.6690   20.2100 N.am  236  ARG236     -0.1980
    166  CA        42.0180  114.6190   20.4230 C.3   236  ARG236      0.1597
    167  C         42.0790  113.7350   19.1620 C.2   236  ARG236      0.2287
    168  O         43.1390  113.2260   18.8130 O.2   236  ARG236     -0.2864
    169  CB        41.7220  113.7850   21.6790 C.3   236  ARG236      0.0334
    170  CG        41.9990  114.4970   22.9970 C.3   236  ARG236      0.0492
    171  CD        41.7500  113.6150   24.2560 C.3   236  ARG236      0.2205
    172  NE        41.7740  114.4070   25.4950 N.pl3 236  ARG236     -0.0865
    173  CZ        40.7050  114.7120   26.2440 C.cat 236  ARG236      0.5346
    174  NH1       40.8670  115.4840   27.3100 N.pl3 236  ARG236      0.1354
    175  NH2       39.4790  114.2380   25.9680 N.pl3 236  ARG236      0.1354
    176  N         43.8300  115.6640   16.3570 N.3   239  HIS239     -0.1241
    177  CA        45.2440  115.5070   16.7170 C.3   239  HIS239      0.1621
    178  C         45.8010  114.0930   16.4100 C.2   239  HIS239      0.2264
    179  O         46.8750  114.0240   15.8870 O.2   239  HIS239     -0.2867
    180  CB        45.5810  115.9860   18.1460 C.3   239  HIS239      0.0745
    181  CG        47.0440  115.8800   18.4470 C.ar  239  HIS239      0.0817
    182  ND1       47.6110  114.7300   18.9610 N.ar  239  HIS239     -0.2268
    183  CD2       48.0760  116.7240   18.1780 C.ar  239  HIS239      0.1154
    184  CE1       48.9250  114.8830   19.0210 C.ar  239  HIS239      0.1986
    185  NE2       49.2320  116.0920   18.5780 N.ar  239  HIS239     -0.2212
    186  N         46.2150  113.7260   12.4540 N.3   242  MET242     -0.1230
    187  CA        47.4180  114.4310   12.0780 C.3   242  MET242      0.1702
    188  C         48.6040  113.5040   12.1520 C.2   242  MET242      0.2592
    189  O         49.2210  113.2190   11.1330 O.2   242  MET242     -0.2718
    190  CB        47.6520  115.5720   13.0610 C.3   242  MET242      0.0401
    191  CG        46.9330  116.8430   12.7030 C.3   242  MET242      0.0596
    192  SD        47.9760  117.8640   11.6810 S.3   242  MET242     -0.1393
    193  CE        48.4490  116.7800   10.3180 C.3   242  MET242      0.0692
    194  N         48.8860  113.0250   13.3740 N.am  243  VAL243     -0.1980
    195  CA        50.0150  112.1400   13.6870 C.3   243  VAL243      0.1595
    196  C         50.1830  111.0310   12.6590 C.2   243  VAL243      0.2287
    197  O         51.2760  110.8900   12.1520 O.2   243  VAL243     -0.2864
    198  CB        49.9290  111.5700   15.1360 C.3   243  VAL243      0.0276
    199  CG1       51.2030  110.8250   15.5280 C.3   243  VAL243      0.0022
    200  CG2       49.6760  112.7070   16.1230 C.3   243  VAL243      0.0022
    201  N         51.3090  112.1690    9.3480 N.3   246  MET246     -0.1230
    202  CA        52.7460  112.5170    9.3500 C.3   246  MET246      0.1702
    203  C         53.7530  111.3490    9.5000 C.2   246  MET246      0.2592
    204  O         54.7010  111.1780    8.6680 O.2   246  MET246     -0.2718
    205  CB        53.0410  113.5700   10.4080 C.3   246  MET246      0.0401
    206  CG        52.2040  114.8180   10.2290 C.3   246  MET246      0.0596
    207  SD        52.3070  115.3260    8.5040 S.3   246  MET246     -0.1393
    208  CE        51.9330  117.0780    8.6190 C.3   246  MET246      0.0692
    209  N         53.5350  110.5530   10.5550 N.am  247  LEU247     -0.1980
    210  CA        54.4900  109.5640   11.0190 C.3   247  LEU247      0.1596
    211  C         54.0090  108.1870   10.6880 C.2   247  LEU247      0.2287
    212  O         54.7450  107.1950   10.8660 O.2   247  LEU247     -0.2864
    213  CB        54.6130  109.7160   12.5470 C.3   247  LEU247      0.0297
    214  CG        54.8640  111.1710   13.0040 C.3   247  LEU247      0.0022
    215  CD1       55.1810  111.1760   14.4950 C.3   247  LEU247      0.0001
    216  CD2       56.0280  111.9190   12.3170 C.3   247  LEU247      0.0001
    217  N         52.1940  106.5200   19.3060 N.3   251  TYR251     -0.1241
    218  CA        50.9270  106.7670   18.6020 C.3   251  TYR251      0.1605
    219  C         49.7350  105.9430   19.1500 C.2   251  TYR251      0.2264
    220  O         48.6240  106.4800   19.2780 O.2   251  TYR251     -0.2867
    221  CB        51.1320  106.5300   17.0930 C.3   251  TYR251      0.0534
    222  CG        49.8710  106.5380   16.2250 C.ar  251  TYR251     -0.0201
    223  CD1       49.1850  105.3190   15.9500 C.ar  251  TYR251     -0.0009
    224  CD2       49.3570  107.7470   15.6870 C.ar  251  TYR251     -0.0009
    225  CE1       48.0500  105.3120   15.1420 C.ar  251  TYR251      0.0417
    226  CE2       48.2330  107.7320   14.8590 C.ar  251  TYR251      0.0417
    227  CZ        47.5700  106.5280   14.5910 C.ar  251  TYR251      0.1957
    228  OH        46.4500  106.4760   13.8020 O.3   251  TYR251     -0.2866
    229  N         48.9250  105.0220   22.0600 N.3   253  TYR253     -0.1227
    230  CA        48.4080  105.6420   23.2870 C.3   253  TYR253      0.1736
    231  C         47.4130  106.7700   23.0010 C.2   253  TYR253      0.2595
    232  O         46.4230  106.9430   23.7390 O.2   253  TYR253     -0.2718
    233  CB        49.5800  106.1670   24.1410 C.3   253  TYR253      0.0548
    234  CG        49.1850  107.1130   25.2430 C.ar  253  TYR253     -0.0200
    235  CD1       48.8430  106.6260   26.5230 C.ar  253  TYR253     -0.0009
    236  CD2       49.1300  108.5140   25.0080 C.ar  253  TYR253     -0.0009
    237  CE1       48.4450  107.5070   27.5340 C.ar  253  TYR253      0.0417
    238  CE2       48.7250  109.4070   26.0070 C.ar  253  TYR253      0.0417
    239  CZ        48.3900  108.9000   27.2650 C.ar  253  TYR253      0.1957
    240  OH        48.0050  109.7780   28.2500 O.3   253  TYR253     -0.2866
    241  N         47.6730  107.5690   21.9670 N.am  254  LEU254     -0.1980
    242  CA        46.7800  108.6980   21.6730 C.3   254  LEU254      0.1596
    243  C         45.3680  108.2180   21.3350 C.2   254  LEU254      0.2287
    244  O         44.3920  108.7900   21.8380 O.2   254  LEU254     -0.2864
    245  CB        47.3510  109.6300   20.6020 C.3   254  LEU254      0.0297
    246  CG        48.6220  110.3750   21.0090 C.3   254  LEU254      0.0022
    247  CD1       49.0740  111.2010   19.8380 C.3   254  LEU254      0.0001
    248  CD2       48.4510  111.2680   22.2400 C.3   254  LEU254      0.0001
    249  N         43.3130  108.0510   24.3110 N.3   257  THR257     -0.1218
    250  CA        42.7740  109.3210   24.8430 C.3   257  THR257      0.1862
    251  C         41.4550  109.7020   24.1510 C.2   257  THR257      0.2287
    252  O         40.7090  110.5750   24.6080 O.2   257  THR257     -0.2866
    253  CB        43.7830  110.5080   24.8680 C.3   257  THR257      0.1770
    254  OG1       43.8530  111.1810   23.5920 O.3   257  THR257     -0.2211
    255  CG2       45.1820  110.0540   25.3390 C.3   257  THR257      0.0375
@<TRIPOS>BOND
     1    82    81    1
     2    82    83    2
     3    80    81    1
     4    81    84    1
     5    88    89    1
     6    84    85    1
     7    85    86    1
     8    89    90    1
     9    89    92    1
    10    90    91    2
    11    75    74    2
    12    86    87    1
    13    74    73    1
    14    92    93    1
    15   207   208    1
    16   207   206    1
    17   204   203    2
    18    72    73    1
    19    73    76    1
    20   201   202    1
    21   202   203    1
    22   202   205    1
    23   203   209   am
    24    93    95   ar
    25    93    94   ar
    26    64    63    2
    27   206   205    1
    28   193   192    1
    29    63    62    1
    30    95    97   ar
    31    94    96   ar
    32   209   210    1
    33    76    77    1
    34   211   212    2
    35   211   210    1
    36    78    77    1
    37   210   213    1
    38    77    79    1
    39   189   188    2
    40     1     2    1
    41   192   191    1
    42    97    98   ar
    43    62    61    1
    44    62    65    1
    45    96    98   ar
    46   187   188    1
    47   187   186    1
    48   187   190    1
    49   197   196    2
    50   188   194   am
    51   216   214    1
    52    17    16    1
    53    65    66    1
    54   213   214    1
    55     5     2    1
    56     5     6    1
    57     2     3    1
    58   196   195    1
    59   191   190    1
    60   214   215    1
    61   194   195    1
    62     7     6   ar
    63     7     9   ar
    64     6     8   ar
    65   195   198    1
    66    16    18    1
    67    16    13    1
    68    66    67   ar
    69    66    68   ar
    70   228   227    1
    71     3     4    2
    72    12    13    1
    73    67    69   ar
    74    13    14    1
    75     9    11   ar
    76   227   226   ar
    77   227   225   ar
    78    68    70   ar
    79     8    10   ar
    80   226   224   ar
    81   198   199    1
    82   198   200    1
    83   225   223   ar
    84    69    71   ar
    85    40    39    1
    86    11    10   ar
    87   224   222   ar
    88   179   178    2
    89   223   222   ar
    90    14    19   am
    91    14    15    2
    92    70    71   ar
    93   222   221    1
    94    37    39   ar
    95    37    35   ar
    96   176   177    1
    97   178   177    1
    98    19    20    1
    99    39    38   ar
   100    25    27   ar
   101    25    24   ar
   102   177   180    1
   103    27    28   ar
   104   221   218    1
   105    35    34   ar
   106    38    36   ar
   107    20    23    1
   108    20    21    1
   109    24    23    1
   110    24    26   ar
   111    28    26   ar
   112   180   181    1
   113   183   181   ar
   114   183   185   ar
   115   181   182   ar
   116    34    36   ar
   117    34    33    1
   118   185   184   ar
   119   218   219    1
   120   218   217    1
   121   154   153    2
   122    21    22    2
   123   168   167    2
   124    29    30    1
   125   182   184   ar
   126   219   220    2
   127   167   166    1
   128   152   151    1
   129   152   153    1
   130   152   155    1
   131   153   165   am
   132   157   159   ar
   133   157   156   ar
   134   159   160   ar
   135    33    30    1
   136    30    31    1
   137   247   246    1
   138   156   155    1
   139   156   158   ar
   140   160   162   ar
   141   160   158   ar
   142   165   166    1
   143   166   169    1
   144   162   164   ar
   145   158   161   ar
   146   245   246    1
   147   245   242    1
   148   246   248    1
   149   164   163   ar
   150   161   163   ar
   151    31    41   am
   152    31    32    2
   153   243   242    1
   154   243   244    2
   155   103   100    1
   156   102   101    2
   157    41    42    1
   158   242   241    1
   159   169   170    1
   160    99   100    1
   161   241   231   am
   162   229   230    1
   163   101   100    1
   164   101   104   am
   165   110   111    1
   166   110   106   am
   167    42    45    1
   168    42    43    1
   169    46    45    1
   170    46    47    1
   171   170   171    1
   172   231   230    1
   173   231   232    2
   174   105   104    1
   175   105   106    1
   176   105   108    1
   177    60    58   ar
   178    60    59   ar
   179   111   112    1
   180    58    56   ar
   181   230   233    1
   182    43    44    2
   183   106   107    2
   184   254   253    1
   185    59    57   ar
   186    49    47   ar
   187   109   108    1
   188    56    55   ar
   189    47    48   ar
   190    50    51    1
   191   233   234    1
   192   251   252    2
   193   251   250    1
   194   171   172    1
   195   249   250    1
   196    57    55   ar
   197    55    54    1
   198   112   114   am
   199   112   113    2
   200   139   141   ar
   201   139   137   ar
   202   250   253    1
   203   253   255    1
   204   141   140   ar
   205   236   234   ar
   206   236   238   ar
   207   114   115    1
   208   124   123   ar
   209   124   122   ar
   210   234   235   ar
   211   137   136   ar
   212    51    54    1
   213    51    52    1
   214   123   121   ar
   215   172   173    2
   216   122   120   ar
   217   130   129    1
   218   129   126    1
   219   140   138   ar
   220   121   119   ar
   221   175   173    1
   222   238   239   ar
   223   120   119   ar
   224   136   138   ar
   225   136   135    1
   226   173   174    1
   227   119   118    1
   228    52    53    2
   229   235   237   ar
   230   115   118    1
   231   115   116    1
   232   135   132    1
   233   126   125    1
   234   126   127    1
   235   239   237   ar
   236   239   240    1
   237   116   117    2
   238   150   148   ar
   239   132   131    1
   240   132   133    1
   241   127   128    2
   242   148   147    1
   243   148   149   ar
   244   133   134    2
   245   147   146    1
   246   146   143    1
   247   142   143    1
   248   143   144    1
   249   144   145    2
