@<TRIPOS>MOLECULE
tmp/6a4iD02.pdb
 111 108 0 0 0
SMALL
GASTEIGER

@<TRIPOS>ATOM
      1  N         27.9020  131.8910   42.5590 N.3    63  VAL63      -0.1231
      2  CA        26.9090  131.0890   41.8480 C.3    63  VAL63       0.1692
      3  C         25.5360  130.9870   42.5290 C.2    63  VAL63       0.2591
      4  O         24.5370  130.8170   41.8250 O.2    63  VAL63      -0.2718
      5  CB        27.3720  129.6570   41.5320 C.3    63  VAL63       0.0266
      6  CG1       26.4120  128.9930   40.5480 C.3    63  VAL63       0.0020
      7  CG2       28.6490  129.7160   40.7800 C.3    63  VAL63       0.0020
      8  N         25.4680  131.0290   43.8600 N.am   64  ARG64      -0.1980
      9  CA        24.1590  130.8100   44.5560 C.3    64  ARG64       0.1597
     10  C         23.1620  131.9260   44.2630 C.2    64  ARG64       0.2287
     11  O         21.9260  131.7220   44.3840 O.2    64  ARG64      -0.2864
     12  CB        24.3280  130.7200   46.0540 C.3    64  ARG64       0.0334
     13  CG        24.8090  129.3720   46.5090 C.3    64  ARG64       0.0492
     14  CD        25.8510  129.6520   47.5550 C.3    64  ARG64       0.2205
     15  NE        26.3740  128.4370   48.1380 N.pl3  64  ARG64      -0.0865
     16  CZ        25.8350  127.8070   49.1750 C.cat  64  ARG64       0.5346
     17  NH1       26.4140  126.7160   49.6380 N.pl3  64  ARG64       0.1354
     18  NH2       24.7380  128.2810   49.7580 N.pl3  64  ARG64       0.1354
     19  N         21.6050  133.6270   41.4970 N.3    66  GLU66      -0.1245
     20  CA        21.2260  133.2010   40.1870 C.3    66  GLU66       0.1567
     21  C         21.4320  134.2990   39.0770 C.2    66  GLU66       0.2260
     22  O         21.6390  133.9290   37.8740 O.2    66  GLU66      -0.2867
     23  CB        19.8250  132.6120   40.2110 C.3    66  GLU66       0.0388
     24  CG        19.6090  131.6810   41.3990 C.3    66  GLU66       0.1160
     25  CD        18.8100  130.4380   41.0720 C.2    66  GLU66       0.3649
     26  OE1       18.6930  130.1680   39.8440 O.co2  66  GLU66      -0.2457
     27  OE2       18.3620  129.7090   42.0270 O.co2  66  GLU66      -0.2457
     28  N         24.0070  133.4210   36.6260 N.3    69  MET69      -0.1245
     29  CA        24.0100  132.1690   35.8260 C.3    69  MET69       0.1570
     30  C         24.2780  132.3930   34.3370 C.2    69  MET69       0.2261
     31  O         24.9720  131.5920   33.7280 O.2    69  MET69      -0.2867
     32  CB        22.7630  131.3170   36.0260 C.3    69  MET69       0.0387
     33  CG        22.7400  130.5590   37.3420 C.3    69  MET69       0.0595
     34  SD        24.0320  129.3130   37.4630 S.3    69  MET69      -0.1393
     35  CE        23.6110  128.1680   36.1390 C.3    69  MET69       0.0692
     36  N         27.6070  122.3560   43.5510 N.3   153  TRP153     -0.1241
     37  CA        26.3920  123.0340   43.0430 C.3   153  TRP153      0.1605
     38  C         25.2440  122.0470   42.7850 C.2   153  TRP153      0.2264
     39  O         24.0780  122.2750   43.1820 O.2   153  TRP153     -0.2867
     40  CB        26.7560  123.8020   41.7730 C.3   153  TRP153      0.0550
     41  CG        25.6120  124.5300   41.0510 C.ar  153  TRP153      0.0003
     42  CD1       24.9970  125.6900   41.4480 C.ar  153  TRP153      0.0946
     43  CD2       25.0180  124.1520   39.7890 C.ar  153  TRP153      0.0152
     44  NE1       24.0400  126.0370   40.5410 N.ar  153  TRP153     -0.2442
     45  CE2       24.0390  125.1280   39.5000 C.ar  153  TRP153      0.0810
     46  CE3       25.2260  123.0840   38.8770 C.ar  153  TRP153      0.0012
     47  CZ2       23.2460  125.0730   38.3340 C.ar  153  TRP153      0.0191
     48  CZ3       24.4490  123.0230   37.7230 C.ar  153  TRP153      0.0001
     49  CH2       23.4580  124.0130   37.4670 C.ar  153  TRP153      0.0015
     50  N         23.0410  120.9460   45.8210 N.3   156  ARG156     -0.1231
     51  CA        22.0330  121.9080   46.3290 C.3   156  ARG156      0.1694
     52  C         20.7560  122.1430   45.4520 C.2   156  ARG156      0.2593
     53  O         19.9380  123.0330   45.7870 O.2   156  ARG156     -0.2718
     54  CB        22.7380  123.2650   46.6610 C.3   156  ARG156      0.0321
     55  CG        23.9940  123.0640   47.6000 C.3   156  ARG156      0.0489
     56  CD        24.6470  124.3660   48.0820 C.3   156  ARG156      0.2205
     57  NE        25.0830  125.3030   47.0410 N.pl3 156  ARG156     -0.0865
     58  CZ        26.1380  125.1790   46.2140 C.cat 156  ARG156      0.5346
     59  NH1       26.9280  124.1350   46.2090 N.pl3 156  ARG156      0.1354
     60  NH2       26.4130  126.1230   45.3360 N.pl3 156  ARG156      0.1354
     61  N         20.5750  121.3160   44.3630 N.am  157  THR157     -0.1940
     62  CA        19.4890  121.5000   43.3620 C.3   157  THR157      0.2013
     63  C         18.1180  121.3410   43.9960 C.2   157  THR157      0.2484
     64  O         17.8740  120.3030   44.5910 O.2   157  THR157     -0.2729
     65  CB        19.5900  120.4530   42.2200 C.3   157  THR157      0.1807
     66  OG1       20.7900  120.6530   41.4910 O.3   157  THR157     -0.2208
     67  CG2       18.4050  120.5230   41.2460 C.3   157  THR157      0.0379
     68  N         17.2080  122.3250   43.8360 N.am  158  PRO158     -0.2726
     69  CA        15.8740  122.2280   44.4560 C.3   158  PRO158      0.1402
     70  C         15.0020  121.0570   43.9340 C.2   158  PRO158      0.2269
     71  O         15.3660  120.3830   42.9440 O.2   158  PRO158     -0.2865
     72  CB        15.2410  123.5720   44.1420 C.3   158  PRO158      0.0296
     73  CG        16.3660  124.4830   43.7880 C.3   158  PRO158      0.0237
     74  CD        17.3790  123.6100   43.1390 C.3   158  PRO158      0.0939
     75  N         17.2180  118.7110   36.9580 N.3   206  ILE206     -0.1245
     76  CA        17.4550  119.7830   36.0170 C.3   206  ILE206      0.1561
     77  C         17.1110  119.2830   34.5890 C.2   206  ILE206      0.2260
     78  O         16.4820  119.9960   33.7880 O.2   206  ILE206     -0.2867
     79  CB        18.8910  120.3320   36.1800 C.3   206  ILE206      0.0252
     80  CG1       18.9970  121.0650   37.5310 C.3   206  ILE206      0.0019
     81  CG2       19.2720  121.2650   35.0370 C.3   206  ILE206      0.0019
     82  CD1       20.4230  121.2920   37.9880 C.3   206  ILE206      0.0001
     83  N         13.6080  128.4290   36.7310 N.3   214  ARG214     -0.1231
     84  CA        14.8990  128.3240   37.4670 C.3   214  ARG214      0.1694
     85  C         15.8120  127.1980   37.0570 C.2   214  ARG214      0.2592
     86  O         16.9770  127.2210   37.3910 O.2   214  ARG214     -0.2718
     87  CB        14.6690  128.2450   39.0000 C.3   214  ARG214      0.0321
     88  CG        14.4940  129.6450   39.6000 C.3   214  ARG214      0.0489
     89  CD        14.1300  129.6060   41.0580 C.3   214  ARG214      0.2205
     90  NE        15.2740  129.1080   41.7960 N.pl3 214  ARG214     -0.0865
     91  CZ        15.2320  128.5730   42.9980 C.cat 214  ARG214      0.5346
     92  NH1       14.1010  128.4140   43.6370 N.pl3 214  ARG214      0.1354
     93  NH2       16.3570  128.1850   43.5330 N.pl3 214  ARG214      0.1354
     94  N         15.2780  126.2370   36.3200 N.am  215  PHE215     -0.1976
     95  CA        16.0720  125.2080   35.6790 C.3   215  PHE215      0.1639
     96  C         16.5650  125.4930   34.2230 C.2   215  PHE215      0.2290
     97  O         17.5270  124.8210   33.7900 O.2   215  PHE215     -0.2864
     98  CB        15.3720  123.8390   35.7920 C.3   215  PHE215      0.0560
     99  CG        15.2720  123.3290   37.1990 C.ar  215  PHE215     -0.0200
    100  CD1       16.2740  123.6240   38.1530 C.ar  215  PHE215     -0.0042
    101  CD2       14.1700  122.5580   37.5940 C.ar  215  PHE215     -0.0042
    102  CE1       16.1680  123.1430   39.4740 C.ar  215  PHE215     -0.0003
    103  CE2       14.0830  122.0710   38.9020 C.ar  215  PHE215     -0.0003
    104  CZ        15.0850  122.3550   39.8380 C.ar  215  PHE215     -0.0000
    105  N         20.2470  126.6250   34.0100 N.3   218  PRO218     -0.2116
    106  CA        20.9950  125.4140   34.4140 C.3   218  PRO218      0.1372
    107  C         20.9840  124.2700   33.4140 C.2   218  PRO218      0.2244
    108  O         21.9780  123.6060   33.2940 O.2   218  PRO218     -0.2868
    109  CB        20.2990  124.9990   35.7260 C.3   218  PRO218      0.0268
    110  CG        20.0030  126.3490   36.3350 C.3   218  PRO218      0.0207
    111  CD        19.5280  127.2040   35.1720 C.3   218  PRO218      0.0892
@<TRIPOS>BOND
     1   108   107    2
     2   107   106    1
     3    31    30    2
     4    78    77    2
     5    97    96    2
     6   105   106    1
     7   105   111    1
     8    96    95    1
     9    30    29    1
    10   106   109    1
    11    77    76    1
    12    81    79    1
    13   111   110    1
    14    95    98    1
    15    95    94    1
    16   109   110    1
    17    98    99    1
    18    29    32    1
    19    29    28    1
    20    76    79    1
    21    76    75    1
    22    32    33    1
    23    35    34    1
    24    79    80    1
    25    94    85   am
    26    83    84    1
    27    85    86    2
    28    85    84    1
    29    99   101   ar
    30    99   100   ar
    31    33    34    1
    32    49    48   ar
    33    49    47   ar
    34    84    87    1
    35    80    82    1
    36   101   103   ar
    37    48    46   ar
    38    22    21    2
    39   100   102   ar
    40    47    45   ar
    41    46    43   ar
    42   103   104   ar
    43    87    88    1
    44    21    20    1
    45   102   104   ar
    46    45    43   ar
    47    45    44   ar
    48    88    89    1
    49    43    41   ar
    50    26    25   ar
    51    20    23    1
    52    20    19    1
    53    23    24    1
    54    44    42   ar
    55     6     5    1
    56     7     5    1
    57    41    42   ar
    58    41    40    1
    59    89    90    1
    60    25    24    1
    61    25    27   ar
    62    67    65    1
    63    66    65    1
    64     5     2    1
    65    40    37    1
    66    90    91    2
    67     4     3    2
    68     2     3    1
    69     2     1    1
    70    65    62    1
    71     3     8   am
    72    38    37    1
    73    38    39    2
    74    71    70    2
    75    91    93    1
    76    91    92    1
    77    37    36    1
    78    74    73    1
    79    74    68    1
    80    62    63    1
    81    62    61    1
    82    73    72    1
    83    68    63   am
    84    68    69    1
    85     8     9    1
    86    70    69    1
    87    63    64    2
    88    72    69    1
    89    10    11    2
    90    10     9    1
    91    61    52   am
    92     9    12    1
    93    60    58    1
    94    52    53    2
    95    52    51    1
    96    50    51    1
    97    12    13    1
    98    59    58    1
    99    58    57    2
   100    51    54    1
   101    13    14    1
   102    54    55    1
   103    57    56    1
   104    14    15    1
   105    55    56    1
   106    15    16    2
   107    16    17    1
   108    16    18    1
