@<TRIPOS>MOLECULE
tmp/6a4iD01.pdb
 90 86 0 0 0
SMALL
GASTEIGER

@<TRIPOS>ATOM
      1  N         54.4250  125.0820   11.4190 N.3    33  PHE33      -0.1241
      2  CA        54.3730  124.2180   12.5920 C.3    33  PHE33       0.1605
      3  C         54.4330  125.0440   13.8660 C.2    33  PHE33       0.2264
      4  O         53.6660  124.7650   14.7830 O.2    33  PHE33      -0.2867
      5  CB        55.5030  123.2010   12.5770 C.3    33  PHE33       0.0534
      6  CG        55.3970  122.1420   13.6650 C.ar   33  PHE33      -0.0203
      7  CD1       54.5020  121.0600   13.5360 C.ar   33  PHE33      -0.0042
      8  CD2       56.2690  122.1740   14.7900 C.ar   33  PHE33      -0.0042
      9  CE1       54.4850  120.0370   14.4940 C.ar   33  PHE33      -0.0003
     10  CE2       56.1930  121.1650   15.7530 C.ar   33  PHE33      -0.0003
     11  CZ        55.3130  120.0980   15.5990 C.ar   33  PHE33      -0.0000
     12  N         51.0470  125.8820   16.4710 N.3    37  HIS37      -0.1241
     13  CA        51.2880  125.6470   17.8890 C.3    37  HIS37       0.1621
     14  C         51.0530  126.9170   18.7130 C.2    37  HIS37       0.2264
     15  O         50.2440  126.8740   19.6510 O.2    37  HIS37      -0.2867
     16  CB        52.6540  124.9720   18.1230 C.3    37  HIS37       0.0745
     17  CG        52.5950  123.4950   17.9330 C.ar   37  HIS37       0.0817
     18  ND1       52.6970  122.8850   16.6570 N.ar   37  HIS37      -0.2268
     19  CD2       52.3360  122.5020   18.8220 C.ar   37  HIS37       0.1154
     20  CE1       52.5700  121.5730   16.7870 C.ar   37  HIS37       0.1986
     21  NE2       52.3850  121.3090   18.0940 N.ar   37  HIS37      -0.2212
     22  N         57.2680  117.6800    6.1690 N.3   101  PHE101     -0.1241
     23  CA        57.4260  117.5470    7.6000 C.3   101  PHE101      0.1605
     24  C         58.7200  116.8130    7.8920 C.2   101  PHE101      0.2264
     25  O         59.5950  117.3670    8.5560 O.2   101  PHE101     -0.2867
     26  CB        56.2340  116.8920    8.2840 C.3   101  PHE101      0.0534
     27  CG        56.3240  116.8890    9.7830 C.ar  101  PHE101     -0.0203
     28  CD1       56.2200  118.1190   10.5080 C.ar  101  PHE101     -0.0042
     29  CD2       56.5670  115.6700   10.4870 C.ar  101  PHE101     -0.0042
     30  CE1       56.2780  118.1290   11.9040 C.ar  101  PHE101     -0.0003
     31  CE2       56.5860  115.6740   11.8910 C.ar  101  PHE101     -0.0003
     32  CZ        56.4510  116.8990   12.5910 C.ar  101  PHE101     -0.0000
     33  N         61.5560  117.4980   10.9260 N.3   105  ARG105     -0.1245
     34  CA        61.2050  116.6560   12.0970 C.3   105  ARG105      0.1563
     35  C         62.4230  116.2780   12.9860 C.2   105  ARG105      0.2260
     36  O         62.3450  116.2680   14.2390 O.2   105  ARG105     -0.2867
     37  CB        60.6660  115.3420   11.5850 C.3   105  ARG105      0.0307
     38  CG        60.1520  114.3860   12.7040 C.3   105  ARG105      0.0489
     39  CD        60.6100  112.9840   12.3570 C.3   105  ARG105      0.2205
     40  NE        59.9490  112.0710   13.3000 N.pl3 105  ARG105     -0.0865
     41  CZ        59.5650  110.8880   12.9020 C.cat 105  ARG105      0.5346
     42  NH1       59.1570  110.0800   13.8070 N.pl3 105  ARG105      0.1354
     43  NH2       59.3160  110.6010   11.5490 N.pl3 105  ARG105      0.1354
     44  N         63.4590  118.7730   15.8610 N.3   108  LEU108     -0.1231
     45  CA        62.4730  119.1890   16.8500 C.3   108  LEU108      0.1693
     46  C         62.7580  118.3890   18.0790 C.2   108  LEU108      0.2592
     47  O         62.4900  118.8550   19.1800 O.2   108  LEU108     -0.2718
     48  CB        61.0240  118.9550   16.3730 C.3   108  LEU108      0.0284
     49  CG        60.1770  120.1200   15.7990 C.3   108  LEU108      0.0019
     50  CD1       61.0090  121.0180   14.8770 C.3   108  LEU108      0.0001
     51  CD2       58.9630  119.5020   15.0030 C.3   108  LEU108      0.0001
     52  N         63.3270  117.1940   17.8790 N.am  109  SER109     -0.1952
     53  CA        63.5330  116.2260   18.9510 C.3   109  SER109      0.1924
     54  C         64.4910  116.7390   20.0600 C.2   109  SER109      0.2314
     55  O         65.5530  117.2750   19.7480 O.2   109  SER109     -0.2863
     56  CB        64.0180  114.9020   18.3650 C.3   109  SER109      0.2116
     57  OG        63.9340  113.8760   19.3420 O.3   109  SER109     -0.2180
     58  N         61.5080  117.8160   21.8470 N.3   111  ALA111     -0.1231
     59  CA        60.3090  118.5770   22.2630 C.3   111  ALA111      0.1694
     60  C         59.1570  117.6040   22.1870 C.2   111  ALA111      0.2593
     61  O         59.2200  116.6260   21.4260 O.2   111  ALA111     -0.2718
     62  CB        60.0600  119.8050   21.3850 C.3   111  ALA111      0.0304
     63  N         58.1510  117.8190   23.0250 N.am  112  SER112     -0.1938
     64  CA        56.9730  116.9550   23.0170 C.3   112  SER112      0.2055
     65  C         55.6890  117.7350   23.3490 C.2   112  SER112      0.2643
     66  O         55.7200  118.7220   24.0970 O.2   112  SER112     -0.2714
     67  CB        57.1800  115.7690   23.9760 C.3   112  SER112      0.2130
     68  OG        56.1330  114.8160   23.8520 O.3   112  SER112     -0.2179
     69  N         54.5680  117.3120   22.7750 N.am  113  GLY113     -0.1954
     70  CA        53.2710  117.8680   23.1770 C.3   113  GLY113      0.1869
     71  C         52.8770  117.4670   24.6000 C.2   113  GLY113      0.2309
     72  O         52.1160  118.1740   25.2480 O.2   113  GLY113     -0.2863
     73  N         43.8300  115.6640   16.3570 N.3   239  HIS239     -0.1241
     74  CA        45.2440  115.5070   16.7170 C.3   239  HIS239      0.1621
     75  C         45.8010  114.0930   16.4100 C.2   239  HIS239      0.2264
     76  O         46.8750  114.0240   15.8870 O.2   239  HIS239     -0.2867
     77  CB        45.5810  115.9860   18.1460 C.3   239  HIS239      0.0745
     78  CG        47.0440  115.8800   18.4470 C.ar  239  HIS239      0.0817
     79  ND1       47.6110  114.7300   18.9610 N.ar  239  HIS239     -0.2268
     80  CD2       48.0760  116.7240   18.1780 C.ar  239  HIS239      0.1154
     81  CE1       48.9250  114.8830   19.0210 C.ar  239  HIS239      0.1986
     82  NE2       49.2320  116.0920   18.5780 N.ar  239  HIS239     -0.2212
     83  N         53.5350  110.5530   10.5550 N.3   247  LEU247     -0.1245
     84  CA        54.4900  109.5640   11.0190 C.3   247  LEU247      0.1561
     85  C         54.0090  108.1870   10.6880 C.2   247  LEU247      0.2260
     86  O         54.7450  107.1950   10.8660 O.2   247  LEU247     -0.2867
     87  CB        54.6130  109.7160   12.5470 C.3   247  LEU247      0.0270
     88  CG        54.8640  111.1710   13.0040 C.3   247  LEU247      0.0019
     89  CD1       55.1810  111.1760   14.4950 C.3   247  LEU247      0.0001
     90  CD2       56.0280  111.9190   12.3170 C.3   247  LEU247      0.0001
@<TRIPOS>BOND
     1    22    23    1
     2    23    24    1
     3    23    26    1
     4    24    25    2
     5    26    27    1
     6    27    29   ar
     7    27    28   ar
     8    29    31   ar
     9    28    30   ar
    10    83    84    1
    11    85    86    2
    12    85    84    1
    13    33    34    1
    14    84    87    1
    15     1     2    1
    16    43    41    1
    17    37    34    1
    18    37    38    1
    19    31    32   ar
    20    30    32   ar
    21    34    35    1
    22    90    88    1
    23    39    38    1
    24    39    40    1
    25    87    88    1
    26     5     2    1
    27     5     6    1
    28     2     3    1
    29    41    40    2
    30    41    42    1
    31    35    36    2
    32    88    89    1
    33     7     6   ar
    34     7     9   ar
    35     6     8   ar
    36     3     4    2
    37     9    11   ar
    38     8    10   ar
    39    50    49    1
    40    51    49    1
    41    11    10   ar
    42    49    48    1
    43    44    45    1
    44    76    75    2
    45    73    74    1
    46    48    45    1
    47    75    74    1
    48    12    13    1
    49    18    20   ar
    50    18    17   ar
    51    74    77    1
    52    20    21   ar
    53    45    46    1
    54    52    46   am
    55    52    53    1
    56    13    16    1
    57    13    14    1
    58    17    16    1
    59    17    19   ar
    60    46    47    2
    61    21    19   ar
    62    77    78    1
    63    80    78   ar
    64    80    82   ar
    65    56    53    1
    66    56    57    1
    67    78    79   ar
    68    82    81   ar
    69    14    15    2
    70    53    54    1
    71    79    81   ar
    72    55    54    2
    73    62    59    1
    74    61    60    2
    75    58    59    1
    76    60    59    1
    77    60    63   am
    78    69    70    1
    79    69    65   am
    80    64    63    1
    81    64    65    1
    82    64    67    1
    83    70    71    1
    84    65    66    2
    85    68    67    1
    86    71    72    2
