@<TRIPOS>MOLECULE
tmp/6a4iA01.pdb
 97 92 0 0 0
SMALL
GASTEIGER

@<TRIPOS>ATOM
      1  N         24.0130  122.0090   -9.7120 N.3    33  PHE33      -0.1241
      2  CA        23.1120  123.1520   -9.5940 C.3    33  PHE33       0.1605
      3  C         21.7580  122.7740   -9.0030 C.2    33  PHE33       0.2264
      4  O         21.2460  123.4800   -8.1390 O.2    33  PHE33      -0.2867
      5  CB        22.8920  123.7620  -10.9630 C.3    33  PHE33       0.0534
      6  CG        22.3130  125.1370  -10.9410 C.ar   33  PHE33      -0.0203
      7  CD1       23.1160  126.2390  -10.6220 C.ar   33  PHE33      -0.0042
      8  CD2       20.9510  125.3400  -11.2720 C.ar   33  PHE33      -0.0042
      9  CE1       22.5890  127.5300  -10.6210 C.ar   33  PHE33      -0.0003
     10  CE2       20.4080  126.6210  -11.2830 C.ar   33  PHE33      -0.0003
     11  CZ        21.2380  127.7220  -10.9470 C.ar   33  PHE33      -0.0000
     12  N         20.4360  123.6010   -4.9640 N.3    37  HIS37      -0.1241
     13  CA        19.1190  124.2010   -4.7480 C.3    37  HIS37       0.1621
     14  C         18.1380  123.3380   -3.9530 C.2    37  HIS37       0.2264
     15  O         17.4560  123.8500   -3.0820 O.2    37  HIS37      -0.2867
     16  CB        18.4690  124.6210   -6.0550 C.3    37  HIS37       0.0745
     17  CG        19.0000  125.9090   -6.5900 C.ar   37  HIS37       0.0817
     18  ND1       20.1790  125.9850   -7.3000 N.ar   37  HIS37      -0.2268
     19  CD2       18.5290  127.1780   -6.4840 C.ar   37  HIS37       0.1154
     20  CE1       20.4010  127.2460   -7.6580 C.ar   37  HIS37       0.1986
     21  NE2       19.4170  127.9910   -7.1560 N.ar   37  HIS37      -0.2212
     22  N         29.3420  126.3760  -15.8450 N.3   101  PHE101     -0.1241
     23  CA        27.9990  126.9710  -15.7400 C.3   101  PHE101      0.1605
     24  C         27.4820  127.5160  -17.0920 C.2   101  PHE101      0.2264
     25  O         26.3190  127.3380  -17.4620 O.2   101  PHE101     -0.2867
     26  CB        27.9530  128.0770  -14.6640 C.3   101  PHE101      0.0534
     27  CG        26.5840  128.6680  -14.4340 C.ar  101  PHE101     -0.0203
     28  CD1       25.5860  127.9270  -13.8360 C.ar  101  PHE101     -0.0042
     29  CD2       26.2770  129.9860  -14.8230 C.ar  101  PHE101     -0.0042
     30  CE1       24.3130  128.4840  -13.6570 C.ar  101  PHE101     -0.0003
     31  CE2       25.0140  130.5550  -14.6120 C.ar  101  PHE101     -0.0003
     32  CZ        24.0360  129.8000  -14.0320 C.ar  101  PHE101     -0.0000
     33  N         23.8100  127.2210  -18.7000 N.3   105  ARG105     -0.1245
     34  CA        23.0650  128.4730  -18.3140 C.3   105  ARG105      0.1563
     35  C         21.8100  128.6370  -19.1480 C.2   105  ARG105      0.2260
     36  O         20.7580  128.8300  -18.5650 O.2   105  ARG105     -0.2867
     37  CB        23.9280  129.7300  -18.4700 C.3   105  ARG105      0.0307
     38  CG        23.3930  130.9200  -17.6370 C.3   105  ARG105      0.0489
     39  CD        22.6800  132.0010  -18.4550 C.3   105  ARG105      0.2205
     40  NE        23.1050  133.3560  -18.0730 N.pl3 105  ARG105     -0.0865
     41  CZ        24.2920  133.8790  -18.4470 C.cat 105  ARG105      0.5346
     42  NH1       25.2100  133.1480  -19.1470 N.pl3 105  ARG105      0.1354
     43  NH2       24.5590  135.1320  -18.0580 N.pl3 105  ARG105      0.1354
     44  N         18.3980  127.0350  -18.7230 N.3   108  LEU108     -0.1231
     45  CA        17.7530  127.4930  -17.5110 C.3   108  LEU108      0.1693
     46  C         16.6740  128.6280  -17.6260 C.2   108  LEU108      0.2592
     47  O         15.7880  128.6790  -16.7600 O.2   108  LEU108     -0.2718
     48  CB        18.8630  127.8900  -16.5180 C.3   108  LEU108      0.0284
     49  CG        19.2010  126.9880  -15.3270 C.3   108  LEU108      0.0019
     50  CD1       19.2060  125.5160  -15.6600 C.3   108  LEU108      0.0001
     51  CD2       20.5240  127.4360  -14.7080 C.3   108  LEU108      0.0001
     52  N         16.7550  129.5340  -18.6330 N.am  109  SER109     -0.1952
     53  CA        15.6840  130.5800  -18.8220 C.3   109  SER109      0.1924
     54  C         14.3740  129.9110  -19.1680 C.2   109  SER109      0.2314
     55  O         14.3360  128.8360  -19.8450 O.2   109  SER109     -0.2863
     56  CB        15.9070  131.6640  -19.9070 C.3   109  SER109      0.2116
     57  OG        17.2250  131.7110  -20.4040 O.3   109  SER109     -0.2180
     58  N         13.7280  130.5670  -15.8170 N.3   111  ALA111     -0.1231
     59  CA        13.5970  130.2890  -14.3890 C.3   111  ALA111      0.1694
     60  C         14.3680  131.3540  -13.6200 C.2   111  ALA111      0.2593
     61  O         15.2950  131.9570  -14.1590 O.2   111  ALA111     -0.2718
     62  CB        14.1050  128.8960  -14.0590 C.3   111  ALA111      0.0304
     63  N         13.9730  131.6360  -12.3920 N.am  112  SER112     -0.1938
     64  CA        14.7160  132.6180  -11.6130 C.3   112  SER112      0.2055
     65  C         14.6440  132.2840  -10.1390 C.2   112  SER112      0.2643
     66  O         13.7690  131.5380   -9.7120 O.2   112  SER112     -0.2714
     67  CB        14.1420  134.0120  -11.8710 C.3   112  SER112      0.2130
     68  OG        14.6490  134.9460  -10.9080 O.3   112  SER112     -0.2179
     69  N         15.5390  132.8610   -9.3490 N.am  113  GLY113     -0.1954
     70  CA        15.5410  132.6350   -7.8650 C.3   113  GLY113      0.1869
     71  C         14.3990  133.3580   -7.1870 C.2   113  GLY113      0.2309
     72  O         13.9730  132.9930   -6.1030 O.2   113  GLY113     -0.2863
     73  N         25.3430  134.9650   -1.8550 N.3   274  HIS274     -0.1241
     74  CA        24.6260  134.7390   -3.0830 C.3   274  HIS274      0.1621
     75  C         25.2030  135.7840   -4.0540 C.2   274  HIS274      0.2264
     76  O         25.7110  135.4220   -5.1110 O.2   274  HIS274     -0.2867
     77  CB        23.1240  134.8270   -2.9130 C.3   274  HIS274      0.0745
     78  CG        22.3760  134.4870   -4.1560 C.ar  274  HIS274      0.0817
     79  ND1       21.9200  135.4490   -5.0240 N.ar  274  HIS274     -0.2268
     80  CD2       22.0090  133.2970   -4.6860 C.ar  274  HIS274      0.1154
     81  CE1       21.3190  134.8670   -6.0430 C.ar  274  HIS274      0.1986
     82  NE2       21.3450  133.5630   -5.8580 N.ar  274  HIS274     -0.2212
     83  N         26.9490  134.9350   -7.9270 N.3   278  VAL278     -0.1245
     84  CA        26.4480  135.5740   -9.0940 C.3   278  VAL278      0.1561
     85  C         27.5850  136.3050   -9.8500 C.2   278  VAL278      0.2260
     86  O         27.7430  136.1630  -11.0660 O.2   278  VAL278     -0.2867
     87  CB        25.3290  136.5450   -8.6730 C.3   278  VAL278      0.0252
     88  CG1       24.8040  137.3460   -9.8520 C.3   278  VAL278      0.0019
     89  CG2       24.1810  135.7770   -8.0970 C.3   278  VAL278      0.0019
     90  N         28.7090  135.2700  -13.5630 N.3   282  LEU282     -0.1245
     91  CA        28.2200  136.1550  -14.6150 C.3   282  LEU282      0.1561
     92  C         29.0140  137.4650  -14.8710 C.2   282  LEU282      0.2260
     93  O         28.8850  138.0410  -15.9890 O.2   282  LEU282     -0.2867
     94  CB        26.7470  136.4190  -14.3780 C.3   282  LEU282      0.0270
     95  CG        25.8270  135.2620  -13.9870 C.3   282  LEU282      0.0019
     96  CD1       24.4440  135.8200  -13.7940 C.3   282  LEU282      0.0001
     97  CD2       25.7780  134.1270  -15.0170 C.3   282  LEU282      0.0001
@<TRIPOS>BOND
     1    57    56    1
     2    56    53    1
     3    55    54    2
     4    54    53    1
     5    35    36    2
     6    35    34    1
     7    42    41    1
     8    53    52    1
     9    44    45    1
    10    33    34    1
    11    52    46   am
    12    37    34    1
    13    37    38    1
    14    39    40    1
    15    39    38    1
    16    41    40    2
    17    41    43    1
    18    46    45    1
    19    46    47    2
    20    45    48    1
    21    25    24    2
    22    24    23    1
    23    48    49    1
    24    93    92    2
    25    22    23    1
    26    58    59    1
    27    23    26    1
    28    50    49    1
    29    49    51    1
    30    97    95    1
    31    92    91    1
    32    29    31   ar
    33    29    27   ar
    34    26    27    1
    35    91    94    1
    36    91    90    1
    37    31    32   ar
    38    27    28   ar
    39    59    62    1
    40    59    60    1
    41    94    95    1
    42    61    60    2
    43    32    30   ar
    44    95    96    1
    45    28    30   ar
    46    60    63   am
    47    63    64    1
    48    67    64    1
    49    67    68    1
    50    64    65    1
    51    10     8   ar
    52    10    11   ar
    53     8     6   ar
    54    86    85    2
    55     5     6    1
    56     5     2    1
    57    11     9   ar
    58     6     7   ar
    59     7     9   ar
    60    65    66    2
    61    65    69   am
    62    88    87    1
    63    85    84    1
    64     1     2    1
    65     2     3    1
    66    69    70    1
    67    84    87    1
    68    84    83    1
    69     3     4    2
    70    87    89    1
    71    70    71    1
    72    20    18   ar
    73    20    21   ar
    74    18    17   ar
    75    71    72    2
    76    21    19   ar
    77    17    19   ar
    78    17    16    1
    79    16    13    1
    80    81    82   ar
    81    81    79   ar
    82    82    80   ar
    83    76    75    2
    84    79    78   ar
    85    12    13    1
    86    13    14    1
    87    80    78   ar
    88    78    77    1
    89    75    74    1
    90    14    15    2
    91    74    77    1
    92    74    73    1
