@<TRIPOS>MOLECULE
tmp/6a4iB01.pdb
 104 101 0 0 0
SMALL
GASTEIGER

@<TRIPOS>ATOM
      1  N         14.6770  115.3980   11.9970 N.3    33  PHE33      -0.1241
      2  CA        15.2020  114.1100   11.7230 C.3    33  PHE33       0.1605
      3  C         14.9290  113.6740   10.2730 C.2    33  PHE33       0.2264
      4  O         15.8040  113.1010    9.6710 O.2    33  PHE33      -0.2867
      5  CB        14.6060  113.1490   12.7160 C.3    33  PHE33       0.0534
      6  CG        15.1540  111.7540   12.6360 C.ar   33  PHE33      -0.0203
      7  CD1       16.3140  111.4100   13.3150 C.ar   33  PHE33      -0.0042
      8  CD2       14.4810  110.7750   11.9360 C.ar   33  PHE33      -0.0042
      9  CE1       16.8080  110.1150   13.2750 C.ar   33  PHE33      -0.0003
     10  CE2       14.9630  109.4710   11.9000 C.ar   33  PHE33      -0.0003
     11  CZ        16.1360  109.1370   12.5560 C.ar   33  PHE33      -0.0000
     12  N         18.1080  113.7730    7.2470 N.3    37  HIS37      -0.1241
     13  CA        18.2930  112.5960    6.3740 C.3    37  HIS37       0.1621
     14  C         18.1350  112.9240    4.9400 C.2    37  HIS37       0.2264
     15  O         19.0240  112.6310    4.1390 O.2    37  HIS37      -0.2867
     16  CB        17.4130  111.4190    6.7190 C.3    37  HIS37       0.0745
     17  CG        17.9440  110.6390    7.8650 C.ar   37  HIS37       0.0817
     18  ND1       17.7800  111.0500    9.1740 N.ar   37  HIS37      -0.2268
     19  CD2       18.7540  109.5560    7.9010 C.ar   37  HIS37       0.1154
     20  CE1       18.4270  110.2280    9.9690 C.ar   37  HIS37       0.1986
     21  NE2       19.0220  109.3110    9.2260 N.ar   37  HIS37      -0.2212
     22  N         14.2240  113.3680   21.0670 N.3   101  PHE101     -0.1241
     23  CA        14.2960  112.2410   20.1540 C.3   101  PHE101      0.1605
     24  C         13.4280  111.0710   20.6610 C.2   101  PHE101      0.2264
     25  O         12.6070  110.5020   19.9070 O.2   101  PHE101     -0.2867
     26  CB        15.7340  111.8090   19.9510 C.3   101  PHE101      0.0534
     27  CG        15.8940  110.6870   18.9390 C.ar  101  PHE101     -0.0203
     28  CD1       15.4960  110.8560   17.6020 C.ar  101  PHE101     -0.0042
     29  CD2       16.4450  109.4460   19.3210 C.ar  101  PHE101     -0.0042
     30  CE1       15.6520  109.8150   16.6720 C.ar  101  PHE101     -0.0003
     31  CE2       16.6170  108.4300   18.3910 C.ar  101  PHE101     -0.0003
     32  CZ        16.2020  108.6040   17.0860 C.ar  101  PHE101     -0.0000
     33  N         11.0950  108.4230   18.6830 N.3   105  ARG105     -0.1245
     34  CA        11.9330  107.2210   18.4800 C.3   105  ARG105      0.1563
     35  C         11.1370  105.9750   18.1470 C.2   105  ARG105      0.2260
     36  O         11.4550  105.2990   17.1750 O.2   105  ARG105     -0.2867
     37  CB        12.7320  106.9270   19.7540 C.3   105  ARG105      0.0307
     38  CG        14.1030  106.3130   19.5380 C.3   105  ARG105      0.0489
     39  CD        14.0330  104.8010   19.4120 C.3   105  ARG105      0.2205
     40  NE        15.2160  104.0940   19.9260 N.pl3 105  ARG105     -0.0865
     41  CZ        15.6130  104.0500   21.2110 C.cat 105  ARG105      0.5346
     42  NH1       14.9520  104.7130   22.1760 N.pl3 105  ARG105      0.1354
     43  NH2       16.6980  103.3420   21.5280 N.pl3 105  ARG105      0.1354
     44  N          9.7510  105.1680   14.7280 N.3   108  LEU108     -0.1231
     45  CA        10.7620  104.9410   13.6970 C.3   108  LEU108      0.1693
     46  C         10.9290  103.4440   13.3690 C.2   108  LEU108      0.2593
     47  O         11.0780  103.0700   12.1950 O.2   108  LEU108     -0.2718
     48  CB        12.0960  105.5210   14.1450 C.3   108  LEU108      0.0284
     49  CG        12.2840  107.0070   14.2030 C.3   108  LEU108      0.0019
     50  CD1       13.7690  107.2850   14.3970 C.3   108  LEU108      0.0001
     51  CD2       11.7760  107.6640   12.9360 C.3   108  LEU108      0.0001
     52  N         10.8900  102.6240   14.4270 N.am  109  SER109     -0.1939
     53  CA        11.0440  101.1700   14.3640 C.3   109  SER109      0.2040
     54  C         10.3460  100.4530   13.1650 C.2   109  SER109      0.2485
     55  O          9.2800  100.8620   12.7470 O.2   109  SER109     -0.2729
     56  CB        10.5750  100.5450   15.6840 C.3   109  SER109      0.2129
     57  OG        10.7020   99.1440   15.5770 O.3   109  SER109     -0.2179
     58  N         10.9660   99.4320   12.5710 N.am  110  PRO110     -0.2715
     59  CA        12.3490   99.0350   12.8390 C.3   110  PRO110      0.1536
     60  C         13.3640   99.6540   11.8900 C.2   110  PRO110      0.2598
     61  O         14.4920   99.1630   11.8570 O.2   110  PRO110     -0.2715
     62  CB        12.3130   97.5160   12.6670 C.3   110  PRO110      0.0310
     63  CG        11.1800   97.2700   11.7210 C.3   110  PRO110      0.0237
     64  CD        10.2730   98.4720   11.6990 C.3   110  PRO110      0.0939
     65  N         12.9890  100.7300   11.1700 N.am  111  ALA111     -0.1964
     66  CA        13.8610  101.4150   10.1680 C.3   111  ALA111      0.1728
     67  C         15.2490  101.6700   10.6890 C.2   111  ALA111      0.2617
     68  O         15.4510  101.8730   11.8920 O.2   111  ALA111     -0.2715
     69  CB        13.2530  102.7000    9.6180 C.3   111  ALA111      0.0334
     70  N         16.2060  101.6340    9.7690 N.am  112  SER112     -0.1936
     71  CA        17.6050  101.4990   10.1060 C.3   112  SER112      0.2055
     72  C         18.4170  102.2200    9.0550 C.2   112  SER112      0.2643
     73  O         18.0220  102.2760    7.8860 O.2   112  SER112     -0.2714
     74  CB        17.9600  100.0190   10.1060 C.3   112  SER112      0.2130
     75  OG        19.3260   99.8340   10.4220 O.3   112  SER112     -0.2179
     76  N         19.5580  102.7700    9.4510 N.am  113  GLY113     -0.1954
     77  CA        20.4280  103.4290    8.4880 C.3   113  GLY113      0.1869
     78  C         21.0880  102.3750    7.6260 C.2   113  GLY113      0.2309
     79  O         21.5390  102.6740    6.5260 O.2   113  GLY113     -0.2863
     80  N         28.5600  110.3420   13.1780 N.3   259  HIS259     -0.1241
     81  CA        27.3460  109.5840   13.3450 C.3   259  HIS259      0.1621
     82  C         27.4790  108.8560   14.7110 C.2   259  HIS259      0.2264
     83  O         26.5320  108.8080   15.4780 O.2   259  HIS259     -0.2867
     84  CB        27.1540  108.6380   12.1810 C.3   259  HIS259      0.0745
     85  CG        25.8990  107.8470   12.2460 C.ar  259  HIS259      0.0817
     86  ND1       25.8780  106.5160   12.5560 N.ar  259  HIS259     -0.2268
     87  CD2       24.6230  108.1980   12.0060 C.ar  259  HIS259      0.1154
     88  CE1       24.6340  106.0810   12.5420 C.ar  259  HIS259      0.1986
     89  NE2       23.8490  107.0850   12.1950 N.ar  259  HIS259     -0.2212
     90  N         24.7240  108.9190   17.9580 N.3   263  VAL263     -0.1245
     91  CA        24.1180  107.7440   18.5050 C.3   263  VAL263      0.1561
     92  C         24.3090  107.7920   20.0080 C.2   263  VAL263      0.2260
     93  O         23.3580  107.6320   20.7300 O.2   263  VAL263     -0.2867
     94  CB        24.7170  106.4880   17.8400 C.3   263  VAL263      0.0252
     95  CG1       24.1960  105.1940   18.4930 C.3   263  VAL263      0.0019
     96  CG2       24.4070  106.5250   16.3370 C.3   263  VAL263      0.0019
     97  N         21.2300  107.7830   22.3190 N.3   267  LEU267     -0.1245
     98  CA        20.8950  106.5230   22.9150 C.3   267  LEU267      0.1561
     99  C         21.7850  106.1040   24.0840 C.2   267  LEU267      0.2260
    100  O         21.4180  105.2120   24.8240 O.2   267  LEU267     -0.2867
    101  CB        20.7990  105.4620   21.8240 C.3   267  LEU267      0.0270
    102  CG        20.0490  105.8340   20.5280 C.3   267  LEU267      0.0019
    103  CD1       20.2240  104.7970   19.4220 C.3   267  LEU267      0.0001
    104  CD2       18.5610  106.0690   20.7700 C.3   267  LEU267      0.0001
@<TRIPOS>BOND
     1    15    14    2
     2    14    13    1
     3    13    16    1
     4    13    12    1
     5    79    78    2
     6    16    17    1
     7    78    77    1
     8    17    19   ar
     9    17    18   ar
    10    73    72    2
    11    19    21   ar
    12    77    76    1
    13    72    76   am
    14    72    71    1
    15    18    20   ar
    16    21    20   ar
    17    69    66    1
    18     4     3    2
    19    70    71    1
    20    70    67   am
    21    74    71    1
    22    74    75    1
    23    66    67    1
    24    66    65    1
    25     3     2    1
    26    67    68    2
    27    65    60   am
    28    64    63    1
    29    64    58    1
    30    63    62    1
    31     2     1    1
    32     2     5    1
    33    61    60    2
    34    60    59    1
    35    10     8   ar
    36    10    11   ar
    37     8     6   ar
    38    87    89   ar
    39    87    85   ar
    40    84    85    1
    41    84    81    1
    42    89    88   ar
    43    47    46    2
    44    85    86   ar
    45    88    86   ar
    46    11     9   ar
    47    58    59    1
    48    58    54   am
    49     6     5    1
    50     6     7   ar
    51    62    59    1
    52    55    54    2
    53    51    49    1
    54    54    53    1
    55    80    81    1
    56     9     7   ar
    57    81    82    1
    58    46    45    1
    59    46    52   am
    60    45    48    1
    61    45    44    1
    62    48    49    1
    63    49    50    1
    64    53    52    1
    65    53    56    1
    66    82    83    2
    67    57    56    1
    68    96    94    1
    69    30    32   ar
    70    30    28   ar
    71    32    31   ar
    72    36    35    2
    73    28    27   ar
    74    94    95    1
    75    94    91    1
    76    90    91    1
    77    35    34    1
    78    31    29   ar
    79    34    33    1
    80    34    37    1
    81    91    92    1
    82    27    29   ar
    83    27    26    1
    84    39    38    1
    85    39    40    1
    86   103   102    1
    87    38    37    1
    88    25    24    2
    89    40    41    2
    90    26    23    1
    91    92    93    2
    92    23    24    1
    93    23    22    1
    94   102   104    1
    95   102   101    1
    96    41    43    1
    97    41    42    1
    98   101    98    1
    99    97    98    1
   100    98    99    1
   101    99   100    2
