@<TRIPOS>MOLECULE
tmp/6a4rA00.pdb
 67 64 0 0 0
SMALL
GASTEIGER

@<TRIPOS>ATOM
      1  N        -27.0570   -5.9610  -18.3010 N.3    93  GLY93      -0.1210
      2  CA       -25.6780   -5.9750  -18.7360 C.3    93  GLY93       0.1956
      3  C        -25.5230   -5.7140  -20.2280 C.2    93  GLY93       0.2612
      4  O        -26.4830   -5.6880  -20.9940 O.2    93  GLY93      -0.2717
      5  N        -24.2830   -5.5170  -20.6340 N.am   94  GLY94      -0.1956
      6  CA       -23.9630   -5.1900  -22.0110 C.3    94  GLY94       0.1869
      7  C        -22.7500   -4.2700  -22.0280 C.2    94  GLY94       0.2309
      8  O        -21.8770   -4.3850  -21.1650 O.2    94  GLY94      -0.2863
      9  N        -23.6880   -6.6290  -13.9480 N.3   126  SER126     -0.1202
     10  CA       -22.5840   -6.2920  -14.8310 C.3   126  SER126      0.2020
     11  C        -22.5710   -4.8060  -15.1660 C.2   126  SER126      0.2618
     12  O        -22.3140   -3.9790  -14.2880 O.2   126  SER126     -0.2717
     13  CB       -22.6730   -7.1420  -16.0940 C.3   126  SER126      0.2103
     14  OG       -21.5460   -7.9920  -16.1890 O.3   126  SER126     -0.2182
     15  N        -22.8360   -4.4450  -16.4220 N.am  127  ALA127     -0.1979
     16  CA       -22.8740   -3.0230  -16.7580 C.3   127  ALA127      0.1597
     17  C        -23.8370   -2.2770  -15.8420 C.2   127  ALA127      0.2287
     18  O        -23.5890   -1.1250  -15.4650 O.2   127  ALA127     -0.2864
     19  CB       -23.2610   -2.8350  -18.2260 C.3   127  ALA127      0.0319
     20  N        -21.9620   -1.4890  -12.7260 N.3   130  ASN130     -0.1240
     21  CA       -21.0940   -0.3370  -12.9540 C.3   130  ASN130      0.1653
     22  C        -21.8780    0.9610  -12.8340 C.2   130  ASN130      0.2266
     23  O        -21.4190    1.9280  -12.2140 O.2   130  ASN130     -0.2867
     24  CB       -20.4650   -0.4150  -14.3470 C.3   130  ASN130      0.1155
     25  CG       -19.4110   -1.4800  -14.4570 C.2   130  ASN130      0.2627
     26  OD1      -18.7360   -1.8050  -13.4790 O.2   130  ASN130     -0.2716
     27  ND2      -19.2500   -2.0300  -15.6590 N.am  130  ASN130     -0.0877
     28  N        -15.2620   -0.2180  -15.3390 N.3   139  THR139     -0.1203
     29  CA       -15.7990   -1.1880  -16.2840 C.3   139  THR139      0.1994
     30  C        -14.6520   -1.8790  -17.0130 C.2   139  THR139      0.2618
     31  O        -13.5540   -1.3320  -17.1500 O.2   139  THR139     -0.2717
     32  CB       -16.7380   -0.5200  -17.2960 C.3   139  THR139      0.1784
     33  OG1      -17.2790   -1.5180  -18.1740 O.3   139  THR139     -0.2211
     34  CG2      -15.9920    0.5130  -18.1330 C.3   139  THR139      0.0376
     35  N        -14.9010   -3.1060  -17.4630 N.am  140  ASN140     -0.1960
     36  CA       -13.9510   -3.8150  -18.3110 C.3   140  ASN140      0.1819
     37  C        -14.2700   -3.6700  -19.7900 C.2   140  ASN140      0.2621
     38  O        -13.6310   -4.3250  -20.6250 O.2   140  ASN140     -0.2715
     39  CB       -13.9110   -5.2920  -17.9320 C.3   140  ASN140      0.1195
     40  CG       -13.6400   -5.4930  -16.4610 C.2   140  ASN140      0.2630
     41  OD1      -12.5520   -5.1850  -15.9760 O.2   140  ASN140     -0.2716
     42  ND2      -14.6340   -6.0000  -15.7390 N.am  140  ASN140     -0.0877
     43  N        -15.2520   -2.8420  -20.1300 N.am  141  ASP141     -0.1971
     44  CA       -15.7620   -2.8000  -21.4870 C.3   141  ASP141      0.1709
     45  C        -14.8980   -1.9110  -22.3750 C.2   141  ASP141      0.2293
     46  O        -14.1380   -1.0560  -21.9090 O.2   141  ASP141     -0.2864
     47  CB       -17.2160   -2.3240  -21.4970 C.3   141  ASP141      0.1436
     48  CG       -18.1510   -3.3150  -20.8210 C.2   141  ASP141      0.3671
     49  OD1      -17.7740   -4.5010  -20.7230 O.co2 141  ASP141     -0.2456
     50  OD2      -19.2610   -2.9230  -20.3910 O.co2 141  ASP141     -0.2456
     51  N        -16.6060   -5.5240  -12.0850 N.3   162  PRO162     -0.2102
     52  CA       -17.3010   -6.8090  -12.2060 C.3   162  PRO162      0.1504
     53  C        -16.4780   -7.8230  -12.9920 C.2   162  PRO162      0.2575
     54  O        -15.4010   -7.5310  -13.5130 O.2   162  PRO162     -0.2718
     55  CB       -18.5970   -6.4550  -12.9450 C.3   162  PRO162      0.0282
     56  CG       -18.3020   -5.1890  -13.6740 C.3   162  PRO162      0.0208
     57  CD       -17.1200   -4.5110  -13.0250 C.3   162  PRO162      0.0893
     58  N        -17.0030   -9.0480  -13.0420 N.am  163  HIS163     -0.1976
     59  CA       -16.3300  -10.1570  -13.7250 C.3   163  HIS163      0.1656
     60  C        -14.8790  -10.2750  -13.2710 C.2   163  HIS163      0.2291
     61  O        -13.9800  -10.5410  -14.0710 O.2   163  HIS163     -0.2864
     62  CB       -16.3710   -9.9930  -15.2470 C.3   163  HIS163      0.0771
     63  CG       -17.7450   -9.9870  -15.8400 C.ar  163  HIS163      0.0820
     64  ND1      -18.4190  -11.1420  -16.1750 N.ar  163  HIS163     -0.2267
     65  CD2      -18.5500   -8.9620  -16.2070 C.ar  163  HIS163      0.1154
     66  CE1      -19.5900  -10.8300  -16.7040 C.ar  163  HIS163      0.1986
     67  NE2      -19.6930   -9.5130  -16.7360 N.ar  163  HIS163     -0.2212
@<TRIPOS>BOND
     1    45    46    2
     2    45    44    1
     3     7     6    1
     4     7     8    2
     5     6     5    1
     6    47    44    1
     7    47    48    1
     8    44    43    1
     9     4     3    2
    10    48    49   ar
    11    48    50   ar
    12     5     3   am
    13    38    37    2
    14     3     2    1
    15    43    37   am
    16    37    36    1
    17     2     1    1
    18    36    39    1
    19    36    35    1
    20    19    16    1
    21    33    32    1
    22    34    32    1
    23    39    40    1
    24    35    30   am
    25    32    29    1
    26    31    30    2
    27    30    29    1
    28    16    15    1
    29    16    17    1
    30    67    66   ar
    31    67    65   ar
    32    66    64   ar
    33    40    41    2
    34    40    42   am
    35    15    11   am
    36    29    28    1
    37    65    63   ar
    38    14    13    1
    39    64    63   ar
    40    13    10    1
    41    17    18    2
    42    63    62    1
    43    27    25   am
    44    62    59    1
    45    11    10    1
    46    11    12    2
    47    10     9    1
    48    25    24    1
    49    25    26    2
    50    24    21    1
    51    61    60    2
    52    59    60    1
    53    59    58    1
    54    56    57    1
    55    56    55    1
    56    54    53    2
    57    58    53   am
    58    57    51    1
    59    53    52    1
    60    21    22    1
    61    21    20    1
    62    55    52    1
    63    22    23    2
    64    52    51    1
