@<TRIPOS>MOLECULE
tmp/6a50B01.pdb
 147 142 0 0 0
SMALL
GASTEIGER

@<TRIPOS>ATOM
      1  N        -35.2360  -19.8570   -3.6590 N.3    80  GLY80      -0.1225
      2  CA       -34.7290  -18.6600   -4.3380 C.3    80  GLY80       0.1811
      3  C        -34.4490  -18.9510   -5.8050 C.2    80  GLY80       0.2280
      4  O        -34.7720  -18.1480   -6.6860 O.2    80  GLY80      -0.2866
      5  N        -23.8040  -12.1370  -13.6140 N.3   375  GLU375     -0.1231
      6  CA       -24.2640  -11.7980  -12.2640 C.3   375  GLU375      0.1699
      7  C        -23.3270  -10.7610  -11.6500 C.2   375  GLU375      0.2593
      8  O        -22.9810  -10.8110  -10.4630 O.2   375  GLU375     -0.2718
      9  CB       -24.4050  -13.0400  -11.3860 C.3   375  GLU375      0.0402
     10  CG       -25.5640  -12.9420  -10.4130 C.3   375  GLU375      0.1161
     11  CD       -25.9000  -14.2810   -9.8040 C.2   375  GLU375      0.3649
     12  OE1      -26.7810  -14.9680  -10.3540 O.co2 375  GLU375     -0.2457
     13  OE2      -25.2770  -14.6420   -8.7880 O.co2 375  GLU375     -0.2457
     14  N        -22.9240   -9.8220  -12.5000 N.am  376  SER376     -0.1938
     15  CA       -22.1600   -8.6500  -12.1070 C.3   376  SER376      0.2055
     16  C        -23.1480   -7.4990  -12.2770 C.2   376  SER376      0.2644
     17  O        -23.2460   -6.8750  -13.3440 O.2   376  SER376     -0.2714
     18  CB       -20.9240   -8.5090  -12.9980 C.3   376  SER376      0.2130
     19  OG       -20.1740   -7.3610  -12.6490 O.3   376  SER376     -0.2179
     20  N        -23.9110   -7.2620  -11.2120 N.am  377  THR377     -0.1936
     21  CA       -25.1630   -6.5010  -11.2930 C.3   377  THR377      0.2028
     22  C        -25.0070   -5.0240  -11.6710 C.2   377  THR377      0.2643
     23  O        -25.8630   -4.4830  -12.3610 O.2   377  THR377     -0.2714
     24  CB       -26.0190   -6.6500  -10.0150 C.3   377  THR377      0.1808
     25  OG1      -25.1750   -6.6120   -8.8510 O.3   377  THR377     -0.2208
     26  CG2      -26.7860   -7.9790  -10.0460 C.3   377  THR377      0.0379
     27  N        -23.9130   -4.3930  -11.2530 N.am  378  SER378     -0.1935
     28  CA       -23.6860   -2.9770  -11.5760 C.3   378  SER378      0.2055
     29  C        -23.1410   -2.7350  -13.0000 C.2   378  SER378      0.2643
     30  O        -23.0040   -1.5760  -13.4250 O.2   378  SER378     -0.2714
     31  CB       -22.7870   -2.3170  -10.5260 C.3   378  SER378      0.2130
     32  OG       -21.4410   -2.7690  -10.6130 O.3   378  SER378     -0.2179
     33  N        -22.8410   -3.8120  -13.7310 N.am  379  THR379     -0.1950
     34  CA       -22.1220   -3.6990  -15.0110 C.3   379  THR379      0.1897
     35  C        -22.9060   -4.2160  -16.2290 C.2   379  THR379      0.2313
     36  O        -22.3490   -4.3450  -17.3290 O.2   379  THR379     -0.2863
     37  CB       -20.7110   -4.3380  -14.9420 C.3   379  THR379      0.1794
     38  OG1      -20.8210   -5.7550  -14.7710 O.3   379  THR379     -0.2208
     39  CG2      -19.9080   -3.7650  -13.7830 C.3   379  THR379      0.0378
     40  N        -33.9200  -11.6750  -10.8210 N.3   401  GLY401     -0.1210
     41  CA       -32.9180  -10.8830  -10.1010 C.3   401  GLY401      0.1956
     42  C        -32.3120  -11.5920   -8.8980 C.2   401  GLY401      0.2612
     43  O        -31.5510  -10.9790   -8.1350 O.2   401  GLY401     -0.2717
     44  N        -32.6240  -12.8810   -8.7370 N.am  402  GLY402     -0.1942
     45  CA       -32.1800  -13.6520   -7.5800 C.3   402  GLY402      0.2014
     46  C        -30.7390  -14.0860   -7.7140 C.2   402  GLY402      0.2638
     47  O        -30.4050  -14.8730   -8.5970 O.2   402  GLY402     -0.2714
     48  N        -29.8830  -13.5700   -6.8360 N.am  403  LEU403     -0.1977
     49  CA       -28.4530  -13.8770   -6.8960 C.3   403  LEU403      0.1596
     50  C        -28.1890  -15.3290   -6.5130 C.2   403  LEU403      0.2287
     51  O        -28.9960  -15.9520   -5.8170 O.2   403  LEU403     -0.2864
     52  CB       -27.6420  -12.8960   -6.0380 C.3   403  LEU403      0.0297
     53  CG       -27.8320  -11.4010   -6.3350 C.3   403  LEU403      0.0022
     54  CD1      -26.8700  -10.6160   -5.4640 C.3   403  LEU403      0.0001
     55  CD2      -27.6600  -11.0100   -7.8060 C.3   403  LEU403      0.0001
     56  N        -20.1710  -10.9120   -9.9660 N.3   427  GLY427     -0.1210
     57  CA       -19.6690   -9.9980   -8.9330 C.3   427  GLY427      0.1956
     58  C        -19.1950  -10.7350   -7.6880 C.2   427  GLY427      0.2612
     59  O        -19.5930  -11.8840   -7.4440 O.2   427  GLY427     -0.2717
     60  N        -18.3340  -10.0780   -6.9080 N.am  428  ASP428     -0.1959
     61  CA       -17.7830  -10.6610   -5.6790 C.3   428  ASP428      0.1840
     62  C        -18.8700  -10.9790   -4.6420 C.2   428  ASP428      0.2623
     63  O        -18.8110  -12.0140   -3.9780 O.2   428  ASP428     -0.2715
     64  CB       -16.6620   -9.7830   -5.0850 C.3   428  ASP428      0.1450
     65  CG       -17.1090   -8.3610   -4.7750 C.2   428  ASP428      0.3671
     66  OD1      -17.7080   -7.6950   -5.6410 O.co2 428  ASP428     -0.2456
     67  OD2      -16.8460   -7.8910   -3.6530 O.co2 428  ASP428     -0.2456
     68  N        -19.8660  -10.1000   -4.5330 N.am  429  GLY429     -0.1940
     69  CA       -21.0350  -10.3510   -3.6890 C.3   429  GLY429      0.2014
     70  C        -21.8430  -11.5480   -4.1600 C.2   429  GLY429      0.2639
     71  O        -22.1440  -12.4420   -3.3760 O.2   429  GLY429     -0.2714
     72  N        -22.1670  -11.5710   -5.4530 N.am  430  SER430     -0.1949
     73  CA       -22.9860  -12.6350   -6.0440 C.3   430  SER430      0.1924
     74  C        -22.3530  -14.0230   -5.9700 C.2   430  SER430      0.2314
     75  O        -23.0700  -15.0140   -5.8200 O.2   430  SER430     -0.2863
     76  CB       -23.3250  -12.2990   -7.4930 C.3   430  SER430      0.2116
     77  OG       -24.1450  -11.1380   -7.5410 O.3   430  SER430     -0.2180
     78  N        -23.3380  -16.6630   -2.9050 N.3   433  TYR433     -0.1241
     79  CA       -24.6660  -17.2530   -2.7320 C.3   433  TYR433      0.1605
     80  C        -24.6910  -18.7430   -3.0540 C.2   433  TYR433      0.2264
     81  O        -25.2690  -19.5250   -2.3030 O.2   433  TYR433     -0.2867
     82  CB       -25.7260  -16.5030   -3.5450 C.3   433  TYR433      0.0534
     83  CG       -26.0340  -15.1120   -3.0380 C.ar  433  TYR433     -0.0201
     84  CD1      -25.2360  -14.0230   -3.4120 C.ar  433  TYR433     -0.0009
     85  CD2      -27.1190  -14.8800   -2.1830 C.ar  433  TYR433     -0.0009
     86  CE1      -25.5090  -12.7420   -2.9520 C.ar  433  TYR433      0.0417
     87  CE2      -27.4000  -13.6000   -1.7130 C.ar  433  TYR433      0.0417
     88  CZ       -26.5900  -12.5380   -2.1040 C.ar  433  TYR433      0.1957
     89  OH       -26.8500  -11.2670   -1.6550 O.3   433  TYR433     -0.2866
     90  N        -14.8790   -5.9240   -6.6800 N.3   455  ASN455     -0.1240
     91  CA       -14.8090   -4.5190   -6.2530 C.3   455  ASN455      0.1653
     92  C        -15.0650   -4.3160   -4.7480 C.2   455  ASN455      0.2266
     93  O        -15.1830   -3.1810   -4.2810 O.2   455  ASN455     -0.2867
     94  CB       -15.7140   -3.6110   -7.1260 C.3   455  ASN455      0.1155
     95  CG       -17.1990   -3.9680   -7.0520 C.2   455  ASN455      0.2627
     96  OD1      -17.6470   -4.7440   -6.2040 O.2   455  ASN455     -0.2716
     97  ND2      -17.9810   -3.3790   -7.9550 N.am  455  ASN455     -0.0877
     98  N        -17.6270   -4.7040   -2.8620 N.3   457  THR457     -0.1203
     99  CA       -18.8910   -4.0720   -2.4640 C.3   457  THR457      0.1994
    100  C        -20.0770   -4.5930   -3.2660 C.2   457  THR457      0.2618
    101  O        -19.8990   -5.1620   -4.3540 O.2   457  THR457     -0.2717
    102  CB       -18.8010   -2.5180   -2.5560 C.3   457  THR457      0.1784
    103  OG1      -19.9320   -1.9140   -1.9150 O.3   457  THR457     -0.2211
    104  CG2      -18.7020   -2.0240   -4.0120 C.3   457  THR457      0.0376
    105  N        -21.2770   -4.4110   -2.7040 N.am  458  TYR458     -0.1961
    106  CA       -22.5260   -4.5880   -3.4240 C.3   458  TYR458      0.1771
    107  C        -22.7670   -3.3180   -4.2650 C.2   458  TYR458      0.2620
    108  O        -23.5520   -2.4330   -3.8810 O.2   458  TYR458     -0.2715
    109  CB       -23.6880   -4.8400   -2.4420 C.3   458  TYR458      0.0574
    110  CG       -23.6890   -6.1720   -1.6790 C.ar  458  TYR458     -0.0198
    111  CD1      -23.3680   -7.3830   -2.3140 C.ar  458  TYR458     -0.0009
    112  CD2      -24.0820   -6.2230   -0.3290 C.ar  458  TYR458     -0.0009
    113  CE1      -23.4090   -8.5950   -1.6230 C.ar  458  TYR458      0.0417
    114  CE2      -24.1260   -7.4280    0.3700 C.ar  458  TYR458      0.0417
    115  CZ       -23.7880   -8.6100   -0.2800 C.ar  458  TYR458      0.1957
    116  OH       -23.8260   -9.8110    0.4010 O.3   458  TYR458     -0.2866
    117  N        -22.0760   -3.2400   -5.4070 N.am  459  GLY459     -0.1940
    118  CA       -22.0610   -2.0480   -6.2740 C.3   459  GLY459      0.2014
    119  C        -23.4190   -1.5180   -6.7090 C.2   459  GLY459      0.2639
    120  O        -23.6810   -0.3150   -6.6060 O.2   459  GLY459     -0.2714
    121  N        -24.2820   -2.4220   -7.1760 N.am  460  MET460     -0.1963
    122  CA       -25.6430   -2.0880   -7.6150 C.3   460  MET460      0.1736
    123  C        -26.4840   -1.4810   -6.4880 C.2   460  MET460      0.2616
    124  O        -27.2650   -0.5520   -6.7220 O.2   460  MET460     -0.2715
    125  CB       -26.3290   -3.3270   -8.2040 C.3   460  MET460      0.0427
    126  CG       -27.6540   -3.0730   -8.9130 C.3   460  MET460      0.0599
    127  SD       -27.5720   -1.8220  -10.2110 S.3   460  MET460     -0.1393
    128  CE       -29.1580   -2.0780  -11.0040 C.3   460  MET460      0.0692
    129  N        -26.3030   -2.0000   -5.2720 N.am  461  LEU461     -0.1977
    130  CA       -26.9940   -1.4870   -4.0920 C.3   461  LEU461      0.1596
    131  C        -26.5620   -0.0780   -3.7060 C.2   461  LEU461      0.2287
    132  O        -27.3920    0.7260   -3.2810 O.2   461  LEU461     -0.2864
    133  CB       -26.8590   -2.4470   -2.9040 C.3   461  LEU461      0.0297
    134  CG       -27.6270   -3.7730   -2.9650 C.3   461  LEU461      0.0022
    135  CD1      -27.5970   -4.4280   -1.5930 C.3   461  LEU461      0.0001
    136  CD2      -29.0720   -3.5910   -3.4190 C.3   461  LEU461      0.0001
    137  N        -28.4690    2.0140   -6.2180 N.3   464  PHE464     -0.1241
    138  CA       -29.8540    2.0930   -5.7390 C.3   464  PHE464      0.1605
    139  C        -30.0080    3.0260   -4.5330 C.2   464  PHE464      0.2264
    140  O        -30.9790    3.7820   -4.4600 O.2   464  PHE464     -0.2867
    141  CB       -30.3890    0.7020   -5.3740 C.3   464  PHE464      0.0534
    142  CG       -31.2350    0.0600   -6.4410 C.ar  464  PHE464     -0.0203
    143  CD1      -32.5280    0.5250   -6.7110 C.ar  464  PHE464     -0.0042
    144  CD2      -30.7580   -1.0460   -7.1510 C.ar  464  PHE464     -0.0042
    145  CE1      -33.3160   -0.0860   -7.6900 C.ar  464  PHE464     -0.0003
    146  CE2      -31.5420   -1.6620   -8.1260 C.ar  464  PHE464     -0.0003
    147  CZ       -32.8200   -1.1800   -8.3960 C.ar  464  PHE464     -0.0000
@<TRIPOS>BOND
     1    36    35    2
     2    35    34    1
     3    34    37    1
     4    34    33    1
     5    37    38    1
     6    37    39    1
     7    33    29   am
     8     5     6    1
     9    30    29    2
    10    17    16    2
    11    29    28    1
    12    18    19    1
    13    18    15    1
    14    14    15    1
    15    14     7   am
    16    23    22    2
    17    16    15    1
    18    16    20   am
    19     6     7    1
    20     6     9    1
    21    22    21    1
    22    22    27   am
    23     7     8    2
    24    28    27    1
    25    28    31    1
    26     9    10    1
    27    21    20    1
    28    21    24    1
    29   128   127    1
    30    40    41    1
    31    32    31    1
    32    10    11    1
    33    12    11   ar
    34   127   126    1
    35    41    42    1
    36    26    24    1
    37    24    25    1
    38    56    57    1
    39    11    13   ar
    40    57    58    1
    41   126   125    1
    42    42    44   am
    43    42    43    2
    44    44    45    1
    45    47    46    2
    46   147   146   ar
    47   147   145   ar
    48   125   122    1
    49   146   144   ar
    50    97    95   am
    51    55    53    1
    52    46    45    1
    53    46    48   am
    54   145   143   ar
    55    58    59    2
    56    58    60   am
    57   122   121    1
    58   122   123    1
    59    77    76    1
    60    76    73    1
    61   121   119   am
    62   144   142   ar
    63    94    95    1
    64    94    91    1
    65    95    96    2
    66    60    61    1
    67    49    48    1
    68    49    50    1
    69    49    52    1
    70   124   123    2
    71   143   142   ar
    72   119   120    2
    73   119   118    1
    74     4     3    2
    75    90    91    1
    76    50    51    2
    77   123   129   am
    78   142   141    1
    79    53    52    1
    80    53    54    1
    81   118   117    1
    82    91    92    1
    83   137   138    1
    84    73    74    1
    85    73    72    1
    86    74    75    2
    87     3     2    1
    88   138   141    1
    89   138   139    1
    90    61    64    1
    91    61    62    1
    92    66    65   ar
    93    72    70   am
    94   117   107   am
    95   129   130    1
    96    64    65    1
    97    65    67   ar
    98    92    93    2
    99    62    68   am
   100    62    63    2
   101   139   140    2
   102    68    69    1
   103   101   100    2
   104     2     1    1
   105   107   108    2
   106   107   106    1
   107    70    69    1
   108    70    71    2
   109   130   131    1
   110   130   133    1
   111   104   102    1
   112   131   132    2
   113    82    83    1
   114    82    79    1
   115   106   105    1
   116   106   109    1
   117   136   134    1
   118    84    83   ar
   119    84    86   ar
   120   100   105   am
   121   100    99    1
   122    80    79    1
   123    80    81    2
   124    83    85   ar
   125   134   133    1
   126   134   135    1
   127    86    88   ar
   128    78    79    1
   129    98    99    1
   130   102    99    1
   131   102   103    1
   132   109   110    1
   133   111   110   ar
   134   111   113   ar
   135    85    87   ar
   136    88    87   ar
   137    88    89    1
   138   110   112   ar
   139   113   115   ar
   140   112   114   ar
   141   115   114   ar
   142   115   116    1
