@<TRIPOS>MOLECULE
tmp/6a50B00.pdb
 70 66 0 0 0
SMALL
GASTEIGER

@<TRIPOS>ATOM
      1  N        -29.4110  -33.5170   -4.8270 N.3    23  ASN23      -0.1226
      2  CA       -28.6870  -33.6590   -3.5750 C.3    23  ASN23       0.1770
      3  C        -29.5100  -34.6620   -2.7640 C.2    23  ASN23       0.2439
      4  O        -30.6770  -34.3920   -2.4590 O.2    23  ASN23      -0.2733
      5  CB       -28.5540  -32.3210   -2.8470 C.3    23  ASN23       0.1168
      6  CG       -27.6940  -32.4240   -1.5960 C.2    23  ASN23       0.2627
      7  OD1      -26.4660  -32.5390   -1.6700 O.2    23  ASN23      -0.2716
      8  ND2      -28.3340  -32.3900   -0.4440 N.am   23  ASN23      -0.0877
      9  N        -28.9270  -35.8350   -2.4490 N.am   24  PRO24      -0.2718
     10  CA       -29.7270  -36.9310   -1.9100 C.3    24  PRO24       0.1535
     11  C        -30.0400  -36.8100   -0.4210 C.2    24  PRO24       0.2599
     12  O        -29.3970  -36.0480    0.3090 O.2    24  PRO24      -0.2715
     13  CB       -28.8520  -38.1590   -2.1770 C.3    24  PRO24       0.0310
     14  CG       -27.4610  -37.6420   -2.0870 C.3    24  PRO24       0.0237
     15  CD       -27.5050  -36.2130   -2.5800 C.3    24  PRO24       0.0939
     16  N        -31.0540  -37.5530   -0.0020 N.am   25  GLY25      -0.1941
     17  CA       -31.4590  -37.6390    1.3890 C.3    25  GLY25       0.2014
     18  C        -32.1510  -38.9700    1.5970 C.2    25  GLY25       0.2639
     19  O        -32.3710  -39.7170    0.6360 O.2    25  GLY25      -0.2714
     20  N        -32.5080  -39.2510    2.8490 N.am   26  SER26      -0.1949
     21  CA       -33.0980  -40.5370    3.2300 C.3    26  SER26       0.1924
     22  C        -34.3550  -40.8680    2.4210 C.2    26  SER26       0.2314
     23  O        -34.4750  -41.9820    1.8960 O.2    26  SER26      -0.2863
     24  CB       -33.3870  -40.5730    4.7380 C.3    26  SER26       0.2116
     25  OG       -34.2620  -39.5210    5.1150 O.3    26  SER26      -0.2180
     26  N        -28.8800  -27.1550   -2.4050 N.3    47  GLU47      -0.1245
     27  CA       -30.0090  -27.2740   -3.3350 C.3    47  GLU47       0.1567
     28  C        -30.2140  -26.0760   -4.2550 C.2    47  GLU47       0.2260
     29  O        -30.7170  -26.2430   -5.3710 O.2    47  GLU47      -0.2867
     30  CB       -31.2900  -27.6340   -2.5940 C.3    47  GLU47       0.0388
     31  CG       -31.2550  -29.0340   -1.9780 C.3    47  GLU47       0.1160
     32  CD       -30.5710  -29.1100   -0.6180 C.2    47  GLU47       0.3649
     33  OE1      -30.5290  -30.2280   -0.0690 O.co2  47  GLU47      -0.2457
     34  OE2      -30.0620  -28.0900   -0.0940 O.co2  47  GLU47      -0.2457
     35  N        -34.3380  -33.2610   -1.2040 N.3    70  HIS70      -0.1241
     36  CA       -34.7400  -33.8770    0.0600 C.3    70  HIS70       0.1621
     37  C        -35.8120  -33.1260    0.8510 C.2    70  HIS70       0.2264
     38  O        -35.5090  -32.1350    1.5350 O.2    70  HIS70      -0.2867
     39  CB       -33.5350  -34.1550    0.9730 C.3    70  HIS70       0.0745
     40  CG       -33.9270  -34.7820    2.2750 C.ar   70  HIS70       0.0817
     41  ND1      -34.3630  -36.0860    2.3660 N.ar   70  HIS70      -0.2268
     42  CD2      -34.0210  -34.2660    3.5230 C.ar   70  HIS70       0.1154
     43  CE1      -34.6740  -36.3590    3.6200 C.ar   70  HIS70       0.1986
     44  NE2      -34.4790  -35.2700    4.3410 N.ar   70  HIS70      -0.2212
     45  N        -36.6220  -29.3990    3.7890 N.3    73  ALA73      -0.1231
     46  CA       -35.3420  -28.6840    3.9400 C.3    73  ALA73       0.1694
     47  C        -34.6660  -28.4550    2.5890 C.2    73  ALA73       0.2592
     48  O        -34.2300  -27.3320    2.2890 O.2    73  ALA73      -0.2718
     49  CB       -34.4110  -29.4390    4.8770 C.3    73  ALA73       0.0304
     50  N        -34.6050  -29.5180    1.7830 N.am   74  GLY74      -0.1957
     51  CA       -33.9980  -29.4720    0.4460 C.3    74  GLY74       0.1869
     52  C        -34.7820  -28.6030   -0.5150 C.2    74  GLY74       0.2309
     53  O        -34.2110  -27.7630   -1.2070 O.2    74  GLY74      -0.2863
     54  N        -34.3180  -24.8970    0.5870 N.3    77  ASN77      -0.1240
     55  CA       -33.0120  -24.3690    0.1640 C.3    77  ASN77       0.1653
     56  C        -32.9720  -23.9400   -1.3160 C.2    77  ASN77       0.2266
     57  O        -32.1630  -23.0950   -1.6990 O.2    77  ASN77      -0.2867
     58  CB       -31.8890  -25.3850    0.4420 C.3    77  ASN77       0.1155
     59  CG       -31.4650  -25.4290    1.9070 C.2    77  ASN77       0.2627
     60  OD1      -31.8630  -24.6010    2.7180 O.2    77  ASN77      -0.2716
     61  ND2      -30.6330  -26.4030    2.2410 N.am   77  ASN77      -0.0877
     62  N        -38.1410  -35.6200    9.0420 N.3   110  GLU110     -0.1245
     63  CA       -38.0550  -35.6810    7.5640 C.3   110  GLU110      0.1567
     64  C        -39.4140  -35.6130    6.8430 C.2   110  GLU110      0.2260
     65  O        -39.4650  -35.7330    5.6140 O.2   110  GLU110     -0.2867
     66  CB       -37.2060  -36.8840    7.0540 C.3   110  GLU110      0.0388
     67  CG       -35.8550  -37.1070    7.7520 C.3   110  GLU110      0.1160
     68  CD       -34.9710  -35.8650    7.8020 C.2   110  GLU110      0.3649
     69  OE1      -34.3480  -35.6130    8.8490 O.co2 110  GLU110     -0.2457
     70  OE2      -34.8840  -35.1300    6.8040 O.co2 110  GLU110     -0.2457
@<TRIPOS>BOND
     1    29    28    2
     2     1     2    1
     3    28    27    1
     4     2     5    1
     5     2     3    1
     6    27    30    1
     7    27    26    1
     8     5     6    1
     9     3     4    2
    10     3     9   am
    11    30    31    1
    12    15     9    1
    13    15    14    1
    14     9    10    1
    15    13    14    1
    16    13    10    1
    17    31    32    1
    18    10    11    1
    19    57    56    2
    20     7     6    2
    21     6     8   am
    22    56    55    1
    23    53    52    2
    24    35    36    1
    25    32    34   ar
    26    32    33   ar
    27    52    51    1
    28    11    16   am
    29    11    12    2
    30    16    17    1
    31    36    37    1
    32    36    39    1
    33    55    58    1
    34    55    54    1
    35    58    59    1
    36    51    50    1
    37    19    18    2
    38    37    38    2
    39    39    40    1
    40    17    18    1
    41    18    20   am
    42    50    47   am
    43    23    22    2
    44    59    61   am
    45    59    60    2
    46    40    41   ar
    47    40    42   ar
    48    48    47    2
    49    41    43   ar
    50    22    21    1
    51    47    46    1
    52    20    21    1
    53    21    24    1
    54    42    44   ar
    55    43    44   ar
    56    45    46    1
    57    46    49    1
    58    24    25    1
    59    65    64    2
    60    70    68   ar
    61    64    63    1
    62    66    63    1
    63    66    67    1
    64    63    62    1
    65    67    68    1
    66    68    69   ar
