@<TRIPOS>MOLECULE
tmp/6a55B00.pdb
 139 136 0 0 0
SMALL
GASTEIGER

@<TRIPOS>ATOM
      1  N         15.8040  -16.0910   34.5940 N.3    21  TYR21      -0.1241
      2  CA        15.7810  -16.2940   33.1500 C.3    21  TYR21       0.1605
      3  C         17.1960  -16.2740   32.5920 C.2    21  TYR21       0.2264
      4  O         17.6570  -15.2420   32.1170 O.2    21  TYR21      -0.2867
      5  CB        14.9940  -15.1690   32.4780 C.3    21  TYR21       0.0534
      6  CG        13.5660  -15.0060   32.9450 C.ar   21  TYR21      -0.0201
      7  CD1       12.7110  -16.0960   33.0460 C.ar   21  TYR21      -0.0009
      8  CD2       13.0710  -13.7530   33.2740 C.ar   21  TYR21      -0.0009
      9  CE1       11.3990  -15.9350   33.4670 C.ar   21  TYR21       0.0417
     10  CE2       11.7700  -13.5820   33.6920 C.ar   21  TYR21       0.0417
     11  CZ        10.9380  -14.6720   33.7870 C.ar   21  TYR21       0.1957
     12  OH         9.6410  -14.4860   34.2000 O.3    21  TYR21      -0.2866
     13  N         18.7940  -14.3290   29.2350 N.3    24  VAL24      -0.1245
     14  CA        17.8890  -13.2500   28.8470 C.3    24  VAL24       0.1561
     15  C         18.3300  -11.9410   29.4940 C.2    24  VAL24       0.2260
     16  O         18.7220  -11.9200   30.6630 O.2    24  VAL24      -0.2867
     17  CB        16.4400  -13.5450   29.2940 C.3    24  VAL24       0.0252
     18  CG1       15.4870  -12.4970   28.7450 C.3    24  VAL24       0.0019
     19  CG2       16.0160  -14.9410   28.8610 C.3    24  VAL24       0.0019
     20  N         17.4650   -7.3560   29.3190 N.3    26  TRP26      -0.1241
     21  CA        16.5600   -6.3450   28.7820 C.3    26  TRP26       0.1605
     22  C         16.8690   -4.9320   29.2350 C.2    26  TRP26       0.2264
     23  O         17.5400   -4.7180   30.2480 O.2    26  TRP26      -0.2867
     24  CB        15.1000   -6.6760   29.1240 C.3    26  TRP26       0.0550
     25  CG        14.8140   -6.8630   30.5940 C.ar   26  TRP26       0.0003
     26  CD1       14.4520   -5.8990   31.4940 C.ar   26  TRP26       0.0946
     27  CD2       14.8340   -8.0980   31.3170 C.ar   26  TRP26       0.0152
     28  NE1       14.2580   -6.4610   32.7370 N.ar   26  TRP26      -0.2442
     29  CE2       14.4890   -7.8100   32.6520 C.ar   26  TRP26       0.0810
     30  CE3       15.1180   -9.4190   30.9640 C.ar   26  TRP26       0.0012
     31  CZ2       14.4200   -8.7970   33.6310 C.ar   26  TRP26       0.0191
     32  CZ3       15.0510  -10.3930   31.9330 C.ar   26  TRP26       0.0001
     33  CH2       14.7050  -10.0790   33.2510 C.ar   26  TRP26       0.0015
     34  N         14.2560   -6.7600   24.6820 N.3    45  ALA45      -0.1245
     35  CA        14.8300   -7.9600   25.2700 C.3    45  ALA45       0.1562
     36  C         15.6960   -8.7100   24.2700 C.2    45  ALA45       0.2260
     37  O         15.4470   -8.6800   23.0590 O.2    45  ALA45      -0.2867
     38  CB        13.7260   -8.8750   25.7910 C.3    45  ALA45       0.0290
     39  N         13.1870  -17.7370   28.1250 N.3    53  LEU53      -0.1245
     40  CA        12.2510  -16.9560   28.9100 C.3    53  LEU53       0.1561
     41  C         11.2170  -17.9570   29.3930 C.2    53  LEU53       0.2260
     42  O         10.2640  -18.2780   28.6820 O.2    53  LEU53      -0.2867
     43  CB        11.6120  -15.8710   28.0550 C.3    53  LEU53       0.0270
     44  CG        10.6970  -14.8780   28.7640 C.3    53  LEU53       0.0019
     45  CD1       11.4260  -14.2050   29.9220 C.3    53  LEU53       0.0001
     46  CD2       10.1890  -13.8510   27.7680 C.3    53  LEU53       0.0001
     47  N          5.6980  -18.9090   31.9640 N.3    56  HIS56      -0.1241
     48  CA         5.1730  -18.0620   33.0290 C.3    56  HIS56       0.1621
     49  C          3.8770  -17.3830   32.6010 C.2    56  HIS56       0.2264
     50  O          3.4650  -17.4710   31.4400 O.2    56  HIS56      -0.2867
     51  CB         6.1960  -16.9870   33.4000 C.3    56  HIS56       0.0745
     52  CG         6.3640  -15.9340   32.3470 C.ar   56  HIS56       0.0817
     53  ND1        7.2560  -16.0580   31.3030 N.ar   56  HIS56      -0.2268
     54  CD2        5.7390  -14.7460   32.1680 C.ar   56  HIS56       0.1154
     55  CE1        7.1780  -14.9880   30.5310 C.ar   56  HIS56       0.1986
     56  NE2        6.2680  -14.1750   31.0380 N.ar   56  HIS56      -0.2212
     57  N          1.0880  -13.7690   33.6420 N.3    58  HIS58      -0.1241
     58  CA         0.8490  -12.5530   34.3960 C.3    58  HIS58       0.1621
     59  C         -0.4710  -11.9410   33.9670 C.2    58  HIS58       0.2264
     60  O         -0.9560  -12.1880   32.8620 O.2    58  HIS58      -0.2867
     61  CB         1.9930  -11.5590   34.2000 C.3    58  HIS58       0.0745
     62  CG         2.5540  -11.5560   32.8150 C.ar   58  HIS58       0.0817
     63  ND1        1.7700  -11.3760   31.6960 N.ar   58  HIS58      -0.2268
     64  CD2        3.8200  -11.7210   32.3660 C.ar   58  HIS58       0.1154
     65  CE1        2.5310  -11.4280   30.6160 C.ar   58  HIS58       0.1986
     66  NE2        3.7790  -11.6370   30.9950 N.ar   58  HIS58      -0.2212
     67  N         -0.1020   -9.0240   26.8170 N.3    62  GLU62      -0.1245
     68  CA         1.2410   -8.6630   26.3740 C.3    62  GLU62       0.1567
     69  C          1.3920   -8.8260   24.8650 C.2    62  GLU62       0.2260
     70  O          0.7620   -9.6960   24.2560 O.2    62  GLU62      -0.2867
     71  CB         2.2910   -9.5120   27.0990 C.3    62  GLU62       0.0388
     72  CG         3.7270   -9.0450   26.8850 C.3    62  GLU62       0.1160
     73  CD         4.7380   -9.8500   27.6770 C.2    62  GLU62       0.3649
     74  OE1        4.3840  -10.9480   28.1520 O.co2  62  GLU62      -0.2457
     75  OE2        5.8920   -9.3860   27.8190 O.co2  62  GLU62      -0.2457
     76  N          4.5980   -9.1460   21.8860 N.3    64  TYR64      -0.1241
     77  CA         6.0020   -9.1920   21.4980 C.3    64  TYR64       0.1605
     78  C          6.1070   -8.7180   20.0580 C.2    64  TYR64       0.2264
     79  O          5.2630   -9.0480   19.2330 O.2    64  TYR64      -0.2867
     80  CB         6.5360  -10.6200   21.5090 C.3    64  TYR64       0.0534
     81  CG         6.6750  -11.2850   22.8450 C.ar   64  TYR64      -0.0201
     82  CD1        6.8830  -10.5560   24.0080 C.ar   64  TYR64      -0.0009
     83  CD2        6.6260  -12.6690   22.9370 C.ar   64  TYR64      -0.0009
     84  CE1        7.0260  -11.1910   25.2300 C.ar   64  TYR64       0.0417
     85  CE2        6.7620  -13.3060   24.1450 C.ar   64  TYR64       0.0417
     86  CZ         6.9580  -12.5690   25.2850 C.ar   64  TYR64       0.1957
     87  OH         7.0880  -13.2410   26.4710 O.3    64  TYR64      -0.2866
     88  N         13.6090   -8.8120   20.6430 N.3   108  PHE108     -0.1241
     89  CA        12.2190   -8.4110   20.4990 C.3   108  PHE108      0.1605
     90  C         11.8750   -7.3030   21.4650 C.2   108  PHE108      0.2264
     91  O         12.5300   -7.1370   22.5020 O.2   108  PHE108     -0.2867
     92  CB        11.2790   -9.6080   20.7230 C.3   108  PHE108      0.0534
     93  CG        11.4290  -10.2660   22.0770 C.ar  108  PHE108     -0.0203
     94  CD1       12.4270  -11.2000   22.3010 C.ar  108  PHE108     -0.0042
     95  CD2       10.5580   -9.9660   23.1170 C.ar  108  PHE108     -0.0042
     96  CE1       12.5680  -11.8100   23.5460 C.ar  108  PHE108     -0.0003
     97  CE2       10.6920  -10.5760   24.3590 C.ar  108  PHE108     -0.0003
     98  CZ        11.6980  -11.5030   24.5690 C.ar  108  PHE108     -0.0000
     99  N          8.8510   -6.0080   24.0070 N.3   110  TRP110     -0.1241
    100  CA         7.5960   -6.4210   24.6280 C.3   110  TRP110      0.1605
    101  C          6.8260   -5.1730   24.9990 C.2   110  TRP110      0.2264
    102  O          7.4130   -4.1180   25.2350 O.2   110  TRP110     -0.2867
    103  CB         7.8190   -7.3000   25.8610 C.3   110  TRP110      0.0550
    104  CG         8.1580   -6.5080   27.0740 C.ar  110  TRP110      0.0003
    105  CD1        7.2840   -5.9030   27.9280 C.ar  110  TRP110      0.0946
    106  CD2        9.4690   -6.2190   27.5650 C.ar  110  TRP110      0.0152
    107  NE1        7.9710   -5.2540   28.9260 N.ar  110  TRP110     -0.2442
    108  CE2        9.3140   -5.4340   28.7270 C.ar  110  TRP110      0.0810
    109  CE3       10.7590   -6.5460   27.1350 C.ar  110  TRP110      0.0012
    110  CZ2       10.3990   -4.9710   29.4630 C.ar  110  TRP110      0.0191
    111  CZ3       11.8390   -6.0890   27.8710 C.ar  110  TRP110      0.0001
    112  CH2       11.6510   -5.3130   29.0260 C.ar  110  TRP110      0.0015
    113  N          3.3640   -3.8830   27.4540 N.3   112  PHE112     -0.1241
    114  CA         2.2970   -4.1360   28.4290 C.3   112  PHE112      0.1605
    115  C          1.3680   -2.9350   28.4700 C.2   112  PHE112      0.2264
    116  O          1.8110   -1.8080   28.2780 O.2   112  PHE112     -0.2867
    117  CB         2.8670   -4.3130   29.8390 C.3   112  PHE112      0.0534
    118  CG         3.4830   -5.6600   30.1010 C.ar  112  PHE112     -0.0203
    119  CD1        2.7240   -6.8150   30.0290 C.ar  112  PHE112     -0.0042
    120  CD2        4.8120   -5.7600   30.4670 C.ar  112  PHE112     -0.0042
    121  CE1        3.2890   -8.0560   30.2940 C.ar  112  PHE112     -0.0003
    122  CE2        5.3880   -6.9960   30.7340 C.ar  112  PHE112     -0.0003
    123  CZ         4.6250   -8.1460   30.6520 C.ar  112  PHE112     -0.0000
    124  N          7.0350   -1.6730   33.9140 N.3   117  PHE117     -0.1241
    125  CA         7.3290   -3.0980   33.9870 C.3   117  PHE117      0.1605
    126  C          7.2460   -3.6140   35.4260 C.2   117  PHE117      0.2264
    127  O          6.7420   -4.7170   35.6810 O.2   117  PHE117     -0.2867
    128  CB         8.7340   -3.3490   33.4410 C.3   117  PHE117      0.0534
    129  CG         9.1490   -4.7920   33.4590 C.ar  117  PHE117     -0.0203
    130  CD1        8.6870   -5.6710   32.4950 C.ar  117  PHE117     -0.0042
    131  CD2       10.0250   -5.2600   34.4160 C.ar  117  PHE117     -0.0042
    132  CE1        9.0770   -6.9960   32.5020 C.ar  117  PHE117     -0.0003
    133  CE2       10.4160   -6.5870   34.4320 C.ar  117  PHE117     -0.0003
    134  CZ         9.9420   -7.4520   33.4740 C.ar  117  PHE117     -0.0000
    135  N          4.9370  -11.6250   37.5220 N.3   122  ALA122     -0.1245
    136  CA         4.9800  -12.8530   36.7500 C.3   122  ALA122      0.1562
    137  C          5.0800  -14.0580   37.6670 C.2   122  ALA122      0.2260
    138  O          5.7920  -14.0360   38.6810 O.2   122  ALA122     -0.2867
    139  CB         6.1460  -12.8280   35.7600 C.3   122  ALA122      0.0290
@<TRIPOS>BOND
     1    79    78    2
     2    78    77    1
     3    89    88    1
     4    89    92    1
     5    89    90    1
     6    92    93    1
     7    90    91    2
     8    77    80    1
     9    77    76    1
    10    80    81    1
    11    93    94   ar
    12    93    95   ar
    13    94    96   ar
    14    81    83   ar
    15    81    82   ar
    16    83    85   ar
    17    37    36    2
    18    95    97   ar
    19    96    98   ar
    20    99   100    1
    21    82    84   ar
    22    85    86   ar
    23    70    69    2
    24    36    35    1
    25    97    98   ar
    26   100   101    1
    27   100   103    1
    28    34    35    1
    29    69    68    1
    30   101   102    2
    31    84    86   ar
    32    35    38    1
    33    86    87    1
    34   103   104    1
    35    68    67    1
    36    68    71    1
    37    72    71    1
    38    72    73    1
    39   104   106   ar
    40   104   105   ar
    41   109   106   ar
    42   109   111   ar
    43   113   114    1
    44   106   108   ar
    45    73    75   ar
    46    73    74   ar
    47    46    44    1
    48   111   112   ar
    49   105   107   ar
    50    43    44    1
    51    43    40    1
    52    39    40    1
    53   116   115    2
    54   114   115    1
    55   114   117    1
    56    42    41    2
    57   108   107   ar
    58   108   110   ar
    59    18    17    1
    60    44    45    1
    61    21    24    1
    62    21    22    1
    63    21    20    1
    64    14    13    1
    65    14    17    1
    66    14    15    1
    67    19    17    1
    68    40    41    1
    69   112   110   ar
    70    24    25    1
    71    22    23    2
    72    15    16    2
    73   117   118    1
    74   119   118   ar
    75   119   121   ar
    76   118   120   ar
    77   121   123   ar
    78   120   122   ar
    79    55    56   ar
    80    55    53   ar
    81    25    27   ar
    82    25    26   ar
    83    65    66   ar
    84    65    63   ar
    85   123   122   ar
    86    30    27   ar
    87    30    32   ar
    88    66    64   ar
    89    56    54   ar
    90    53    52   ar
    91    27    29   ar
    92    50    49    2
    93    26    28   ar
    94    63    62   ar
    95    32    33   ar
    96    47    48    1
    97     4     3    2
    98    54    52   ar
    99    52    51    1
   100    64    62   ar
   101     5     6    1
   102     5     2    1
   103   130   132   ar
   104   130   129   ar
   105   132   134   ar
   106     3     2    1
   107    49    48    1
   108    29    28   ar
   109    29    31   ar
   110    62    61    1
   111    60    59    2
   112     6     7   ar
   113     6     8   ar
   114    48    51    1
   115     7     9   ar
   116     2     1    1
   117    33    31   ar
   118     8    10   ar
   119   128   129    1
   120   128   125    1
   121   129   131   ar
   122     9    11   ar
   123   134   133   ar
   124    57    58    1
   125    10    11   ar
   126    11    12    1
   127   124   125    1
   128    59    58    1
   129   125   126    1
   130    61    58    1
   131   131   133   ar
   132   126   127    2
   133   139   136    1
   134   136   135    1
   135   136   137    1
   136   137   138    2
