@<TRIPOS>MOLECULE
tmp/6a56B00.pdb
 98 93 0 0 0
SMALL
GASTEIGER

@<TRIPOS>ATOM
      1  N          6.9950  -27.4940   11.9250 N.3    47  CYS47      -0.1221
      2  CA         6.2640  -27.6220   13.1920 C.3    47  CYS47       0.1808
      3  C          5.6380  -29.0060   13.3860 C.2    47  CYS47       0.2601
      4  O          4.9970  -29.2350   14.3990 O.2    47  CYS47      -0.2717
      5  CB         5.2150  -26.5170   13.3250 C.3    47  CYS47       0.0970
      6  SG         3.6950  -26.7550   12.3740 S.3    47  CYS47      -0.0800
      7  N          5.7800  -29.9240   12.4150 N.am   48  GLN48      -0.1979
      8  CA         5.2740  -31.3050   12.6110 C.3    48  GLN48       0.1601
      9  C          6.1010  -32.2060   11.6870 C.2    48  GLN48       0.2287
     10  O          6.0040  -32.1200   10.4300 O.2    48  GLN48      -0.2864
     11  CB         3.7560  -31.4070   12.3890 C.3    48  GLN48       0.0394
     12  CG         3.0770  -32.4780   13.2660 C.3    48  GLN48       0.0908
     13  CD         3.5850  -33.8540   12.9260 C.2    48  GLN48       0.2608
     14  OE1        3.8210  -34.7220   13.7700 O.2    48  GLN48      -0.2717
     15  NE2        3.7330  -34.0710   11.6550 N.am   48  GLN48      -0.0878
     16  N         -0.1080  -26.0470    6.7070 N.3    63  ARG63      -0.1245
     17  CA        -0.3660  -26.8070    7.9410 C.3    63  ARG63       0.1563
     18  C         -1.7970  -26.5900    8.4280 C.2    63  ARG63       0.2260
     19  O         -2.3310  -25.4710    8.6220 O.2    63  ARG63      -0.2867
     20  CB         0.5250  -26.3440    9.0840 C.3    63  ARG63       0.0307
     21  CG         0.3990  -27.1240   10.3880 C.3    63  ARG63       0.0489
     22  CD         0.7590  -28.6000   10.2070 C.3    63  ARG63       0.2205
     23  NE         0.6060  -29.2900   11.4770 N.pl3  63  ARG63      -0.0865
     24  CZ         0.3190  -30.5740   11.6320 C.cat  63  ARG63       0.5346
     25  NH1        0.2510  -31.3760   10.5880 N.pl3  63  ARG63       0.1354
     26  NH2        0.1380  -31.0690   12.8480 N.pl3  63  ARG63       0.1354
     27  N         -4.3390  -23.2050    9.0810 N.3    65  PHE65      -0.1241
     28  CA        -3.6350  -21.9440    9.0210 C.3    65  PHE65       0.1605
     29  C         -2.6750  -21.9490    7.8450 C.2    65  PHE65       0.2264
     30  O         -1.5780  -21.3760    7.9450 O.2    65  PHE65      -0.2867
     31  CB        -2.9730  -21.5500   10.3550 C.3    65  PHE65       0.0534
     32  CG        -2.1480  -22.5960   11.0450 C.ar   65  PHE65      -0.0203
     33  CD1       -0.7670  -22.5740   10.9880 C.ar   65  PHE65      -0.0042
     34  CD2       -2.7570  -23.5780   11.8280 C.ar   65  PHE65      -0.0042
     35  CE1       -0.0130  -23.5210   11.6750 C.ar   65  PHE65      -0.0003
     36  CE2       -2.0000  -24.5280   12.4940 C.ar   65  PHE65      -0.0003
     37  CZ        -0.6370  -24.5100   12.3890 C.ar   65  PHE65      -0.0000
     38  N         -6.6880  -23.5840   20.1890 N.3    95  TYR95      -0.1227
     39  CA        -5.7610  -24.6930   20.3260 C.3    95  TYR95       0.1736
     40  C         -4.3070  -24.2320   20.1600 C.2    95  TYR95       0.2595
     41  O         -3.4130  -24.7800   20.8370 O.2    95  TYR95      -0.2718
     42  CB        -6.1040  -25.8010   19.3330 C.3    95  TYR95       0.0548
     43  CG        -5.3100  -27.0760   19.4370 C.ar   95  TYR95      -0.0200
     44  CD1       -5.2860  -27.8470   20.5890 C.ar   95  TYR95      -0.0009
     45  CD2       -4.6030  -27.5280   18.3530 C.ar   95  TYR95      -0.0009
     46  CE1       -4.5280  -29.0080   20.6470 C.ar   95  TYR95       0.0417
     47  CE2       -3.8660  -28.6990   18.3770 C.ar   95  TYR95       0.0417
     48  CZ        -3.8110  -29.4410   19.5420 C.ar   95  TYR95       0.1957
     49  OH        -3.0510  -30.5740   19.5620 O.3    95  TYR95      -0.2866
     50  N         -4.0590  -23.2840   19.2500 N.am   96  VAL96      -0.1980
     51  CA        -2.7010  -22.8330   18.9560 C.3    96  VAL96       0.1595
     52  C         -2.4850  -21.3220   19.1010 C.2    96  VAL96       0.2287
     53  O         -1.4590  -20.8170   18.5900 O.2    96  VAL96      -0.2864
     54  CB        -2.2610  -23.2880   17.5590 C.3    96  VAL96       0.0276
     55  CG1       -2.0740  -24.7990   17.5290 C.3    96  VAL96       0.0022
     56  CG2       -3.1840  -22.7990   16.4570 C.3    96  VAL96       0.0022
     57  N          1.3590  -18.3150   15.3610 N.3   101  PHE101     -0.1241
     58  CA         1.4170  -18.3380   13.8980 C.3   101  PHE101      0.1605
     59  C          0.8270  -17.0350   13.3690 C.2   101  PHE101      0.2264
     60  O         -0.1310  -16.4830   13.9050 O.2   101  PHE101     -0.2867
     61  CB         0.6780  -19.5600   13.3730 C.3   101  PHE101      0.0534
     62  CG         1.4270  -20.8340   13.6440 C.ar  101  PHE101     -0.0203
     63  CD1        2.5540  -21.1450   12.9020 C.ar  101  PHE101     -0.0042
     64  CD2        1.0120  -21.7040   14.6430 C.ar  101  PHE101     -0.0042
     65  CE1        3.2600  -22.3000   13.1800 C.ar  101  PHE101     -0.0003
     66  CE2        1.7350  -22.8460   14.8980 C.ar  101  PHE101     -0.0003
     67  CZ         2.8570  -23.1400   14.1860 C.ar  101  PHE101     -0.0000
     68  N          7.1990  -21.5000   18.1180 N.3   139  GLU139     -0.1245
     69  CA         6.8030  -22.5750   19.0100 C.3   139  GLU139      0.1567
     70  C          7.9350  -22.8320   19.9950 C.2   139  GLU139      0.2260
     71  O          7.6790  -23.2960   21.1240 O.2   139  GLU139     -0.2867
     72  CB         6.5010  -23.8660   18.2490 C.3   139  GLU139      0.0388
     73  CG         5.2040  -23.8040   17.4580 C.3   139  GLU139      0.1160
     74  CD         4.6470  -25.1360   17.0120 C.2   139  GLU139      0.3649
     75  OE1        5.4150  -26.1310   16.8260 O.co2 139  GLU139     -0.2457
     76  OE2        3.4120  -25.1600   16.8420 O.co2 139  GLU139     -0.2457
     77  N          4.0220  -26.9130   21.9300 N.3   145  MET145     -0.1245
     78  CA         3.9690  -28.0310   20.9720 C.3   145  MET145      0.1570
     79  C          5.2730  -28.1360   20.1550 C.2   145  MET145      0.2261
     80  O          5.2630  -28.3860   18.9500 O.2   145  MET145     -0.2867
     81  CB         2.7610  -27.8800   20.0310 C.3   145  MET145      0.0387
     82  CG         1.4370  -27.8110   20.8060 C.3   145  MET145      0.0595
     83  SD         0.0770  -27.4280   19.6910 S.3   145  MET145     -0.1393
     84  CE        -1.2730  -27.3700   20.8670 C.3   145  MET145      0.0692
     85  N          7.8190  -30.3330   20.6500 N.3   147  SER147     -0.1202
     86  CA         8.5610  -31.5820   20.6800 C.3   147  SER147      0.2020
     87  C          8.5550  -32.3200   19.3420 C.2   147  SER147      0.2618
     88  O          9.4300  -33.1220   19.1050 O.2   147  SER147     -0.2717
     89  CB         8.0000  -32.4810   21.7390 C.3   147  SER147      0.2103
     90  OG         6.6460  -32.8290   21.4400 O.3   147  SER147     -0.2182
     91  N          7.5480  -32.0650   18.5120 N.am  148  ASP148     -0.1973
     92  CA         7.4390  -32.6890   17.1950 C.3   148  ASP148      0.1709
     93  C          8.0250  -31.8190   16.0740 C.2   148  ASP148      0.2293
     94  O          7.8440  -32.1370   14.8960 O.2   148  ASP148     -0.2864
     95  CB         5.9940  -33.0370   16.8550 C.3   148  ASP148      0.1436
     96  CG         5.0240  -31.8780   16.8920 C.2   148  ASP148      0.3671
     97  OD1        5.4610  -30.7460   17.1000 O.co2 148  ASP148     -0.2456
     98  OD2        3.8500  -32.1200   16.6700 O.co2 148  ASP148     -0.2456
@<TRIPOS>BOND
     1    16    17    1
     2    29    30    2
     3    29    28    1
     4    17    18    1
     5    17    20    1
     6    18    19    2
     7    28    27    1
     8    28    31    1
     9    20    21    1
    10    22    21    1
    11    22    23    1
    12    31    32    1
    13    10     9    2
    14    25    24    1
    15    33    32   ar
    16    33    35   ar
    17    32    34   ar
    18    23    24    2
    19    24    26    1
    20    15    13   am
    21    35    37   ar
    22     9     8    1
    23    34    36   ar
    24     1     2    1
    25     6     5    1
    26    11     8    1
    27    11    12    1
    28    37    36   ar
    29     7     8    1
    30     7     3   am
    31    63    65   ar
    32    63    62   ar
    33    13    12    1
    34    13    14    2
    35    65    67   ar
    36     2     5    1
    37     2     3    1
    38    59    58    1
    39    59    60    2
    40    61    62    1
    41    61    58    1
    42     3     4    2
    43    62    64   ar
    44    58    57    1
    45    67    66   ar
    46    64    66   ar
    47    94    93    2
    48    93    92    1
    49    56    54    1
    50    98    96   ar
    51    75    74   ar
    52    76    74   ar
    53    95    96    1
    54    95    92    1
    55    96    97   ar
    56    74    73    1
    57    92    91    1
    58    73    72    1
    59    55    54    1
    60    54    51    1
    61    68    69    1
    62    72    69    1
    63    45    47   ar
    64    45    43   ar
    65    47    48   ar
    66    91    87   am
    67    53    52    2
    68    80    79    2
    69    51    52    1
    70    51    50    1
    71    69    70    1
    72    88    87    2
    73    50    40   am
    74    42    43    1
    75    42    39    1
    76    87    86    1
    77    43    44   ar
    78    48    49    1
    79    48    46   ar
    80    83    82    1
    81    83    84    1
    82    70    71    2
    83    81    82    1
    84    81    78    1
    85    79    78    1
    86    40    39    1
    87    40    41    2
    88    38    39    1
    89    44    46   ar
    90    85    86    1
    91    86    89    1
    92    78    77    1
    93    90    89    1
