@<TRIPOS>MOLECULE
tmp/6a5mA00.pdb
 219 221 0 0 0
SMALL
GASTEIGER

@<TRIPOS>ATOM
      1  N         10.8050   11.5670  -12.0360 N.3   239  PRO239     -0.2116
      2  CA        11.8310   10.6370  -11.5430 C.3   239  PRO239      0.1372
      3  C         12.2250    9.6300  -12.6160 C.2   239  PRO239      0.2244
      4  O         11.3710    9.2370  -13.4180 O.2   239  PRO239     -0.2868
      5  CB        11.1400    9.9260  -10.3760 C.3   239  PRO239      0.0268
      6  CG        10.0320   10.8260   -9.9690 C.3   239  PRO239      0.0207
      7  CD         9.5990   11.5690  -11.1920 C.3   239  PRO239      0.0892
      8  N          1.5520   19.2970   -3.3510 N.3   333  SER333     -0.1202
      9  CA         2.1380   18.8080   -2.1050 C.3   333  SER333      0.2020
     10  C          2.2370   17.2800   -1.9820 C.2   333  SER333      0.2619
     11  O          2.5870   16.7730   -0.9160 O.2   333  SER333     -0.2717
     12  CB         1.3360   19.3630   -0.9180 C.3   333  SER333      0.2103
     13  OG        -0.0400   19.0170   -1.0240 O.3   333  SER333     -0.2182
     14  N          1.9560   16.5590   -3.0690 N.am  334  ARG334     -0.1965
     15  CA         1.9780   15.0920   -3.0720 C.3   334  ARG334      0.1729
     16  C          2.8900   14.5170   -4.1630 C.2   334  ARG334      0.2617
     17  O          2.6820   13.3880   -4.6080 O.2   334  ARG334     -0.2715
     18  CB         0.5570   14.5250   -3.2670 C.3   334  ARG334      0.0348
     19  CG        -0.4280   14.7980   -2.1190 C.3   334  ARG334      0.0492
     20  CD        -1.8230   14.2260   -2.4060 C.3   334  ARG334      0.2205
     21  NE        -2.2710   14.5490   -3.7650 N.pl3 334  ARG334     -0.0865
     22  CZ        -2.9190   15.6650   -4.0810 C.cat 334  ARG334      0.5346
     23  NH1       -3.2200   16.5400   -3.1300 N.pl3 334  ARG334      0.1354
     24  NH2       -3.2690   15.9100   -5.3350 N.pl3 334  ARG334      0.1354
     25  N          3.8790   15.2870   -4.6090 N.am  335  GLY335     -0.1940
     26  CA         4.7440   14.8430   -5.6890 C.3   335  GLY335      0.2014
     27  C          3.9750   14.6610   -6.9870 C.2   335  GLY335      0.2638
     28  O          3.0530   15.4230   -7.2690 O.2   335  GLY335     -0.2714
     29  N          4.3450   13.6510   -7.7700 N.am  336  TRP336     -0.1973
     30  CA         3.6820   13.3700   -9.0400 C.3   336  TRP336      0.1640
     31  C          2.3980   12.5490   -8.8690 C.2   336  TRP336      0.2290
     32  O          2.3190   11.6580   -8.0200 O.2   336  TRP336     -0.2864
     33  CB         4.6440   12.6470   -9.9840 C.3   336  TRP336      0.0576
     34  CG         5.8200   13.5050  -10.3710 C.ar  336  TRP336      0.0006
     35  CD1        7.0090   13.6150   -9.7040 C.ar  336  TRP336      0.0946
     36  CD2        5.9090   14.3990  -11.5000 C.ar  336  TRP336      0.0152
     37  NE1        7.8310   14.5090  -10.3530 N.ar  336  TRP336     -0.2442
     38  CE2        7.1820   15.0020  -11.4530 C.ar  336  TRP336      0.0810
     39  CE3        5.0440   14.7290  -12.5460 C.ar  336  TRP336      0.0012
     40  CZ2        7.6070   15.9240  -12.4130 C.ar  336  TRP336      0.0191
     41  CZ3        5.4670   15.6450  -13.4990 C.ar  336  TRP336      0.0001
     42  CH2        6.7400   16.2370  -13.4230 C.ar  336  TRP336      0.0015
     43  N         -0.8560   -2.2050  -11.6760 N.3   353  TYR353     -0.1241
     44  CA         0.3150   -1.8610  -10.8730 C.3   353  TYR353      0.1605
     45  C          1.4720   -2.8050  -11.2340 C.2   353  TYR353      0.2264
     46  O          1.5550   -3.9200  -10.7170 O.2   353  TYR353     -0.2867
     47  CB         0.0290   -1.9250   -9.3710 C.3   353  TYR353      0.0534
     48  CG         1.1010   -1.1990   -8.5910 C.ar  353  TYR353     -0.0201
     49  CD1        2.3240   -1.8070   -8.3210 C.ar  353  TYR353     -0.0009
     50  CD2        0.9180    0.1200   -8.1780 C.ar  353  TYR353     -0.0009
     51  CE1        3.3160   -1.1480   -7.6380 C.ar  353  TYR353      0.0417
     52  CE2        1.9140    0.7970   -7.4890 C.ar  353  TYR353      0.0417
     53  CZ         3.1140    0.1580   -7.2200 C.ar  353  TYR353      0.1957
     54  OH         4.1200    0.8140   -6.5280 O.3   353  TYR353     -0.2866
     55  N          8.1910    3.7760   -0.8740 N.3   371  GLU371     -0.1231
     56  CA         7.1400    4.5190   -1.5140 C.3   371  GLU371      0.1699
     57  C          6.4870    3.7280   -2.6320 C.2   371  GLU371      0.2592
     58  O          5.3160    3.8830   -2.8850 O.2   371  GLU371     -0.2718
     59  CB         7.6420    5.8470   -2.0250 C.3   371  GLU371      0.0402
     60  CG         7.0220    6.9980   -1.2770 C.3   371  GLU371      0.1161
     61  CD         8.0230    7.9480   -0.6740 C.2   371  GLU371      0.3649
     62  OE1        8.9850    7.5170   -0.0310 O.co2 371  GLU371     -0.2457
     63  OE2        7.8260    9.1450   -0.8310 O.co2 371  GLU371     -0.2457
     64  N          7.2760    2.9290   -3.3260 N.am  372  TYR372     -0.1976
     65  CA         6.7900    2.1520   -4.4380 C.3   372  TYR372      0.1639
     66  C          6.5920    0.6750   -4.1280 C.2   372  TYR372      0.2290
     67  O          6.7380   -0.1350   -4.9750 O.2   372  TYR372     -0.2864
     68  CB         7.6790    2.3420   -5.6380 C.3   372  TYR372      0.0560
     69  CG         7.8630    3.7670   -6.0330 C.ar  372  TYR372     -0.0198
     70  CD1        6.8470    4.4680   -6.6360 C.ar  372  TYR372     -0.0009
     71  CD2        9.0420    4.4090   -5.8020 C.ar  372  TYR372     -0.0009
     72  CE1        6.9980    5.7640   -6.9930 C.ar  372  TYR372      0.0417
     73  CE2        9.2060    5.7090   -6.1610 C.ar  372  TYR372      0.0417
     74  CZ         8.1750    6.3790   -6.7610 C.ar  372  TYR372      0.1957
     75  OH         8.3250    7.6680   -7.1190 O.3   372  TYR372     -0.2866
     76  N          2.6590    3.2410  -10.6830 N.3   407  ARG407     -0.1231
     77  CA         3.4830    3.6550   -9.5460 C.3   407  ARG407      0.1694
     78  C          3.2650    5.1240   -9.1590 C.2   407  ARG407      0.2592
     79  O          3.6120    5.5280   -8.0550 O.2   407  ARG407     -0.2718
     80  CB         4.9730    3.4320   -9.8490 C.3   407  ARG407      0.0321
     81  CG         5.6120    4.5950  -10.5880 C.3   407  ARG407      0.0489
     82  CD         6.7670    4.1650  -11.4550 C.3   407  ARG407      0.2205
     83  NE         7.9690    3.8320  -10.7000 N.pl3 407  ARG407     -0.0865
     84  CZ         8.8460    4.7280  -10.2610 C.cat 407  ARG407      0.5346
     85  NH1        8.6450    6.0180  -10.4930 N.pl3 407  ARG407      0.1354
     86  NH2        9.9250    4.3340   -9.5970 N.pl3 407  ARG407      0.1354
     87  N          2.6920    5.9270  -10.0530 N.am  408  PHE408     -0.1962
     88  CA         2.5620    7.3600   -9.7690 C.3   408  PHE408      0.1771
     89  C          1.1820    7.7260   -9.2210 C.2   408  PHE408      0.2619
     90  O          0.8860    8.9050   -9.0100 O.2   408  PHE408     -0.2715
     91  CB         2.8510    8.1910  -11.0220 C.3   408  PHE408      0.0574
     92  CG         4.3150    8.2680  -11.3960 C.ar  408  PHE408     -0.0200
     93  CD1        4.7750    7.6930  -12.5710 C.ar  408  PHE408     -0.0042
     94  CD2        5.2250    8.9400  -10.5910 C.ar  408  PHE408     -0.0042
     95  CE1        6.1180    7.7760  -12.9320 C.ar  408  PHE408     -0.0003
     96  CE2        6.5660    9.0210  -10.9440 C.ar  408  PHE408     -0.0003
     97  CZ         7.0140    8.4380  -12.1190 C.ar  408  PHE408     -0.0000
     98  N          0.3280    6.7350   -8.9950 N.am  409  ILE409     -0.1963
     99  CA        -1.0300    7.0350   -8.5520 C.3   409  ILE409      0.1727
    100  C         -1.0480    7.3040   -7.0560 C.2   409  ILE409      0.2616
    101  O         -0.5350    6.5100   -6.2680 O.2   409  ILE409     -0.2715
    102  CB        -2.0080    5.8970   -8.8800 C.3   409  ILE409      0.0290
    103  CG1       -2.0250    5.6390  -10.3890 C.3   409  ILE409      0.0022
    104  CG2       -3.4310    6.2340   -8.3640 C.3   409  ILE409      0.0023
    105  CD1       -3.0230    4.5540  -10.8090 C.3   409  ILE409      0.0001
    106  N         -1.6480    8.4250   -6.6700 N.am  410  ASN410     -0.1958
    107  CA        -1.6440    8.8490   -5.2730 C.3   410  ASN410      0.1819
    108  C         -2.7870    8.2610   -4.4410 C.2   410  ASN410      0.2621
    109  O         -3.6640    7.5860   -4.9630 O.2   410  ASN410     -0.2715
    110  CB        -1.6820   10.3780   -5.2010 C.3   410  ASN410      0.1195
    111  CG        -0.3450   11.0020   -5.5400 C.2   410  ASN410      0.2630
    112  OD1        0.7020   10.4840   -5.1510 O.2   410  ASN410     -0.2716
    113  ND2       -0.3660   12.1000   -6.2820 N.am  410  ASN410     -0.0877
    114  N         -2.7510    8.5240   -3.1390 N.am  411  HIS411     -0.1973
    115  CA        -3.7840    8.0810   -2.2110 C.3   411  HIS411      0.1656
    116  C         -4.8860    9.1270   -1.9870 C.2   411  HIS411      0.2291
    117  O         -4.6150   10.3170   -1.8330 O.2   411  HIS411     -0.2864
    118  CB        -3.1700    7.7370   -0.8530 C.3   411  HIS411      0.0771
    119  CG        -4.1880    7.6280    0.2320 C.ar  411  HIS411      0.0820
    120  ND1       -4.8940    6.4690    0.4730 N.ar  411  HIS411     -0.2267
    121  CD2       -4.6670    8.5490    1.1020 C.ar  411  HIS411      0.1154
    122  CE1       -5.7530    6.6780    1.4550 C.ar  411  HIS411      0.1986
    123  NE2       -5.6350    7.9320    1.8520 N.ar  411  HIS411     -0.2212
    124  N         -6.5080    5.9170   -5.4450 N.3   449  TYR449     -0.1241
    125  CA        -7.1230    4.7760   -4.7570 C.3   449  TYR449      0.1605
    126  C         -6.7560    4.7940   -3.2750 C.2   449  TYR449      0.2264
    127  O         -6.0260    5.6670   -2.8340 O.2   449  TYR449     -0.2867
    128  CB        -6.6980    3.4520   -5.3950 C.3   449  TYR449      0.0534
    129  CG        -5.2290    3.1300   -5.2390 C.ar  449  TYR449     -0.0201
    130  CD1       -4.2890    3.6880   -6.0970 C.ar  449  TYR449     -0.0009
    131  CD2       -4.7840    2.2580   -4.2570 C.ar  449  TYR449     -0.0009
    132  CE1       -2.9440    3.3940   -5.9760 C.ar  449  TYR449      0.0417
    133  CE2       -3.4250    1.9510   -4.1270 C.ar  449  TYR449      0.0417
    134  CZ        -2.5150    2.5310   -4.9900 C.ar  449  TYR449      0.1957
    135  OH        -1.1680    2.2490   -4.8940 O.3   449  TYR449     -0.2866
    136  N         -4.6340    3.5330   -0.4030 N.3   451  TYR451     -0.1241
    137  CA        -3.3970    2.8150   -0.0760 C.3   451  TYR451      0.1605
    138  C         -3.6020    1.7240    0.9770 C.2   451  TYR451      0.2264
    139  O         -2.9030    0.7040    0.9660 O.2   451  TYR451     -0.2867
    140  CB        -2.3090    3.7880    0.4040 C.3   451  TYR451      0.0534
    141  CG        -1.6440    4.5560   -0.7220 C.ar  451  TYR451     -0.0201
    142  CD1       -2.1610    4.5210   -2.0280 C.ar  451  TYR451     -0.0009
    143  CD2       -0.5030    5.3040   -0.4920 C.ar  451  TYR451     -0.0009
    144  CE1       -1.5580    5.2110   -3.0560 C.ar  451  TYR451      0.0417
    145  CE2        0.1140    6.0020   -1.5260 C.ar  451  TYR451      0.0417
    146  CZ        -0.4190    5.9470   -2.7980 C.ar  451  TYR451      0.1957
    147  OH         0.1980    6.6440   -3.8060 O.3   451  TYR451     -0.2866
    148  N         -2.9610    1.4390    4.1420 N.3   453  TYR453     -0.1241
    149  CA        -2.0020    1.1980    5.2190 C.3   453  TYR453      0.1605
    150  C         -2.7400    1.1550    6.5390 C.2   453  TYR453      0.2264
    151  O         -3.6950    1.9090    6.7390 O.2   453  TYR453     -0.2867
    152  CB        -0.9270    2.2890    5.2800 C.3   453  TYR453      0.0534
    153  CG        -0.0480    2.3840    4.0580 C.ar  453  TYR453     -0.0201
    154  CD1        0.5310    1.2540    3.4960 C.ar  453  TYR453     -0.0009
    155  CD2        0.1970    3.6080    3.4620 C.ar  453  TYR453     -0.0009
    156  CE1        1.3400    1.3520    2.3620 C.ar  453  TYR453      0.0417
    157  CE2        1.0010    3.7160    2.3410 C.ar  453  TYR453      0.0417
    158  CZ         1.5690    2.5910    1.7920 C.ar  453  TYR453      0.1957
    159  OH         2.3660    2.7220    0.6720 O.3   453  TYR453     -0.2866
    160  N          3.0140    9.7300    8.6860 N.3   468  LYS468     -0.1231
    161  CA         2.9120   10.6160    7.5390 C.3   468  LYS468      0.1693
    162  C          1.4920   11.1640    7.4130 C.2   468  LYS468      0.2592
    163  O          0.5210   10.4020    7.4550 O.2   468  LYS468     -0.2718
    164  CB         3.3100    9.8930    6.2520 C.3   468  LYS468      0.0285
    165  CG         3.7700   10.8400    5.1550 C.3   468  LYS468      0.0035
    166  CD         4.2320   10.0870    3.9230 C.3   468  LYS468      0.0206
    167  CE         5.0220   10.9950    2.9930 C.3   468  LYS468      0.1093
    168  NZ         4.2770   12.2410    2.6510 N.3   468  LYS468     -0.1314
    169  N          1.3750   12.4810    7.2460 N.am  469  LEU469     -0.1966
    170  CA         0.0780   13.1270    7.0870 C.3   469  LEU469      0.1728
    171  C         -0.5150   12.8990    5.6940 C.2   469  LEU469      0.2616
    172  O          0.2170   12.7850    4.7110 O.2   469  LEU469     -0.2715
    173  CB         0.1960   14.6310    7.3650 C.3   469  LEU469      0.0311
    174  CG         0.7060   14.9360    8.7680 C.3   469  LEU469      0.0022
    175  CD1        0.8680   16.4430    9.0200 C.3   469  LEU469      0.0001
    176  CD2       -0.2140   14.3020    9.7930 C.3   469  LEU469      0.0001
    177  N         -1.8430   12.8190    5.6230 N.am  470  CYS470     -0.1954
    178  CA        -2.5430   12.6800    4.3420 C.3   470  CYS470      0.1843
    179  C         -2.9880   14.0550    3.8550 C.2   470  CYS470      0.2625
    180  O         -3.6060   14.8230    4.5960 O.2   470  CYS470     -0.2714
    181  CB        -3.7570   11.7480    4.4620 C.3   470  CYS470      0.0997
    182  SG        -4.7160   11.5490    2.9110 S.3   470  CYS470     -0.0797
    183  N         -2.6570   14.3600    2.6090 N.am  471  PHE471     -0.1960
    184  CA        -2.9710   15.6440    2.0220 C.3   471  PHE471      0.1771
    185  C         -4.0070   15.4740    0.9100 C.2   471  PHE471      0.2619
    186  O         -4.0090   16.2440   -0.0390 O.2   471  PHE471     -0.2715
    187  CB        -1.7100   16.3060    1.4410 C.3   471  PHE471      0.0574
    188  CG        -0.6500   16.6760    2.4640 C.ar  471  PHE471     -0.0200
    189  CD1       -0.9680   16.8730    3.7990 C.ar  471  PHE471     -0.0042
    190  CD2        0.6740   16.8540    2.0640 C.ar  471  PHE471     -0.0042
    191  CE1        0.0180   17.2280    4.7220 C.ar  471  PHE471     -0.0003
    192  CE2        1.6730   17.2100    2.9820 C.ar  471  PHE471     -0.0003
    193  CZ         1.3400   17.3930    4.3170 C.ar  471  PHE471     -0.0000
    194  N         -4.8740   14.4680    1.0100 N.am  472  CYS472     -0.1968
    195  CA        -5.7840   14.1590   -0.0980 C.3   472  CYS472      0.1712
    196  C         -6.8850   15.2150   -0.2930 C.2   472  CYS472      0.2296
    197  O         -7.5050   15.2790   -1.3530 O.2   472  CYS472     -0.2864
    198  CB        -6.4230   12.7840    0.1020 C.3   472  CYS472      0.0983
    199  SG        -7.7960   12.7720    1.2420 S.3   472  CYS472     -0.0798
    200  N         -1.6850    9.0310    6.5650 N.3   481  LEU481     -0.1231
    201  CA        -1.4230    8.0440    5.5330 C.3   481  LEU481      0.1693
    202  C         -1.0240    6.7280    6.2110 C.2   481  LEU481      0.2592
    203  O         -1.4580    5.6410    5.8090 O.2   481  LEU481     -0.2718
    204  CB        -0.3250    8.5530    4.5980 C.3   481  LEU481      0.0284
    205  CG        -0.2650    8.0330    3.1660 C.3   481  LEU481      0.0019
    206  CD1       -1.6490    7.9720    2.5680 C.3   481  LEU481      0.0001
    207  CD2        0.6420    8.9320    2.3250 C.3   481  LEU481      0.0001
    208  N         -0.2060    6.8480    7.2550 N.am  482  TYR482     -0.1976
    209  CA         0.1380    5.7240    8.1090 C.3   482  TYR482      0.1639
    210  C          0.6310    6.2190    9.4670 C.2   482  TYR482      0.2290
    211  O          0.5920    7.4230    9.7430 O.2   482  TYR482     -0.2864
    212  CB         1.1930    4.8320    7.4440 C.3   482  TYR482      0.0560
    213  CG         2.4390    5.5370    6.9550 C.ar  482  TYR482     -0.0198
    214  CD1        3.4130    5.9650    7.8410 C.ar  482  TYR482     -0.0009
    215  CD2        2.6590    5.7390    5.5960 C.ar  482  TYR482     -0.0009
    216  CE1        4.5580    6.6000    7.3900 C.ar  482  TYR482      0.0417
    217  CE2        3.8000    6.3690    5.1380 C.ar  482  TYR482      0.0417
    218  CZ         4.7450    6.7940    6.0370 C.ar  482  TYR482      0.1957
    219  OH         5.8810    7.4270    5.5870 O.3   482  TYR482     -0.2866
@<TRIPOS>BOND
     1    41    42   ar
     2    41    39   ar
     3    42    40   ar
     4     4     3    2
     5    95    93   ar
     6    95    97   ar
     7     3     2    1
     8    93    92   ar
     9    39    36   ar
    10    40    38   ar
    11    97    96   ar
    12     1     2    1
    13     1     7    1
    14    43    44    1
    15     2     5    1
    16    36    38   ar
    17    36    34   ar
    18    82    83    1
    19    82    81    1
    20    38    37   ar
    21    92    91    1
    22    92    94   ar
    23    45    44    1
    24    45    46    2
    25     7     6    1
    26    91    88    1
    27    96    94   ar
    28    44    47    1
    29   105   103    1
    30    83    84    2
    31    76    77    1
    32    81    80    1
    33    85    84    1
    34   103   102    1
    35     5     6    1
    36    34    33    1
    37    34    35   ar
    38    37    35   ar
    39    84    86    1
    40    87    88    1
    41    87    78   am
    42    33    30    1
    43    80    77    1
    44    88    89    1
    45    77    78    1
    46    47    48    1
    47    89    90    2
    48    89    98   am
    49    78    79    2
    50    30    31    1
    51    30    29    1
    52    98    99    1
    53   102    99    1
    54   102   104    1
    55    31    32    2
    56    48    49   ar
    57    48    50   ar
    58    99   100    1
    59    49    51   ar
    60    50    52   ar
    61    29    27   am
    62    51    53   ar
    63    52    53   ar
    64    28    27    2
    65    53    54    1
    66    75    74    1
    67   100   106   am
    68   100   101    2
    69    72    74   ar
    70    72    70   ar
    71    27    26    1
    72    74    73   ar
    73   106   107    1
    74    70    69   ar
    75   113   111   am
    76    73    71   ar
    77   130   132   ar
    78   130   129   ar
    79    69    71   ar
    80    69    68    1
    81   132   134   ar
    82    26    25    1
    83    68    65    1
    84   111   110    1
    85   111   112    2
    86   124   125    1
    87   128   129    1
    88   128   125    1
    89    24    22    1
    90   107   110    1
    91   107   108    1
    92   129   131   ar
    93   134   135    1
    94   134   133   ar
    95    67    66    2
    96   109   108    2
    97   125   126    1
    98    25    16   am
    99    17    16    2
   100   108   114   am
   101    65    66    1
   102    65    64    1
   103   131   133   ar
   104    16    15    1
   105    22    21    2
   106    22    23    1
   107   147   146    1
   108    21    20    1
   109     8     9    1
   110    64    57   am
   111   126   127    2
   112    18    15    1
   113    18    19    1
   114   114   115    1
   115    15    14    1
   116    14    10   am
   117   144   146   ar
   118   144   142   ar
   119    58    57    2
   120   146   145   ar
   121    57    56    1
   122    20    19    1
   123   115   116    1
   124   115   118    1
   125     9    10    1
   126     9    12    1
   127   142   141   ar
   128    59    56    1
   129    59    60    1
   130   116   117    2
   131    10    11    2
   132   145   143   ar
   133    56    55    1
   134   197   196    2
   135    60    61    1
   136    13    12    1
   137   118   119    1
   138    63    61   ar
   139   141   143   ar
   140   141   140    1
   141    61    62   ar
   142   136   137    1
   143   196   195    1
   144   195   198    1
   145   195   194    1
   146   137   140    1
   147   137   138    1
   148   186   185    2
   149   198   199    1
   150   119   120   ar
   151   119   121   ar
   152   120   122   ar
   153   159   158    1
   154   185   194   am
   155   185   184    1
   156   139   138    2
   157   121   123   ar
   158   187   184    1
   159   187   188    1
   160   122   123   ar
   161   158   157   ar
   162   158   156   ar
   163   184   183    1
   164   190   188   ar
   165   190   192   ar
   166   207   205    1
   167   157   155   ar
   168   156   154   ar
   169   188   189   ar
   170   206   205    1
   171   183   179   am
   172   168   167    1
   173   182   181    1
   174   192   193   ar
   175   167   166    1
   176   205   204    1
   177   155   153   ar
   178   154   153   ar
   179   189   191   ar
   180   179   178    1
   181   179   180    2
   182   166   165    1
   183   153   152    1
   184   148   149    1
   185   193   191   ar
   186   178   181    1
   187   178   177    1
   188   204   201    1
   189   172   171    2
   190   217   215   ar
   191   217   218   ar
   192   165   164    1
   193   149   152    1
   194   149   150    1
   195   201   202    1
   196   201   200    1
   197   219   218    1
   198   215   213   ar
   199   177   171   am
   200   171   170    1
   201   203   202    2
   202   218   216   ar
   203   202   208   am
   204   164   161    1
   205   150   151    2
   206   213   212    1
   207   213   214   ar
   208   170   169    1
   209   170   173    1
   210   169   162   am
   211   208   209    1
   212   173   174    1
   213   216   214   ar
   214   162   163    2
   215   162   161    1
   216   212   209    1
   217   161   160    1
   218   209   210    1
   219   174   175    1
   220   174   176    1
   221   210   211    2
