@<TRIPOS>MOLECULE
tmp/6a6aA00.pdb
 100 98 0 0 0
SMALL
GASTEIGER

@<TRIPOS>ATOM
      1  N        -13.3570    4.3770   23.0320 N.3    67  ILE67      -0.1245
      2  CA       -13.8040    5.0110   24.2920 C.3    67  ILE67       0.1561
      3  C        -13.3010    6.4620   24.3350 C.2    67  ILE67       0.2260
      4  O        -14.0680    7.3700   24.5610 O.2    67  ILE67      -0.2867
      5  CB       -13.3320    4.2020   25.5180 C.3    67  ILE67       0.0252
      6  CG1      -13.8640    2.7660   25.4890 C.3    67  ILE67       0.0019
      7  CG2      -13.6760    4.8850   26.8320 C.3    67  ILE67       0.0019
      8  CD1      -13.1160    1.8020   26.4150 C.3    67  ILE67       0.0001
      9  N        -15.1510    8.6340   21.8030 N.3    70  GLU70      -0.1231
     10  CA       -16.5230    8.8480   22.2700 C.3    70  GLU70       0.1699
     11  C        -16.5120    9.9280   23.3600 C.2    70  GLU70       0.2592
     12  O        -17.3970   10.7910   23.4020 O.2    70  GLU70      -0.2718
     13  CB       -17.1670    7.5570   22.7960 C.3    70  GLU70       0.0402
     14  CG       -17.5390    6.5790   21.7060 C.3    70  GLU70       0.1161
     15  CD       -18.0630    5.2220   22.1560 C.2    70  GLU70       0.3649
     16  OE1      -18.7650    4.5620   21.3390 O.co2  70  GLU70      -0.2457
     17  OE2      -17.7600    4.8130   23.3100 O.co2  70  GLU70      -0.2457
     18  N        -15.5130    9.8600   24.2460 N.am   71  LYS71      -0.1980
     19  CA       -15.3860   10.8360   25.3000 C.3    71  LYS71       0.1596
     20  C        -15.1330   12.2090   24.6760 C.2    71  LYS71       0.2287
     21  O        -15.7150   13.2040   25.0930 O.2    71  LYS71      -0.2864
     22  CB       -14.2730   10.4760   26.2790 C.3    71  LYS71       0.0298
     23  CG       -14.1770   11.4040   27.4860 C.3    71  LYS71       0.0038
     24  CD       -15.4350   11.5200   28.2970 C.3    71  LYS71       0.0206
     25  CE       -15.8950   10.1900   28.8420 C.3    71  LYS71       0.1093
     26  NZ       -17.2270   10.2870   29.4920 N.3    71  LYS71      -0.1314
     27  N        -18.4160   13.6510   23.2190 N.3    74  GLU74      -0.1231
     28  CA       -19.2380   14.1610   24.3200 C.3    74  GLU74       0.1699
     29  C        -18.8230   15.5950   24.6810 C.2    74  GLU74       0.2592
     30  O        -19.6790   16.4460   24.9100 O.2    74  GLU74      -0.2718
     31  CB       -19.0930   13.3110   25.5770 C.3    74  GLU74       0.0402
     32  CG       -19.7620   11.9510   25.4930 C.3    74  GLU74       0.1161
     33  CD       -19.4120   11.0230   26.6540 C.2    74  GLU74       0.3649
     34  OE1      -18.2410   11.0100   27.0850 O.co2  74  GLU74      -0.2457
     35  OE2      -20.3050   10.3240   27.1340 O.co2  74  GLU74      -0.2457
     36  N        -17.5150   15.8680   24.7420 N.am   75  TYR75      -0.1976
     37  CA       -17.0900   17.2060   25.1310 C.3    75  TYR75       0.1639
     38  C        -17.2790   18.1920   23.9700 C.2    75  TYR75       0.2290
     39  O        -17.6310   19.3190   24.2380 O.2    75  TYR75      -0.2864
     40  CB       -15.6830   17.2120   25.7200 C.3    75  TYR75       0.0560
     41  CG       -15.6340   16.9060   27.1990 C.ar   75  TYR75      -0.0198
     42  CD1      -16.0100   17.8520   28.1450 C.ar   75  TYR75      -0.0009
     43  CD2      -15.1770   15.6790   27.6610 C.ar   75  TYR75      -0.0009
     44  CE1      -15.9600   17.5870   29.5060 C.ar   75  TYR75       0.0417
     45  CE2      -15.1240   15.3960   29.0190 C.ar   75  TYR75       0.0417
     46  CZ       -15.5040   16.3560   29.9470 C.ar   75  TYR75       0.1957
     47  OH       -15.4140   16.0790   31.2870 O.3    75  TYR75      -0.2866
     48  N        -20.6800   19.5120   24.1150 N.3    78  LYS78      -0.1245
     49  CA       -20.9770   20.3370   25.2730 C.3    78  LYS78       0.1561
     50  C        -20.3790   21.7350   25.0970 C.2    78  LYS78       0.2260
     51  O        -20.5290   22.5550   25.9760 O.2    78  LYS78      -0.2867
     52  CB       -20.5390   19.6080   26.5480 C.3    78  LYS78       0.0271
     53  CG       -21.3540   18.3580   26.8370 C.3    78  LYS78       0.0035
     54  CD       -20.8960   17.6190   28.1020 C.3    78  LYS78       0.0206
     55  CE       -21.7150   16.3820   28.4180 C.3    78  LYS78       0.1093
     56  NZ       -21.2060   15.7050   29.6330 N.3    78  LYS78      -0.1314
     57  N        -10.5240   11.7340   31.8220 N.3    92  TRP92      -0.1227
     58  CA       -11.4890   10.6340   32.0820 C.3    92  TRP92       0.1737
     59  C        -11.0380    9.3020   31.4730 C.2    92  TRP92       0.2595
     60  O        -11.4340    8.2280   31.9310 O.2    92  TRP92      -0.2718
     61  CB       -12.9000   11.0280   31.6050 C.3    92  TRP92       0.0564
     62  CG       -13.4550   12.1240   32.4540 C.ar   92  TRP92       0.0003
     63  CD1      -13.4750   13.4630   32.1870 C.ar   92  TRP92       0.0946
     64  CD2      -13.9580   11.9660   33.7870 C.ar   92  TRP92       0.0152
     65  NE1      -14.0060   14.1420   33.2500 N.ar   92  TRP92      -0.2442
     66  CE2      -14.3000   13.2530   34.2490 C.ar   92  TRP92       0.0810
     67  CE3      -14.1680   10.8600   34.6180 C.ar   92  TRP92       0.0012
     68  CZ2      -14.8510   13.4600   35.5120 C.ar   92  TRP92       0.0191
     69  CZ3      -14.7130   11.0650   35.8660 C.ar   92  TRP92       0.0001
     70  CH2      -15.0480   12.3500   36.3010 C.ar   92  TRP92       0.0015
     71  N        -10.2260    9.3750   30.4260 N.am   93  VAL93      -0.1980
     72  CA        -9.9240    8.2460   29.5650 C.3    93  VAL93       0.1595
     73  C         -8.4530    8.3840   29.1680 C.2    93  VAL93       0.2287
     74  O         -8.0420    9.4640   28.7240 O.2    93  VAL93      -0.2864
     75  CB       -10.8650    8.2190   28.3470 C.3    93  VAL93       0.0276
     76  CG1      -10.4170    7.2090   27.3050 C.3    93  VAL93       0.0022
     77  CG2      -12.3140    7.9690   28.7430 C.3    93  VAL93       0.0022
     78  N        -12.8360    8.3800   39.4810 N.3   151  GLU151     -0.1245
     79  CA       -13.3590    7.2540   38.7400 C.3   151  GLU151      0.1567
     80  C        -13.6300    6.1190   39.7200 C.2   151  GLU151      0.2260
     81  O        -12.8320    5.1980   39.8930 O.2   151  GLU151     -0.2867
     82  CB       -12.4020    6.8660   37.6200 C.3   151  GLU151      0.0388
     83  CG       -12.1380    8.0030   36.6530 C.3   151  GLU151      0.1160
     84  CD       -12.0630    7.6460   35.1770 C.2   151  GLU151      0.3649
     85  OE1      -12.7780    6.7420   34.7440 O.co2 151  GLU151     -0.2457
     86  OE2      -11.3200    8.3160   34.4560 O.co2 151  GLU151     -0.2457
     87  N        -15.3370    3.4970   39.7890 N.3   153  TRP153     -0.1241
     88  CA       -15.4710    2.1490   39.2040 C.3   153  TRP153      0.1605
     89  C        -14.1020    1.4750   38.9570 C.2   153  TRP153      0.2264
     90  O        -14.0020    0.2880   38.8820 O.2   153  TRP153     -0.2867
     91  CB       -16.2680    2.2330   37.8960 C.3   153  TRP153      0.0550
     92  CG       -15.8130    3.3600   37.0270 C.ar  153  TRP153      0.0003
     93  CD1      -14.7910    3.3270   36.1390 C.ar  153  TRP153      0.0946
     94  CD2      -16.3560    4.6920   36.9600 C.ar  153  TRP153      0.0152
     95  NE1      -14.6340    4.5470   35.5460 N.ar  153  TRP153     -0.2442
     96  CE2      -15.5820    5.4080   36.0280 C.ar  153  TRP153      0.0810
     97  CE3      -17.4050    5.3590   37.6010 C.ar  153  TRP153      0.0012
     98  CZ2      -15.8260    6.7470   35.7190 C.ar  153  TRP153      0.0191
     99  CZ3      -17.6350    6.6880   37.3090 C.ar  153  TRP153      0.0001
    100  CH2      -16.8580    7.3680   36.3780 C.ar  153  TRP153      0.0015
@<TRIPOS>BOND
     1    16    15   ar
     2    14    15    1
     3    14    13    1
     4     9    10    1
     5    15    17   ar
     6    10    13    1
     7    10    11    1
     8     1     2    1
     9    27    28    1
    10    11    12    2
    11    11    18   am
    12    38    39    2
    13    38    37    1
    14    48    49    1
    15    18    19    1
    16     2     3    1
    17     2     5    1
    18    28    29    1
    19    28    31    1
    20     3     4    2
    21    20    21    2
    22    20    19    1
    23    29    36   am
    24    29    30    2
    25    36    37    1
    26    50    49    1
    27    50    51    2
    28    37    40    1
    29    49    52    1
    30    19    22    1
    31     6     5    1
    32     6     8    1
    33    32    31    1
    34    32    33    1
    35     5     7    1
    36    40    41    1
    37    22    23    1
    38    52    53    1
    39    33    34   ar
    40    33    35   ar
    41    53    54    1
    42    41    43   ar
    43    41    42   ar
    44    76    75    1
    45    23    24    1
    46    43    45   ar
    47    54    55    1
    48    42    44   ar
    49    24    25    1
    50    75    77    1
    51    75    72    1
    52    55    56    1
    53    74    73    2
    54    25    26    1
    55    45    46   ar
    56    73    72    1
    57    44    46   ar
    58    72    71    1
    59    46    47    1
    60    71    59   am
    61    59    60    2
    62    59    58    1
    63    61    58    1
    64    61    62    1
    65    57    58    1
    66    63    62   ar
    67    63    65   ar
    68    62    64   ar
    69    65    66   ar
    70    64    66   ar
    71    64    67   ar
    72    66    68   ar
    73    86    84   ar
    74    67    69   ar
    75    85    84   ar
    76    84    83    1
    77    68    70   ar
    78    95    96   ar
    79    95    93   ar
    80    98    96   ar
    81    98   100   ar
    82    69    70   ar
    83    96    94   ar
    84    93    92   ar
    85   100    99   ar
    86    83    82    1
    87    94    92   ar
    88    94    97   ar
    89    92    91    1
    90    99    97   ar
    91    82    79    1
    92    91    88    1
    93    79    78    1
    94    79    80    1
    95    90    89    2
    96    89    88    1
    97    88    87    1
    98    80    81    2
