@<TRIPOS>MOLECULE
tmp/6a7jA01.pdb
 162 152 0 0 0
SMALL
GASTEIGER

@<TRIPOS>ATOM
      1  N         -1.6080  -18.0470  -19.0650 N.3    79  GLY79      -0.1210
      2  CA        -1.1530  -17.3780  -17.8390 C.3    79  GLY79       0.1956
      3  C         -2.2680  -17.1550  -16.8150 C.2    79  GLY79       0.2611
      4  O         -2.1050  -17.4390  -15.6350 O.2    79  GLY79      -0.2717
      5  N         -3.4150  -16.6780  -17.2780 N.am   80  LEU80      -0.1979
      6  CA        -4.5530  -16.4420  -16.4060 C.3    80  LEU80       0.1596
      7  C         -5.2760  -17.7270  -16.0620 C.2    80  LEU80       0.2287
      8  O         -5.7050  -17.9100  -14.9260 O.2    80  LEU80      -0.2864
      9  CB        -5.5460  -15.4920  -17.0770 C.3    80  LEU80       0.0297
     10  CG        -5.0130  -14.1600  -17.5870 C.3    80  LEU80       0.0022
     11  CD1       -6.1760  -13.3300  -18.0860 C.3    80  LEU80       0.0001
     12  CD2       -4.2690  -13.4090  -16.5030 C.3    80  LEU80       0.0001
     13  N         -2.3100  -20.4660  -13.6940 N.3    83  PRO83      -0.2116
     14  CA        -1.1130  -19.8330  -13.0760 C.3    83  PRO83       0.1372
     15  C         -0.4380  -20.6830  -11.9570 C.2    83  PRO83       0.2244
     16  O          0.5430  -20.2520  -11.3440 O.2    83  PRO83      -0.2868
     17  CB        -1.6940  -18.5490  -12.4860 C.3    83  PRO83       0.0268
     18  CG        -3.1150  -18.9360  -12.1080 C.3    83  PRO83       0.0207
     19  CD        -3.5650  -20.0450  -13.0240 C.3    83  PRO83       0.0892
     20  N         -5.8500  -18.3000   -5.3370 N.3    88  LEU88      -0.1245
     21  CA        -6.7440  -18.0390   -6.4900 C.3    88  LEU88       0.1561
     22  C         -7.4380  -19.2650   -7.1370 C.2    88  LEU88       0.2260
     23  O         -8.5510  -19.1660   -7.6890 O.2    88  LEU88      -0.2867
     24  CB        -5.9130  -17.3010   -7.5700 C.3    88  LEU88       0.0270
     25  CG        -6.5320  -16.9300   -8.9250 C.3    88  LEU88       0.0019
     26  CD1       -7.6920  -15.9360   -8.7910 C.3    88  LEU88       0.0001
     27  CD2       -5.4400  -16.3970   -9.8350 C.3    88  LEU88       0.0001
     28  N          5.2570   -7.3710  -17.5280 N.3   171  PHE171     -0.1241
     29  CA         3.7850   -7.3750  -17.3690 C.3   171  PHE171      0.1605
     30  C          3.0740   -6.8200  -18.6010 C.2   171  PHE171      0.2264
     31  O          2.0040   -7.3090  -18.9760 O.2   171  PHE171     -0.2867
     32  CB         3.3420   -6.6550  -16.0800 C.3   171  PHE171      0.0534
     33  CG         3.5090   -7.4990  -14.8400 C.ar  171  PHE171     -0.0203
     34  CD1        2.8260   -8.7150  -14.7150 C.ar  171  PHE171     -0.0042
     35  CD2        4.3560   -7.1020  -13.8070 C.ar  171  PHE171     -0.0042
     36  CE1        2.9820   -9.5080  -13.5900 C.ar  171  PHE171     -0.0003
     37  CE2        4.5080   -7.8870  -12.6800 C.ar  171  PHE171     -0.0003
     38  CZ         3.8190   -9.0880  -12.5690 C.ar  171  PHE171     -0.0000
     39  N          2.7760   -9.9800  -20.6980 N.3   174  PHE174     -0.1227
     40  CA         1.8930  -10.9740  -20.1290 C.3   174  PHE174      0.1736
     41  C          0.4300  -10.7150  -20.4630 C.2   174  PHE174      0.2595
     42  O         -0.3310  -11.6620  -20.6930 O.2   174  PHE174     -0.2718
     43  CB         2.0720  -11.0250  -18.6040 C.3   174  PHE174      0.0547
     44  CG         1.1590  -12.0060  -17.9310 C.ar  174  PHE174     -0.0202
     45  CD1        1.5300  -13.3330  -17.7840 C.ar  174  PHE174     -0.0042
     46  CD2       -0.0910  -11.6040  -17.4770 C.ar  174  PHE174     -0.0042
     47  CE1        0.6750  -14.2410  -17.1770 C.ar  174  PHE174     -0.0003
     48  CE2       -0.9510  -12.5010  -16.8760 C.ar  174  PHE174     -0.0003
     49  CZ        -0.5690  -13.8240  -16.7190 C.ar  174  PHE174     -0.0000
     50  N          0.0440   -9.4390  -20.4320 N.am  175  PHE175     -0.1976
     51  CA        -1.3580   -9.0320  -20.6210 C.3   175  PHE175      0.1639
     52  C         -1.7680   -8.8230  -22.0670 C.2   175  PHE175      0.2290
     53  O         -2.9660   -8.8780  -22.3610 O.2   175  PHE175     -0.2864
     54  CB        -1.6500   -7.7220  -19.8880 C.3   175  PHE175      0.0560
     55  CG        -1.7040   -7.8610  -18.4040 C.ar  175  PHE175     -0.0200
     56  CD1       -2.6360   -8.7040  -17.8180 C.ar  175  PHE175     -0.0042
     57  CD2       -0.8330   -7.1340  -17.5810 C.ar  175  PHE175     -0.0042
     58  CE1       -2.6890   -8.8470  -16.4430 C.ar  175  PHE175     -0.0003
     59  CE2       -0.8780   -7.2720  -16.1960 C.ar  175  PHE175     -0.0003
     60  CZ        -1.8110   -8.1330  -15.6250 C.ar  175  PHE175     -0.0000
     61  N          9.7290  -14.2150  -15.4640 N.3   191  LEU191     -0.1245
     62  CA         8.8950  -13.8420  -14.2990 C.3   191  LEU191      0.1561
     63  C          9.2490  -14.7690  -13.1420 C.2   191  LEU191      0.2260
     64  O          9.7250  -14.3060  -12.1080 O.2   191  LEU191     -0.2867
     65  CB         7.3790  -13.9090  -14.5930 C.3   191  LEU191      0.0270
     66  CG         6.6940  -12.7870  -15.4070 C.3   191  LEU191      0.0019
     67  CD1        5.2260  -13.1110  -15.6520 C.3   191  LEU191      0.0001
     68  CD2        6.7940  -11.4200  -14.7530 C.3   191  LEU191      0.0001
     69  N          4.0920  -18.6640   -5.8140 N.3   231  ASN231     -0.1240
     70  CA         2.8670  -18.3650   -6.5430 C.3   231  ASN231      0.1653
     71  C          2.0330  -17.3070   -5.8170 C.2   231  ASN231      0.2266
     72  O          1.6020  -16.3560   -6.4480 O.2   231  ASN231     -0.2867
     73  CB         2.0510  -19.6390   -6.8360 C.3   231  ASN231      0.1155
     74  CG         2.6170  -20.4570   -8.0130 C.2   231  ASN231      0.2627
     75  OD1        3.7230  -20.1940   -8.5160 O.2   231  ASN231     -0.2716
     76  ND2        1.8470  -21.4590   -8.4580 N.am  231  ASN231     -0.0877
     77  N          3.3980  -13.7920   -6.6620 N.3   234  GLN234     -0.1231
     78  CA         3.0880  -13.2570   -8.0120 C.3   234  GLN234      0.1698
     79  C          1.6770  -12.6770   -8.0680 C.2   234  GLN234      0.2592
     80  O          1.4530  -11.5800   -8.5760 O.2   234  GLN234     -0.2718
     81  CB         3.2180  -14.3420   -9.0970 C.3   234  GLN234      0.0381
     82  CG         4.6040  -14.4410   -9.7070 C.3   234  GLN234      0.0905
     83  CD         4.8090  -15.7020  -10.5150 C.2   234  GLN234      0.2608
     84  OE1        3.8520  -16.4050  -10.8430 O.2   234  GLN234     -0.2717
     85  NE2        6.0620  -15.9950  -10.8470 N.am  234  GLN234     -0.0878
     86  N          0.7330  -13.4580   -7.5640 N.am  235  LEU235     -0.1980
     87  CA        -0.6570  -13.0390   -7.4010 C.3   235  LEU235      0.1596
     88  C         -0.7880  -11.6550   -6.7630 C.2   235  LEU235      0.2287
     89  O         -1.4610  -10.7970   -7.3140 O.2   235  LEU235     -0.2864
     90  CB        -1.3840  -14.0800   -6.5630 C.3   235  LEU235      0.0297
     91  CG        -2.7190  -13.7610   -5.9120 C.3   235  LEU235      0.0022
     92  CD1       -3.7410  -13.2950   -6.9240 C.3   235  LEU235      0.0001
     93  CD2       -3.2150  -15.0120   -5.2040 C.3   235  LEU235      0.0001
     94  N          0.9030   -8.8360   -9.0220 N.3   238  ALA238     -0.1231
     95  CA         0.1830   -8.5870  -10.2760 C.3   238  ALA238      0.1694
     96  C         -1.1660   -7.8900  -10.0060 C.2   238  ALA238      0.2591
     97  O         -1.3790   -6.7470  -10.4450 O.2   238  ALA238     -0.2718
     98  CB        -0.0060   -9.8760  -11.0680 C.3   238  ALA238      0.0304
     99  N         -2.0450   -8.5600   -9.2580 N.am  239  ALA239     -0.1980
    100  CA        -3.4060   -8.0580   -8.9900 C.3   239  ALA239      0.1597
    101  C         -3.3940   -6.6680   -8.3750 C.2   239  ALA239      0.2287
    102  O         -4.1780   -5.8020   -8.7650 O.2   239  ALA239     -0.2864
    103  CB        -4.1680   -9.0120   -8.0740 C.3   239  ALA239      0.0319
    104  N         -1.7170   -3.6780  -11.2700 N.3   242  GLU242     -0.1231
    105  CA        -2.5620   -3.5520  -12.4420 C.3   242  GLU242      0.1699
    106  C         -3.9020   -2.8880  -12.1310 C.2   242  GLU242      0.2592
    107  O         -4.1840   -1.8010  -12.6220 O.2   242  GLU242     -0.2718
    108  CB        -2.8110   -4.9370  -13.0450 C.3   242  GLU242      0.0402
    109  CG        -3.7280   -4.9660  -14.2670 C.3   242  GLU242      0.1161
    110  CD        -3.1040   -4.3780  -15.5290 C.2   242  GLU242      0.3649
    111  OE1       -1.9370   -3.9000  -15.5060 O.co2 242  GLU242     -0.2457
    112  OE2       -3.7950   -4.4330  -16.5710 O.co2 242  GLU242     -0.2457
    113  N         -4.7280   -3.5300  -11.3160 N.am  243  THR243     -0.1953
    114  CA        -6.0760   -3.0220  -11.1480 C.3   243  THR243      0.1897
    115  C         -6.0900   -1.5770  -10.6240 C.2   243  THR243      0.2313
    116  O         -6.8020   -0.7390  -11.1380 O.2   243  THR243     -0.2863
    117  CB        -6.9480   -3.9310  -10.2580 C.3   243  THR243      0.1794
    118  OG1       -6.2710   -4.2040   -9.0280 O.3   243  THR243     -0.2208
    119  CG2       -7.2600   -5.2280  -10.9640 C.3   243  THR243      0.0378
    120  N        -11.5280   -4.3020  -14.1900 N.3   286  THR286     -0.1218
    121  CA       -11.4310   -5.6930  -14.6190 C.3   286  THR286      0.1862
    122  C        -12.7280   -6.0700  -15.3590 C.2   286  THR286      0.2287
    123  O        -13.7500   -6.3780  -14.7400 O.2   286  THR286     -0.2866
    124  CB       -11.0990   -6.6500  -13.4170 C.3   286  THR286      0.1770
    125  OG1       -9.7060   -6.5280  -13.0530 O.3   286  THR286     -0.2211
    126  CG2      -11.3570   -8.1320  -13.7680 C.3   286  THR286      0.0375
    127  N        -13.2630  -11.6940  -15.4150 N.3   289  VAL289     -0.1231
    128  CA       -12.3890  -12.5310  -14.5670 C.3   289  VAL289      0.1692
    129  C        -12.4570  -13.9550  -15.0180 C.2   289  VAL289      0.2591
    130  O        -13.5650  -14.5590  -15.0570 O.2   289  VAL289     -0.2718
    131  CB       -12.7160  -12.5060  -13.0640 C.3   289  VAL289      0.0266
    132  CG1      -11.7640  -13.4270  -12.3080 C.3   289  VAL289      0.0020
    133  CG2      -12.5480  -11.1040  -12.5500 C.3   289  VAL289      0.0020
    134  N        -11.2580  -14.4910  -15.2770 N.am  290  LEU290     -0.1980
    135  CA       -11.1240  -15.8040  -15.8650 C.3   290  LEU290      0.1596
    136  C        -10.9680  -16.8930  -14.8420 C.2   290  LEU290      0.2287
    137  O        -10.0180  -16.9260  -14.0720 O.2   290  LEU290     -0.2864
    138  CB        -9.9870  -15.8750  -16.8940 C.3   290  LEU290      0.0297
    139  CG       -10.3480  -15.9200  -18.4000 C.3   290  LEU290      0.0022
    140  CD1      -11.5720  -15.0930  -18.7760 C.3   290  LEU290      0.0001
    141  CD2       -9.1460  -15.4280  -19.1980 C.3   290  LEU290      0.0001
    142  N        -17.4380   -5.2040   -7.9980 N.3   343  ALA343     -0.1245
    143  CA       -16.1540   -5.0500   -8.7050 C.3   343  ALA343      0.1562
    144  C        -15.0100   -5.8070   -8.0620 C.2   343  ALA343      0.2260
    145  O        -14.0090   -6.0850   -8.7070 O.2   343  ALA343     -0.2867
    146  CB       -15.7760   -3.5800   -8.8250 C.3   343  ALA343      0.0290
    147  N         -9.2340   -9.1270  -20.7990 N.3   391  THR391     -0.1203
    148  CA        -9.7910   -9.1260  -19.4250 C.3   391  THR391      0.1994
    149  C         -9.8070   -7.7700  -18.7040 C.2   391  THR391      0.2617
    150  O        -10.5270   -7.6090  -17.7260 O.2   391  THR391     -0.2717
    151  CB        -8.9780  -10.0390  -18.4890 C.3   391  THR391      0.1784
    152  OG1       -7.5780   -9.9130  -18.7890 O.3   391  THR391     -0.2211
    153  CG2       -9.4080  -11.4400  -18.6520 C.3   391  THR391      0.0376
    154  N         -9.0020   -6.8200  -19.1720 N.am  392  GLN392     -0.1979
    155  CA        -8.7620   -5.5790  -18.4560 C.3   392  GLN392      0.1601
    156  C         -9.2250   -4.3330  -19.2110 C.2   392  GLN392      0.2287
    157  O         -9.1420   -4.2410  -20.4550 O.2   392  GLN392     -0.2864
    158  CB        -7.2730   -5.4470  -18.0760 C.3   392  GLN392      0.0394
    159  CG        -6.7150   -6.5720  -17.1910 C.3   392  GLN392      0.0908
    160  CD        -7.5140   -6.7700  -15.9130 C.2   392  GLN392      0.2608
    161  OE1       -8.2360   -7.7700  -15.7590 O.2   392  GLN392     -0.2717
    162  NE2       -7.4320   -5.7870  -15.0060 N.am  392  GLN392     -0.0878
@<TRIPOS>BOND
     1    53    52    2
     2    52    51    1
     3   147   148    1
     4    39    40    1
     5    42    41    2
     6    51    50    1
     7    51    54    1
     8    41    50   am
     9    41    40    1
    10   157   156    2
    11    40    43    1
    12    54    55    1
    13   148   149    1
    14   148   151    1
    15   156   155    1
    16   141   139    1
    17   154   149   am
    18   154   155    1
    19     1     2    1
    20    31    30    2
    21   152   151    1
    22   140   139    1
    23   149   150    2
    24   153   151    1
    25    43    44    1
    26    30    29    1
    27   155   158    1
    28    55    56   ar
    29    55    57   ar
    30   139   138    1
    31    11    10    1
    32   158   159    1
    33    44    45   ar
    34    44    46   ar
    35     2     3    1
    36    56    58   ar
    37    45    47   ar
    38    10     9    1
    39    10    12    1
    40    57    59   ar
    41    28    29    1
    42    46    48   ar
    43    29    32    1
    44     5     3   am
    45     5     6    1
    46   159   160    1
    47    47    49   ar
    48     9     6    1
    49   138   135    1
    50    48    49   ar
    51     3     4    2
    52   112   110   ar
    53    58    60   ar
    54     6     7    1
    55    59    60   ar
    56    32    33    1
    57     7     8    2
    58   160   161    2
    59   160   162   am
    60   135   134    1
    61   135   136    1
    62    67    66    1
    63   110   111   ar
    64   110   109    1
    65    61    62    1
    66   127   128    1
    67    66    68    1
    68    66    65    1
    69   122   123    2
    70   122   121    1
    71   134   129   am
    72   130   129    2
    73   129   128    1
    74   136   137    2
    75    33    34   ar
    76    33    35   ar
    77    34    36   ar
    78   121   120    1
    79   121   124    1
    80    65    62    1
    81   128   131    1
    82    62    63    1
    83   109   108    1
    84    35    37   ar
    85   126   124    1
    86    13    14    1
    87    13    19    1
    88    36    38   ar
    89   124   125    1
    90    63    64    2
    91    14    17    1
    92    14    15    1
    93   131   133    1
    94   131   132    1
    95   108   105    1
    96    19    18    1
    97    37    38   ar
    98   107   106    2
    99    17    18    1
   100   105   106    1
   101   105   104    1
   102   106   113   am
   103    15    16    2
   104   113   114    1
   105   114   115    1
   106   114   117    1
   107   116   115    2
   108    98    95    1
   109   119   117    1
   110    85    83   am
   111    84    83    2
   112    83    82    1
   113    97    96    2
   114    95    96    1
   115    95    94    1
   116   117   118    1
   117    96    99   am
   118    27    25    1
   119    82    81    1
   120    99   100    1
   121    81    78    1
   122   100   101    1
   123   100   103    1
   124    25    26    1
   125    25    24    1
   126   146   143    1
   127   102   101    2
   128   145   144    2
   129   143   144    1
   130   143   142    1
   131    80    79    2
   132    75    74    2
   133    76    74   am
   134    79    78    1
   135    79    86   am
   136    74    73    1
   137    78    77    1
   138    23    22    2
   139    24    21    1
   140    86    87    1
   141    87    88    1
   142    87    90    1
   143    89    88    2
   144    22    21    1
   145    92    91    1
   146    73    70    1
   147    90    91    1
   148    70    71    1
   149    70    69    1
   150    21    20    1
   151    72    71    2
   152    91    93    1
