@<TRIPOS>MOLECULE
tmp/6a8hA00.pdb
 86 84 0 0 0
SMALL
GASTEIGER

@<TRIPOS>ATOM
      1  N         -0.2380   14.8390    7.4940 N.3    23  TRP23      -0.1241
      2  CA         0.7100   14.1350    8.3650 C.3    23  TRP23       0.1605
      3  C         -0.0830   13.0930    9.1170 C.2    23  TRP23       0.2264
      4  O         -1.0930   13.4390    9.7320 O.2    23  TRP23      -0.2867
      5  CB         1.3610   15.0930    9.4080 C.3    23  TRP23       0.0550
      6  CG         2.5150   14.4750   10.2010 C.ar   23  TRP23       0.0003
      7  CD1        3.8400   14.7510   10.0240 C.ar   23  TRP23       0.0946
      8  CD2        2.4600   13.4790   11.2580 C.ar   23  TRP23       0.0152
      9  NE1        4.6090   14.0130   10.8840 N.ar   23  TRP23      -0.2442
     10  CE2        3.7880   13.2060   11.6380 C.ar   23  TRP23       0.0810
     11  CE3        1.4270   12.7770   11.8940 C.ar   23  TRP23       0.0012
     12  CZ2        4.1030   12.2660   12.6290 C.ar   23  TRP23       0.0191
     13  CZ3        1.7450   11.8320   12.8770 C.ar   23  TRP23       0.0001
     14  CH2        3.0760   11.5970   13.2310 C.ar   23  TRP23       0.0015
     15  N          0.3060    8.7770   10.8370 N.3    25  HIS25      -0.1241
     16  CA         1.0340    7.5490   11.0370 C.3    25  HIS25       0.1621
     17  C          0.0720    6.5380   11.6260 C.2    25  HIS25       0.2264
     18  O         -0.6340    6.8710   12.6140 O.2    25  HIS25      -0.2867
     19  CB         2.1960    7.8420   11.9780 C.3    25  HIS25       0.0745
     20  CG         3.3150    6.8950   11.8410 C.ar   25  HIS25       0.0817
     21  ND1        3.5020    5.8280   12.6880 N.ar   25  HIS25      -0.2268
     22  CD2        4.2680    6.7810   10.8790 C.ar   25  HIS25       0.1154
     23  CE1        4.6030    5.1800   12.3310 C.ar   25  HIS25       0.1986
     24  NE2        5.1100    5.7710   11.2540 N.ar   25  HIS25      -0.2212
     25  N         -1.8900    7.8270   15.0600 N.3    41  THR41      -0.1218
     26  CA        -0.9450    7.9450   16.1400 C.3    41  THR41       0.1862
     27  C         -0.5960    9.4230   16.4290 C.2    41  THR41       0.2287
     28  O         -0.4060   10.1890   15.5500 O.2    41  THR41      -0.2866
     29  CB         0.3230    7.2020   15.7880 C.3    41  THR41       0.1770
     30  OG1        0.0530    5.8060   15.6390 O.3    41  THR41      -0.2211
     31  CG2        1.4380    7.4720   16.7490 C.3    41  THR41       0.0375
     32  N          8.6950    2.6830   22.3990 N.3   103  PHE103     -0.1241
     33  CA         9.3220    2.0830   21.2040 C.3   103  PHE103      0.1605
     34  C         10.4050    1.0510   21.5460 C.2   103  PHE103      0.2264
     35  O         11.3800    1.3150   22.3200 O.2   103  PHE103     -0.2867
     36  CB         9.9470    3.1260   20.2760 C.3   103  PHE103      0.0534
     37  CG        10.2900    2.5620   18.9680 C.ar  103  PHE103     -0.0203
     38  CD1        9.3190    2.4310   17.9560 C.ar  103  PHE103     -0.0042
     39  CD2       11.5410    2.0480   18.7380 C.ar  103  PHE103     -0.0042
     40  CE1        9.6170    1.8880   16.7150 C.ar  103  PHE103     -0.0003
     41  CE2       11.8090    1.4470   17.5250 C.ar  103  PHE103     -0.0003
     42  CZ        10.8650    1.3790   16.5120 C.ar  103  PHE103     -0.0000
     43  N          9.1860    3.7700   10.8250 N.3   221  CYS221     -0.1221
     44  CA         9.5450    4.6970   11.8450 C.3   221  CYS221      0.1808
     45  C         10.9860    5.2070   11.6760 C.2   221  CYS221      0.2601
     46  O         11.5710    5.6790   12.6500 O.2   221  CYS221     -0.2717
     47  CB         9.3990    4.0290   13.2780 C.3   221  CYS221      0.0970
     48  SG         7.6730    3.3940   13.4560 S.3   221  CYS221     -0.0800
     49  N         11.4900    5.1430   10.4660 N.am  222  ARG222     -0.1965
     50  CA        12.8590    5.5670   10.1810 C.3   222  ARG222      0.1729
     51  C         12.8700    6.5380    9.0140 C.2   222  ARG222      0.2616
     52  O         13.9340    6.7330    8.3750 O.2   222  ARG222     -0.2715
     53  CB        13.7070    4.3580    9.7550 C.3   222  ARG222      0.0348
     54  CG        14.0120    3.4250   10.8700 C.3   222  ARG222      0.0492
     55  CD        14.6300    2.1310   10.4040 C.3   222  ARG222      0.2205
     56  NE        14.9110    1.2880   11.5260 N.pl3 222  ARG222     -0.0865
     57  CZ        15.7670    0.2520   11.4480 C.cat 222  ARG222      0.5346
     58  NH1       16.2670   -0.1350   10.2990 N.pl3 222  ARG222      0.1354
     59  NH2       16.0760   -0.4070   12.5360 N.pl3 222  ARG222      0.1354
     60  N         11.7800    7.2440    8.7780 N.am  223  GLY223     -0.1955
     61  CA        11.7800    8.2760    7.7180 C.3   223  GLY223      0.1869
     62  C         12.1300    7.6600    6.3770 C.2   223  GLY223      0.2309
     63  O         11.6910    6.5290    6.0290 O.2   223  GLY223     -0.2863
     64  N          6.3380    7.4390    4.0510 N.3   287  TYR287     -0.1241
     65  CA         7.3200    8.4620    4.4640 C.3   287  TYR287      0.1605
     66  C          7.7030    9.2320    3.1910 C.2   287  TYR287      0.2264
     67  O          8.1330    8.6620    2.1770 O.2   287  TYR287     -0.2867
     68  CB         8.5200    7.8110    5.1650 C.3   287  TYR287      0.0534
     69  CG         8.1010    6.9230    6.3650 C.ar  287  TYR287     -0.0201
     70  CD1        7.9510    7.4660    7.6010 C.ar  287  TYR287     -0.0009
     71  CD2        7.7910    5.5510    6.2010 C.ar  287  TYR287     -0.0009
     72  CE1        7.5120    6.7040    8.6890 C.ar  287  TYR287      0.0417
     73  CE2        7.3650    4.7640    7.2890 C.ar  287  TYR287      0.0417
     74  CZ         7.2380    5.3380    8.5080 C.ar  287  TYR287      0.1957
     75  OH         6.7670    4.6160    9.5780 O.3   287  TYR287     -0.2866
     76  N         10.9700   12.7870    4.8940 N.3   293  GLY293     -0.1225
     77  CA        10.5340   11.5230    5.4630 C.3   293  GLY293      0.1811
     78  C          9.2960   11.6020    6.2840 C.2   293  GLY293      0.2280
     79  O          9.0730   10.6450    7.0080 O.2   293  GLY293     -0.2866
     80  N          5.7630   11.1360    7.7660 N.3   295  PRO295     -0.2116
     81  CA         4.7500   10.1900    7.4100 C.3   295  PRO295      0.1372
     82  C          3.4630   10.8570    6.9590 C.2   295  PRO295      0.2244
     83  O          2.9980   11.8610    7.5700 O.2   295  PRO295     -0.2868
     84  CB         4.5830    9.3730    8.6730 C.3   295  PRO295      0.0268
     85  CG         4.9670   10.2890    9.7620 C.3   295  PRO295      0.0207
     86  CD         6.0690   11.1200    9.2110 C.3   295  PRO295      0.0892
@<TRIPOS>BOND
     1    67    66    2
     2    66    65    1
     3    64    65    1
     4    65    68    1
     5    76    77    1
     6    68    69    1
     7    77    78    1
     8    63    62    2
     9    71    69   ar
    10    71    73   ar
    11    78    79    2
    12    69    70   ar
    13    62    61    1
    14    82    81    1
    15    82    83    2
    16    73    74   ar
    17    81    80    1
    18    81    84    1
    19     1     2    1
    20    70    72   ar
    21    61    60    1
    22    80    86    1
    23     2     3    1
    24     2     5    1
    25    52    51    2
    26    74    72   ar
    27    74    75    1
    28    84    85    1
    29    60    51   am
    30    51    50    1
    31     3     4    2
    32    86    85    1
    33     5     6    1
    34    53    50    1
    35    53    54    1
    36     7     6   ar
    37     7     9   ar
    38    50    49    1
    39     6     8   ar
    40    58    57    1
    41    55    54    1
    42    55    56    1
    43    49    45   am
    44    43    44    1
    45    15    16    1
    46    22    24   ar
    47    22    20   ar
    48     9    10   ar
    49    16    17    1
    50    16    19    1
    51    24    23   ar
    52     8    10   ar
    53     8    11   ar
    54    57    56    2
    55    57    59    1
    56    17    18    2
    57    10    12   ar
    58    45    44    1
    59    45    46    2
    60    20    19    1
    61    20    21   ar
    62    44    47    1
    63    11    13   ar
    64    23    21   ar
    65    12    14   ar
    66    13    14   ar
    67    47    48    1
    68    25    26    1
    69    28    27    2
    70    30    29    1
    71    29    26    1
    72    29    31    1
    73    26    27    1
    74    42    40   ar
    75    42    41   ar
    76    40    38   ar
    77    41    39   ar
    78    38    37   ar
    79    39    37   ar
    80    37    36    1
    81    36    33    1
    82    33    34    1
    83    33    32    1
    84    34    35    2
