@<TRIPOS>MOLECULE
tmp/6a8iB03.pdb
 121 121 0 0 0
SMALL
GASTEIGER

@<TRIPOS>ATOM
      1  N        -23.4680   -6.4330   29.5040 N.3    83  TRP83      -0.1241
      2  CA       -24.0050   -5.3180   30.2460 C.3    83  TRP83       0.1605
      3  C        -23.2440   -4.9270   31.4860 C.2    83  TRP83       0.2264
      4  O        -22.6640   -5.7750   32.2040 O.2    83  TRP83      -0.2867
      5  CB       -25.4120   -5.6260   30.7510 C.3    83  TRP83       0.0550
      6  CG       -26.4270   -6.1700   29.7910 C.ar   83  TRP83       0.0003
      7  CD1      -26.4130   -6.1820   28.4250 C.ar   83  TRP83       0.0946
      8  CD2      -27.6710   -6.7460   30.1900 C.ar   83  TRP83       0.0152
      9  NE1      -27.5990   -6.7000   27.9560 N.ar   83  TRP83      -0.2442
     10  CE2      -28.3700   -7.0850   29.0230 C.ar   83  TRP83       0.0810
     11  CE3      -28.2670   -6.9700   31.4290 C.ar   83  TRP83       0.0012
     12  CZ2      -29.6530   -7.7010   29.0530 C.ar   83  TRP83       0.0191
     13  CZ3      -29.5280   -7.5290   31.4650 C.ar   83  TRP83       0.0001
     14  CH2      -30.2150   -7.8800   30.2660 C.ar   83  TRP83       0.0015
     15  N        -30.3190  -11.8220   29.6340 N.3   102  THR102     -0.1203
     16  CA       -31.4000  -11.3320   28.6960 C.3   102  THR102      0.1994
     17  C        -32.4480  -10.5020   29.4580 C.2   102  THR102      0.2618
     18  O        -32.6770  -10.6820   30.6810 O.2   102  THR102     -0.2717
     19  CB       -32.0490  -12.4820   27.9380 C.3   102  THR102      0.1784
     20  OG1      -32.5910  -13.4270   28.8460 O.3   102  THR102     -0.2211
     21  CG2      -30.9740  -13.2390   27.0970 C.3   102  THR102      0.0376
     22  N        -33.0550   -9.5650   28.7730 N.am  103  PHE103     -0.1961
     23  CA       -33.8860   -8.5830   29.4390 C.3   103  PHE103      0.1771
     24  C        -35.1220   -9.1490   30.1000 C.2   103  PHE103      0.2620
     25  O        -35.8900   -9.9270   29.5020 O.2   103  PHE103     -0.2715
     26  CB       -34.2550   -7.4510   28.5000 C.3   103  PHE103      0.0574
     27  CG       -34.6710   -6.1540   29.2160 C.ar  103  PHE103     -0.0200
     28  CD1      -33.7450   -5.1920   29.5280 C.ar  103  PHE103     -0.0042
     29  CD2      -35.9930   -5.9080   29.5280 C.ar  103  PHE103     -0.0042
     30  CE1      -34.1260   -3.9800   30.1480 C.ar  103  PHE103     -0.0003
     31  CE2      -36.3930   -4.7340   30.1730 C.ar  103  PHE103     -0.0003
     32  CZ       -35.4570   -3.7580   30.4730 C.ar  103  PHE103     -0.0000
     33  N        -35.3240   -8.7560   31.3440 N.am  104  GLY104     -0.1940
     34  CA       -36.4810   -9.2010   32.1270 C.3   104  GLY104      0.2014
     35  C        -36.3930  -10.5850   32.7520 C.2   104  GLY104      0.2638
     36  O        -37.3490  -11.0260   33.3550 O.2   104  GLY104     -0.2714
     37  N        -35.2420  -11.2500   32.6280 N.am  105  LYS105     -0.1977
     38  CA       -35.0480  -12.6120   33.0780 C.3   105  LYS105      0.1596
     39  C        -33.8940  -12.6260   34.0430 C.2   105  LYS105      0.2287
     40  O        -33.0150  -11.7820   33.8950 O.2   105  LYS105     -0.2864
     41  CB       -34.6090  -13.5110   31.8880 C.3   105  LYS105      0.0298
     42  CG       -35.6480  -13.7730   30.8240 C.3   105  LYS105      0.0038
     43  CD       -36.9260  -14.2960   31.4140 C.3   105  LYS105      0.0206
     44  CE       -37.9400  -14.6720   30.3200 C.3   105  LYS105      0.1093
     45  NZ       -37.9120  -13.7820   29.1120 N.3   105  LYS105     -0.1314
     46  N        -30.7210  -11.6000   40.8250 N.3   143  ASN143     -0.1240
     47  CA       -30.2840  -11.6140   39.4600 C.3   143  ASN143      0.1653
     48  C        -28.7890  -11.2440   39.3790 C.2   143  ASN143      0.2266
     49  O        -28.3920  -10.1350   39.7920 O.2   143  ASN143     -0.2867
     50  CB       -31.1260  -10.6130   38.6560 C.3   143  ASN143      0.1155
     51  CG       -30.8480  -10.7100   37.1840 C.2   143  ASN143      0.2627
     52  OD1      -30.1700  -11.6750   36.7390 O.2   143  ASN143     -0.2716
     53  ND2      -31.4000   -9.7620   36.3980 N.am  143  ASN143     -0.0877
     54  N        -26.3840   -9.7500   37.7290 N.3   145  ILE145     -0.1231
     55  CA       -25.9530   -8.7150   36.7820 C.3   145  ILE145      0.1692
     56  C        -25.5700   -7.5210   37.5770 C.2   145  ILE145      0.2592
     57  O        -25.9000   -7.4370   38.8000 O.2   145  ILE145     -0.2718
     58  CB       -27.0480   -8.2980   35.7640 C.3   145  ILE145      0.0266
     59  CG1      -28.2700   -7.6770   36.4840 C.3   145  ILE145      0.0019
     60  CG2      -27.4280   -9.4330   34.8410 C.3   145  ILE145      0.0020
     61  CD1      -29.2640   -7.0650   35.4540 C.3   145  ILE145      0.0001
     62  N        -24.9180   -6.5760   36.9010 N.am  146  ASN146     -0.1974
     63  CA       -24.4970   -5.2780   37.4880 C.3   146  ASN146      0.1688
     64  C        -23.4390   -5.4160   38.6130 C.2   146  ASN146      0.2292
     65  O        -23.6420   -5.0200   39.8130 O.2   146  ASN146     -0.2864
     66  CB       -25.6990   -4.5170   38.0270 C.3   146  ASN146      0.1181
     67  CG       -26.7160   -4.1110   36.9660 C.2   146  ASN146      0.2629
     68  OD1      -26.4110   -3.8860   35.7920 O.2   146  ASN146     -0.2716
     69  ND2      -27.9310   -4.0130   37.3880 N.am  146  ASN146     -0.0877
     70  N        -30.2930   -6.7510   40.5520 N.3   163  SER163     -0.1202
     71  CA       -31.3070   -6.0500   39.8270 C.3   163  SER163      0.2020
     72  C        -32.6270   -6.8140   40.0700 C.2   163  SER163      0.2619
     73  O        -32.6840   -7.9480   39.7400 O.2   163  SER163     -0.2717
     74  CB       -31.0460   -6.0730   38.3120 C.3   163  SER163      0.2103
     75  OG       -32.0900   -5.4030   37.6130 O.3   163  SER163     -0.2182
     76  N        -33.6180   -6.1600   40.6680 N.am  164  PHE164     -0.1961
     77  CA       -34.9350   -6.7240   40.9700 C.3   164  PHE164      0.1771
     78  C        -34.8670   -8.0060   41.7640 C.2   164  PHE164      0.2619
     79  O        -33.8220   -8.3310   42.4320 O.2   164  PHE164     -0.2715
     80  CB       -35.7000   -6.8600   39.6650 C.3   164  PHE164      0.0574
     81  CG       -36.1350   -5.5550   39.0640 C.ar  164  PHE164     -0.0200
     82  CD1      -35.1990   -4.6480   38.5360 C.ar  164  PHE164     -0.0042
     83  CD2      -37.4950   -5.1970   38.9990 C.ar  164  PHE164     -0.0042
     84  CE1      -35.6040   -3.4140   37.9870 C.ar  164  PHE164     -0.0003
     85  CE2      -37.8810   -3.9890   38.4020 C.ar  164  PHE164     -0.0003
     86  CZ       -36.9510   -3.0960   37.9070 C.ar  164  PHE164     -0.0000
     87  N        -35.9420   -8.7990   41.7070 N.am  165  TRP165     -0.1974
     88  CA       -35.9950   -9.9460   42.6260 C.3   165  TRP165      0.1640
     89  C        -35.7840   -9.5200   44.0970 C.2   165  TRP165      0.2290
     90  O        -36.3780   -8.5650   44.5140 O.2   165  TRP165     -0.2864
     91  CB       -35.0520  -11.0720   42.1470 C.3   165  TRP165      0.0576
     92  CG       -35.6130  -11.8210   40.9620 C.ar  165  TRP165      0.0006
     93  CD1      -36.2510  -12.9950   41.0060 C.ar  165  TRP165      0.0946
     94  CD2      -35.6270  -11.4110   39.5630 C.ar  165  TRP165      0.0152
     95  NE1      -36.6640  -13.3670   39.7450 N.ar  165  TRP165     -0.2442
     96  CE2      -36.2960  -12.4100   38.8490 C.ar  165  TRP165      0.0810
     97  CE3      -35.1030  -10.3090   38.8600 C.ar  165  TRP165      0.0012
     98  CZ2      -36.4710  -12.3540   37.4430 C.ar  165  TRP165      0.0191
     99  CZ3      -35.2390  -10.2680   37.5220 C.ar  165  TRP165      0.0001
    100  CH2      -35.9520  -11.2690   36.8100 C.ar  165  TRP165      0.0015
    101  N        -31.4820   -1.5310   41.5860 N.3   200  GLU200     -0.1245
    102  CA       -30.4050   -2.2410   40.8780 C.3   200  GLU200      0.1567
    103  C        -29.1410   -1.4200   40.8720 C.2   200  GLU200      0.2260
    104  O        -29.1060   -0.2910   41.4090 O.2   200  GLU200     -0.2867
    105  CB       -30.8270   -2.5880   39.4280 C.3   200  GLU200      0.0388
    106  CG       -31.0630   -1.4180   38.4550 C.3   200  GLU200      0.1160
    107  CD       -31.6340   -1.8560   37.0810 C.2   200  GLU200      0.3649
    108  OE1      -31.8330   -3.0510   36.8820 O.co2 200  GLU200     -0.2457
    109  OE2      -31.8280   -1.0250   36.1800 O.co2 200  GLU200     -0.2457
    110  N        -35.1440    1.7710   34.1990 N.3   220  CYS220     -0.1221
    111  CA       -34.2890    2.1980   33.1070 C.3   220  CYS220      0.1808
    112  C        -34.9540    1.9150   31.7810 C.2   220  CYS220      0.2601
    113  O        -36.0510    1.3430   31.7170 O.2   220  CYS220     -0.2717
    114  CB       -32.9770    1.3420   33.1300 C.3   220  CYS220      0.0970
    115  SG       -33.1990   -0.3710   32.5920 S.3   220  CYS220     -0.0800
    116  N        -34.2000    2.2140   30.7200 N.am  221  CYS221     -0.1970
    117  CA       -34.2750    1.4850   29.4490 C.3   221  CYS221      0.1712
    118  C        -35.5750    1.7060   28.7020 C.2   221  CYS221      0.2296
    119  O        -36.0280    0.8180   28.0200 O.2   221  CYS221     -0.2864
    120  CB       -34.0790   -0.0070   29.6820 C.3   221  CYS221      0.0983
    121  SG       -32.5930   -0.3500   30.6750 S.3   221  CYS221     -0.0798
@<TRIPOS>BOND
     1    21    19    1
     2    19    16    1
     3    19    20    1
     4     9     7   ar
     5     9    10   ar
     6   119   118    2
     7     7     6   ar
     8    26    27    1
     9    26    23    1
    10    16    17    1
    11    16    15    1
    12   118   117    1
    13    22    23    1
    14    22    17   am
    15    10    12   ar
    16    10     8   ar
    17    12    14   ar
    18    45    44    1
    19    27    28   ar
    20    27    29   ar
    21    23    24    1
    22   117   120    1
    23   117   116    1
    24    17    18    2
    25    25    24    2
    26     1     2    1
    27    28    30   ar
    28    29    31   ar
    29   120   121    1
    30     6     8   ar
    31     6     5    1
    32    24    33   am
    33    30    32   ar
    34    31    32   ar
    35     8    11   ar
    36     2     5    1
    37     2     3    1
    38    14    13   ar
    39    44    43    1
    40   121   115    1
    41   116   112   am
    42    42    43    1
    43    42    41    1
    44    33    34    1
    45    11    13   ar
    46     3     4    2
    47   113   112    2
    48   112   111    1
    49    41    38    1
    50    34    35    1
    51   115   114    1
    52    37    35   am
    53    37    38    1
    54    35    36    2
    55    38    39    1
    56   111   114    1
    57   111   110    1
    58    40    39    2
    59    60    58    1
    60    61    59    1
    61    58    59    1
    62    58    55    1
    63    68    67    2
    64   109   107   ar
    65    53    51   am
    66    52    51    2
    67    55    56    1
    68    55    54    1
    69   100    98   ar
    70   100    99   ar
    71   108   107   ar
    72    62    63    1
    73    62    56   am
    74    67    69   am
    75    67    66    1
    76   107   106    1
    77    51    50    1
    78    98    96   ar
    79    63    66    1
    80    63    64    1
    81    99    97   ar
    82    56    57    2
    83    75    74    1
    84    86    84   ar
    85    86    85   ar
    86    84    82   ar
    87    74    71    1
    88    85    83   ar
    89   106   105    1
    90    82    81   ar
    91    64    65    2
    92    50    47    1
    93    96    94   ar
    94    96    95   ar
    95    97    94   ar
    96    83    81   ar
    97    81    80    1
    98    48    47    1
    99    48    49    2
   100   105   102    1
   101    47    46    1
   102    94    92   ar
   103    80    77    1
   104    73    72    2
   105    95    93   ar
   106    71    72    1
   107    71    70    1
   108    72    76   am
   109    76    77    1
   110   103   102    1
   111   103   104    2
   112   102   101    1
   113    92    93   ar
   114    92    91    1
   115    77    78    1
   116    87    78   am
   117    87    88    1
   118    78    79    2
   119    91    88    1
   120    88    89    1
   121    89    90    2
