@<TRIPOS>MOLECULE
tmp/6a8iB02.pdb
 130 127 0 0 0
SMALL
GASTEIGER

@<TRIPOS>ATOM
      1  N        -24.7810    3.5950   27.8730 N.3    25  HIS25      -0.1226
      2  CA       -25.4960    3.2720   29.1160 C.3    25  HIS25       0.1752
      3  C        -24.6230    2.4120   30.0310 C.2    25  HIS25       0.2596
      4  O        -23.8480    1.5820   29.5080 O.2    25  HIS25      -0.2718
      5  CB       -26.9230    2.7100   28.9000 C.3    25  HIS25       0.0759
      6  CG       -27.0490    1.5890   27.9210 C.ar   25  HIS25       0.0818
      7  ND1      -26.7260    1.7020   26.5840 N.ar   25  HIS25      -0.2268
      8  CD2      -27.5790    0.3420   28.0620 C.ar   25  HIS25       0.1154
      9  CE1      -26.9750    0.5620   25.9590 C.ar   25  HIS25       0.1986
     10  NE2      -27.5220   -0.2700   26.8260 N.ar   25  HIS25      -0.2212
     11  N        -24.7180    2.6380   31.3560 N.am   26  ASP26      -0.1974
     12  CA       -24.0630    1.8230   32.4170 C.3    26  ASP26       0.1709
     13  C        -22.5390    1.9960   32.3820 C.2    26  ASP26       0.2293
     14  O        -21.8130    1.0050   32.3150 O.2    26  ASP26      -0.2864
     15  CB       -24.3540    0.3280   32.2460 C.3    26  ASP26       0.1436
     16  CG       -25.8410    0.0270   31.9640 C.2    26  ASP26       0.3671
     17  OD1      -26.7330    0.7010   32.5620 O.co2  26  ASP26      -0.2456
     18  OD2      -26.0960   -0.9660   31.2220 O.co2  26  ASP26      -0.2456
     19  N        -22.1300   -0.6550   28.5650 N.3    41  THR41      -0.1218
     20  CA       -22.9630   -1.6500   27.9110 C.3    41  THR41       0.1862
     21  C        -22.9540   -1.6180   26.4100 C.2    41  THR41       0.2287
     22  O        -23.0060   -0.6250   25.8390 O.2    41  THR41      -0.2866
     23  CB       -24.4000   -1.5700   28.4190 C.3    41  THR41       0.1770
     24  OG1      -24.4330   -1.8990   29.7940 O.3    41  THR41      -0.2211
     25  CG2      -25.3200   -2.5920   27.7060 C.3    41  THR41       0.0375
     26  N        -23.4680   -6.4330   29.5040 N.3    83  TRP83      -0.1227
     27  CA       -24.0050   -5.3180   30.2460 C.3    83  TRP83       0.1737
     28  C        -23.2440   -4.9270   31.4860 C.2    83  TRP83       0.2595
     29  O        -22.6640   -5.7750   32.2040 O.2    83  TRP83      -0.2718
     30  CB       -25.4120   -5.6260   30.7510 C.3    83  TRP83       0.0564
     31  CG       -26.4270   -6.1700   29.7910 C.ar   83  TRP83       0.0003
     32  CD1      -26.4130   -6.1820   28.4250 C.ar   83  TRP83       0.0946
     33  CD2      -27.6710   -6.7460   30.1900 C.ar   83  TRP83       0.0152
     34  NE1      -27.5990   -6.7000   27.9560 N.ar   83  TRP83      -0.2442
     35  CE2      -28.3700   -7.0850   29.0230 C.ar   83  TRP83       0.0810
     36  CE3      -28.2670   -6.9700   31.4290 C.ar   83  TRP83       0.0012
     37  CZ2      -29.6530   -7.7010   29.0530 C.ar   83  TRP83       0.0191
     38  CZ3      -29.5280   -7.5290   31.4650 C.ar   83  TRP83       0.0001
     39  CH2      -30.2150   -7.8800   30.2660 C.ar   83  TRP83       0.0015
     40  N        -23.2660   -3.6190   31.7580 N.am   84  ALA84      -0.1980
     41  CA       -22.8720   -3.1030   33.0460 C.3    84  ALA84       0.1597
     42  C        -21.5090   -3.5280   33.5490 C.2    84  ALA84       0.2287
     43  O        -21.4140   -4.1390   34.6320 O.2    84  ALA84      -0.2864
     44  CB       -23.9120   -3.4940   34.0650 C.3    84  ALA84       0.0319
     45  N        -33.0550   -9.5650   28.7730 N.3   103  PHE103     -0.1241
     46  CA       -33.8860   -8.5830   29.4390 C.3   103  PHE103      0.1605
     47  C        -35.1220   -9.1490   30.1000 C.2   103  PHE103      0.2264
     48  O        -35.8900   -9.9270   29.5020 O.2   103  PHE103     -0.2867
     49  CB       -34.2550   -7.4510   28.5000 C.3   103  PHE103      0.0534
     50  CG       -34.6710   -6.1540   29.2160 C.ar  103  PHE103     -0.0203
     51  CD1      -33.7450   -5.1920   29.5280 C.ar  103  PHE103     -0.0042
     52  CD2      -35.9930   -5.9080   29.5280 C.ar  103  PHE103     -0.0042
     53  CE1      -34.1260   -3.9800   30.1480 C.ar  103  PHE103     -0.0003
     54  CE2      -36.3930   -4.7340   30.1730 C.ar  103  PHE103     -0.0003
     55  CZ       -35.4570   -3.7580   30.4730 C.ar  103  PHE103     -0.0000
     56  N        -26.3840   -9.7500   37.7290 N.3   145  ILE145     -0.1231
     57  CA       -25.9530   -8.7150   36.7820 C.3   145  ILE145      0.1692
     58  C        -25.5700   -7.5210   37.5770 C.2   145  ILE145      0.2592
     59  O        -25.9000   -7.4370   38.8000 O.2   145  ILE145     -0.2718
     60  CB       -27.0480   -8.2980   35.7640 C.3   145  ILE145      0.0266
     61  CG1      -28.2700   -7.6770   36.4840 C.3   145  ILE145      0.0019
     62  CG2      -27.4280   -9.4330   34.8410 C.3   145  ILE145      0.0020
     63  CD1      -29.2640   -7.0650   35.4540 C.3   145  ILE145      0.0001
     64  N        -24.9180   -6.5760   36.9010 N.am  146  ASN146     -0.1974
     65  CA       -24.4970   -5.2780   37.4880 C.3   146  ASN146      0.1688
     66  C        -23.4390   -5.4160   38.6130 C.2   146  ASN146      0.2292
     67  O        -23.6420   -5.0200   39.8130 O.2   146  ASN146     -0.2864
     68  CB       -25.6990   -4.5170   38.0270 C.3   146  ASN146      0.1181
     69  CG       -26.7160   -4.1110   36.9660 C.2   146  ASN146      0.2629
     70  OD1      -26.4110   -3.8860   35.7920 O.2   146  ASN146     -0.2716
     71  ND2      -27.9310   -4.0130   37.3880 N.am  146  ASN146     -0.0877
     72  N        -30.2930   -6.7510   40.5520 N.3   163  SER163     -0.1217
     73  CA       -31.3070   -6.0500   39.8270 C.3   163  SER163      0.1889
     74  C        -32.6270   -6.8140   40.0700 C.2   163  SER163      0.2288
     75  O        -32.6840   -7.9480   39.7400 O.2   163  SER163     -0.2866
     76  CB       -31.0460   -6.0730   38.3120 C.3   163  SER163      0.2089
     77  OG       -32.0900   -5.4030   37.6130 O.3   163  SER163     -0.2183
     78  N        -31.4820   -1.5310   41.5860 N.3   200  GLU200     -0.1245
     79  CA       -30.4050   -2.2410   40.8780 C.3   200  GLU200      0.1567
     80  C        -29.1410   -1.4200   40.8720 C.2   200  GLU200      0.2260
     81  O        -29.1060   -0.2910   41.4090 O.2   200  GLU200     -0.2867
     82  CB       -30.8270   -2.5880   39.4280 C.3   200  GLU200      0.0388
     83  CG       -31.0630   -1.4180   38.4550 C.3   200  GLU200      0.1160
     84  CD       -31.6340   -1.8560   37.0810 C.2   200  GLU200      0.3649
     85  OE1      -31.8330   -3.0510   36.8820 O.co2 200  GLU200     -0.2457
     86  OE2      -31.8280   -1.0250   36.1800 O.co2 200  GLU200     -0.2457
     87  N        -35.1440    1.7710   34.1990 N.3   220  CYS220     -0.1221
     88  CA       -34.2890    2.1980   33.1070 C.3   220  CYS220      0.1808
     89  C        -34.9540    1.9150   31.7810 C.2   220  CYS220      0.2601
     90  O        -36.0510    1.3430   31.7170 O.2   220  CYS220     -0.2717
     91  CB       -32.9770    1.3420   33.1300 C.3   220  CYS220      0.0970
     92  SG       -33.1990   -0.3710   32.5920 S.3   220  CYS220     -0.0800
     93  N        -34.2000    2.2140   30.7200 N.am  221  CYS221     -0.1970
     94  CA       -34.2750    1.4850   29.4490 C.3   221  CYS221      0.1712
     95  C        -35.5750    1.7060   28.7020 C.2   221  CYS221      0.2296
     96  O        -36.0280    0.8180   28.0200 O.2   221  CYS221     -0.2864
     97  CB       -34.0790   -0.0070   29.6820 C.3   221  CYS221      0.0983
     98  SG       -32.5930   -0.3500   30.6750 S.3   221  CYS221     -0.0798
     99  N        -35.9070    6.1510   36.1020 N.3   228  TYR228     -0.1241
    100  CA       -34.6540    5.9010   36.8400 C.3   228  TYR228      0.1605
    101  C        -34.3420    7.0680   37.7830 C.2   228  TYR228      0.2264
    102  O        -34.5480    8.2270   37.3980 O.2   228  TYR228     -0.2867
    103  CB       -33.4840    5.7480   35.8530 C.3   228  TYR228      0.0534
    104  CG       -32.6660    4.4740   35.9310 C.ar  228  TYR228     -0.0201
    105  CD1      -33.1050    3.3520   36.6250 C.ar  228  TYR228     -0.0009
    106  CD2      -31.4480    4.3610   35.2360 C.ar  228  TYR228     -0.0009
    107  CE1      -32.3420    2.2120   36.6790 C.ar  228  TYR228      0.0417
    108  CE2      -30.6860    3.1950   35.2850 C.ar  228  TYR228      0.0417
    109  CZ       -31.1400    2.1160   35.9900 C.ar  228  TYR228      0.1957
    110  OH       -30.4010    0.9440   36.0820 O.3   228  TYR228     -0.2866
    111  N        -27.5580    4.1650   36.9790 N.3   270  HIS270     -0.1241
    112  CA       -26.4440    3.3100   36.8360 C.3   270  HIS270      0.1621
    113  C        -25.1780    4.0870   37.0970 C.2   270  HIS270      0.2264
    114  O        -24.3460    4.2970   36.1870 O.2   270  HIS270     -0.2867
    115  CB       -26.4500    2.6210   35.4800 C.3   270  HIS270      0.0745
    116  CG       -26.0610    1.2070   35.5370 C.ar  270  HIS270      0.0817
    117  ND1      -26.9310    0.1970   35.1880 N.ar  270  HIS270     -0.2268
    118  CD2      -24.9300    0.6080   35.9780 C.ar  270  HIS270      0.1154
    119  CE1      -26.3340   -0.9590   35.3670 C.ar  270  HIS270      0.1986
    120  NE2      -25.1480   -0.7400   35.9160 N.ar  270  HIS270     -0.2212
    121  N        -25.4540    7.3900   33.3860 N.3   285  HIS285     -0.1241
    122  CA       -26.0750    7.8030   32.1280 C.3   285  HIS285      0.1621
    123  C        -27.4090    8.4370   32.4190 C.2   285  HIS285      0.2264
    124  O        -27.9840    8.2340   33.4670 O.2   285  HIS285     -0.2867
    125  CB       -26.2520    6.6480   31.1250 C.3   285  HIS285      0.0745
    126  CG       -27.2660    5.6380   31.5090 C.ar  285  HIS285      0.0817
    127  ND1      -26.9320    4.4000   32.0030 N.ar  285  HIS285     -0.2268
    128  CD2      -28.6160    5.6520   31.4470 C.ar  285  HIS285      0.1154
    129  CE1      -28.0200    3.7150   32.2690 C.ar  285  HIS285      0.1986
    130  NE2      -29.0540    4.4490   31.9130 N.ar  285  HIS285     -0.2212
@<TRIPOS>BOND
     1    22    21    2
     2     9     7   ar
     3     9    10   ar
     4    21    20    1
     5     7     6   ar
     6    10     8   ar
     7    25    23    1
     8     1     2    1
     9    20    23    1
    10    20    19    1
    11     6     8   ar
    12     6     5    1
    13    34    32   ar
    14    34    35   ar
    15    96    95    2
    16    23    24    1
    17    32    31   ar
    18    49    50    1
    19    49    46    1
    20    95    94    1
    21    45    46    1
    22     5     2    1
    23    35    37   ar
    24    35    33   ar
    25    37    39   ar
    26     2     3    1
    27    50    51   ar
    28    50    52   ar
    29    46    47    1
    30    94    97    1
    31    94    93    1
    32    48    47    2
    33    26    27    1
    34     4     3    2
    35    51    53   ar
    36    52    54   ar
    37    97    98    1
    38    31    33   ar
    39    31    30    1
    40     3    11   am
    41    53    55   ar
    42    54    55   ar
    43    33    36   ar
    44    27    30    1
    45    27    28    1
    46    39    38   ar
    47    98    92    1
    48    93    89   am
    49   125   126    1
    50   125   122    1
    51    18    16   ar
    52    11    12    1
    53    36    38   ar
    54   128   126   ar
    55   128   130   ar
    56    28    40   am
    57    28    29    2
    58   126   127   ar
    59    90    89    2
    60    40    41    1
    61    89    88    1
    62   130   129   ar
    63    16    15    1
    64    16    17   ar
    65   127   129   ar
    66   122   123    1
    67   122   121    1
    68    15    12    1
    69    14    13    2
    70    13    12    1
    71   123   124    2
    72    92    91    1
    73    41    42    1
    74    41    44    1
    75    88    91    1
    76    88    87    1
    77    42    43    2
    78    62    60    1
    79   117   119   ar
    80   117   116   ar
    81   106   108   ar
    82   106   104   ar
    83   108   109   ar
    84   119   120   ar
    85    63    61    1
    86   115   116    1
    87   115   112    1
    88   116   118   ar
    89    60    61    1
    90    60    57    1
    91    70    69    2
    92   103   104    1
    93   103   100    1
    94   120   118   ar
    95   104   105   ar
    96   109   110    1
    97   109   107   ar
    98    99   100    1
    99    86    84   ar
   100   114   113    2
   101   105   107   ar
   102    57    58    1
   103    57    56    1
   104   112   111    1
   105   112   113    1
   106   100   101    1
   107    85    84   ar
   108    64    65    1
   109    64    58   am
   110    69    71   am
   111    69    68    1
   112    84    83    1
   113   102   101    2
   114    65    68    1
   115    65    66    1
   116    58    59    2
   117    77    76    1
   118    76    73    1
   119    83    82    1
   120    66    67    2
   121    82    79    1
   122    75    74    2
   123    73    74    1
   124    73    72    1
   125    80    79    1
   126    80    81    2
   127    79    78    1
