@<TRIPOS>MOLECULE
tmp/6a93A00.pdb
 218 211 0 0 0
SMALL
GASTEIGER

@<TRIPOS>ATOM
      1  N         10.8310    5.1120   68.8900 N.3    63  SER63      -0.1217
      2  CA        10.3010    3.7600   68.7420 C.3    63  SER63       0.1889
      3  C          9.7930    3.2220   70.0750 C.2    63  SER63       0.2288
      4  O          8.7900    2.5000   70.1190 O.2    63  SER63      -0.2866
      5  CB        11.3720    2.8380   68.1600 C.3    63  SER63       0.2089
      6  OG        10.8440    1.5520   67.8850 O.3    63  SER63      -0.2183
      7  N          6.5190    4.7200   70.6200 N.3    66  THR66      -0.1203
      8  CA         5.5540    4.0250   69.7740 C.3    66  THR66       0.1994
      9  C          5.0990    2.7160   70.4130 C.2    66  THR66       0.2617
     10  O          3.8970    2.4330   70.4840 O.2    66  THR66      -0.2717
     11  CB         6.1590    3.7720   68.3910 C.3    66  THR66       0.1784
     12  OG1        6.3090    5.0180   67.6990 O.3    66  THR66      -0.2211
     13  CG2        5.2680    2.8520   67.5750 C.3    66  THR66       0.0376
     14  N          6.0480    1.9040   70.8910 N.am   67  ILE67      -0.1979
     15  CA         5.6760    0.6350   71.5130 C.3    67  ILE67       0.1595
     16  C          4.9280    0.8490   72.8230 C.2    67  ILE67       0.2287
     17  O          4.2420   -0.0650   73.2950 O.2    67  ILE67      -0.2864
     18  CB         6.8980   -0.2790   71.7450 C.3    67  ILE67       0.0276
     19  CG1        7.7310    0.1990   72.9350 C.3    67  ILE67       0.0022
     20  CG2        7.7430   -0.3900   70.4850 C.3    67  ILE67       0.0022
     21  CD1        8.9630   -0.6410   73.1970 C.3    67  ILE67       0.0001
     22  N          1.7670    0.7920   69.4640 N.3    71  TYR71      -0.1241
     23  CA         2.2200    0.9520   68.0830 C.3    71  TYR71       0.1605
     24  C          1.3620    1.9340   67.2910 C.2    71  TYR71       0.2264
     25  O          1.3610    1.9040   66.0590 O.2    71  TYR71      -0.2867
     26  CB         2.2930   -0.3980   67.3590 C.3    71  TYR71       0.0534
     27  CG         3.1590   -1.4120   68.0700 C.ar   71  TYR71      -0.0201
     28  CD1        4.5430   -1.2990   68.0580 C.ar   71  TYR71      -0.0009
     29  CD2        2.5940   -2.4770   68.7590 C.ar   71  TYR71      -0.0009
     30  CE1        5.3390   -2.2200   68.7080 C.ar   71  TYR71       0.0417
     31  CE2        3.3840   -3.4040   69.4130 C.ar   71  TYR71       0.0417
     32  CZ         4.7560   -3.2690   69.3850 C.ar   71  TYR71       0.1957
     33  OH         5.5470   -4.1890   70.0340 O.3    71  TYR71      -0.2866
     34  N         10.6070   10.8130   60.7840 N.3    83  TRP83      -0.1227
     35  CA        11.2590    9.8380   61.6470 C.3    83  TRP83       0.1737
     36  C         11.7010    8.6110   60.8590 C.2    83  TRP83       0.2595
     37  O         12.8000    8.0880   61.0830 O.2    83  TRP83      -0.2718
     38  CB        10.3040    9.4660   62.7820 C.3    83  TRP83       0.0564
     39  CG        10.6990    8.2840   63.6010 C.ar   83  TRP83       0.0003
     40  CD1       11.7570    8.1920   64.4560 C.ar   83  TRP83       0.0946
     41  CD2       10.0140    7.0290   63.6710 C.ar   83  TRP83       0.0152
     42  NE1       11.7830    6.9500   65.0430 N.ar   83  TRP83      -0.2442
     43  CE2       10.7220    6.2170   64.5780 C.ar   83  TRP83       0.0810
     44  CE3        8.8750    6.5110   63.0490 C.ar   83  TRP83       0.0012
     45  CZ2       10.3290    4.9160   64.8760 C.ar   83  TRP83       0.0191
     46  CZ3        8.4860    5.2200   63.3460 C.ar   83  TRP83       0.0001
     47  CH2        9.2100    4.4370   64.2520 C.ar   83  TRP83       0.0015
     48  N         10.8650    8.1410   59.9280 N.am   84  ILE84      -0.1980
     49  CA        11.2750    7.0300   59.0690 C.3    84  ILE84       0.1595
     50  C         12.4780    7.4270   58.2210 C.2    84  ILE84       0.2287
     51  O         13.4100    6.6330   58.0220 O.2    84  ILE84      -0.2864
     52  CB        10.0960    6.5650   58.1930 C.3    84  ILE84       0.0276
     53  CG1        8.9500    6.0440   59.0620 C.3    84  ILE84       0.0022
     54  CG2       10.5490    5.4970   57.2060 C.3    84  ILE84       0.0022
     55  CD1        7.8050    5.4490   58.2690 C.3    84  ILE84       0.0001
     56  N         15.5690    7.3990   60.4870 N.3    87  ASP87      -0.1225
     57  CA        15.9250    6.0170   60.7960 C.3    87  ASP87       0.1805
     58  C         16.6750    5.3680   59.6360 C.2    87  ASP87       0.2597
     59  O         17.7950    4.8530   59.8010 O.2    87  ASP87      -0.2718
     60  CB        14.6490    5.2390   61.1260 C.3    87  ASP87       0.1424
     61  CG        14.9230    3.8590   61.6810 C.2    87  ASP87       0.3668
     62  OD1       16.1030    3.5160   61.8990 O.co2  87  ASP87      -0.2456
     63  OD2       13.9440    3.1180   61.9060 O.co2  87  ASP87      -0.2456
     64  N         16.0580    5.3760   58.4500 N.am   88  VAL88      -0.1980
     65  CA        16.6860    4.7750   57.2770 C.3    88  VAL88       0.1595
     66  C         18.0010    5.4740   56.9640 C.2    88  VAL88       0.2287
     67  O         18.9880    4.8300   56.5890 O.2    88  VAL88      -0.2864
     68  CB        15.7210    4.8070   56.0770 C.3    88  VAL88       0.0276
     69  CG1       16.4130    4.3060   54.8190 C.3    88  VAL88       0.0022
     70  CG2       14.4860    3.9720   56.3740 C.3    88  VAL88       0.0022
     71  N         20.7610    4.2640   59.5090 N.3    91  SER91      -0.1202
     72  CA        21.1540    2.8690   59.3090 C.3    91  SER91       0.2020
     73  C         21.9050    2.6780   57.9900 C.2    91  SER91       0.2619
     74  O         22.9270    1.9700   57.9380 O.2    91  SER91      -0.2717
     75  CB        19.9230    1.9680   59.3680 C.3    91  SER91       0.2103
     76  OG        19.3030    2.0350   60.6410 O.3    91  SER91      -0.2182
     77  N         21.4190    3.3090   56.9170 N.am   92  THR92      -0.1952
     78  CA        22.1000    3.2340   55.6310 C.3    92  THR92       0.1897
     79  C         23.4740    3.8840   55.7050 C.2    92  THR92       0.2313
     80  O         24.4420    3.3790   55.1230 O.2    92  THR92      -0.2863
     81  CB        21.2400    3.9000   54.5550 C.3    92  THR92       0.1794
     82  OG1       19.9450    3.2890   54.5350 O.3    92  THR92      -0.2208
     83  CG2       21.8730    3.7510   53.1880 C.3    92  THR92       0.0378
     84  N         25.8290    1.2900   57.3680 N.3    95  ILE95      -0.1245
     85  CA        26.2800    0.1760   56.5350 C.3    95  ILE95       0.1561
     86  C         27.1900    0.6720   55.4140 C.2    95  ILE95       0.2260
     87  O         28.1700    0.0050   55.0520 O.2    95  ILE95      -0.2867
     88  CB        25.0900   -0.6340   55.9910 C.3    95  ILE95       0.0252
     89  CG1       25.6020   -1.9070   55.3070 C.3    95  ILE95       0.0019
     90  CG2       24.2500    0.2010   55.0430 C.3    95  ILE95       0.0019
     91  CD1       24.5280   -2.8990   54.9350 C.3    95  ILE95       0.0001
     92  N          4.5880    3.0490   59.8260 N.3   160  LEU160     -0.1231
     93  CA         5.4640    2.0740   59.1970 C.3   160  LEU160      0.1693
     94  C          5.6080    2.3970   57.7180 C.2   160  LEU160      0.2591
     95  O          4.6940    2.9400   57.0920 O.2   160  LEU160     -0.2718
     96  CB         4.9300    0.6410   59.3580 C.3   160  LEU160      0.0284
     97  CG         4.7090    0.1160   60.7770 C.3   160  LEU160      0.0019
     98  CD1        4.1710   -1.3060   60.7400 C.3   160  LEU160      0.0001
     99  CD2        5.9940    0.1840   61.5840 C.3   160  LEU160      0.0001
    100  N          6.7640    2.0440   57.1610 N.am  161  LEU161     -0.1980
    101  CA         6.9920    2.1620   55.7230 C.3   161  LEU161      0.1596
    102  C          6.1680    1.0840   55.0300 C.2   161  LEU161      0.2287
    103  O          6.5730   -0.0780   54.9590 O.2   161  LEU161     -0.2864
    104  CB         8.4770    2.0280   55.4040 C.3   161  LEU161      0.0297
    105  CG         8.8990    2.2350   53.9480 C.3   161  LEU161      0.0022
    106  CD1        8.5950    3.6550   53.4970 C.3   161  LEU161      0.0001
    107  CD2       10.3740    1.9200   53.7740 C.3   161  LEU161      0.0001
    108  N         20.0560   -0.3460   50.2670 N.3   174  SER174     -0.1202
    109  CA        20.5970    0.0150   51.5680 C.3   174  SER174      0.2020
    110  C         21.1900   -1.1570   52.3360 C.2   174  SER174      0.2618
    111  O         21.9730   -0.9280   53.2620 O.2   174  SER174     -0.2717
    112  CB        19.5070    0.6690   52.4280 C.3   174  SER174      0.2103
    113  OG        18.8940    1.7490   51.7470 O.3   174  SER174     -0.2182
    114  N         20.8380   -2.3980   52.0020 N.am  175  PHE175     -0.1975
    115  CA        21.3720   -3.5340   52.7470 C.3   175  PHE175      0.1639
    116  C         22.1290   -4.5320   51.8850 C.2   175  PHE175      0.2290
    117  O         23.2600   -4.8970   52.2260 O.2   175  PHE175     -0.2864
    118  CB        20.2400   -4.2520   53.4950 C.3   175  PHE175      0.0560
    119  CG        20.7220   -5.2830   54.4720 C.ar  175  PHE175     -0.0200
    120  CD1       21.4370   -4.9050   55.5960 C.ar  175  PHE175     -0.0042
    121  CD2       20.4610   -6.6270   54.2690 C.ar  175  PHE175     -0.0042
    122  CE1       21.8850   -5.8510   56.5000 C.ar  175  PHE175     -0.0003
    123  CE2       20.9050   -7.5770   55.1690 C.ar  175  PHE175     -0.0003
    124  CZ        21.6180   -7.1880   56.2860 C.ar  175  PHE175     -0.0000
    125  N         27.3140   -6.7190   62.6050 N.3   303  PHE303     -0.1241
    126  CA        26.2740   -5.8040   62.1380 C.3   303  PHE303      0.1605
    127  C         25.3170   -6.5030   61.1730 C.2   303  PHE303      0.2264
    128  O         24.0880   -6.4470   61.3400 O.2   303  PHE303     -0.2867
    129  CB        26.9170   -4.5810   61.4820 C.3   303  PHE303      0.0534
    130  CG        25.9380   -3.6630   60.8090 C.ar  303  PHE303     -0.0203
    131  CD1       25.1840   -2.7710   61.5510 C.ar  303  PHE303     -0.0042
    132  CD2       25.7810   -3.6810   59.4330 C.ar  303  PHE303     -0.0042
    133  CE1       24.2870   -1.9200   60.9340 C.ar  303  PHE303     -0.0003
    134  CE2       24.8830   -2.8330   58.8130 C.ar  303  PHE303     -0.0003
    135  CZ        24.1360   -1.9520   59.5650 C.ar  303  PHE303     -0.0000
    136  N         21.3180   -7.5230   61.7360 N.3   307  TRP307     -0.1241
    137  CA        20.2460   -6.9300   60.9420 C.3   307  TRP307      0.1605
    138  C         19.5930   -7.9020   59.9650 C.2   307  TRP307      0.2264
    139  O         18.5550   -7.5630   59.3860 O.2   307  TRP307     -0.2867
    140  CB        20.7550   -5.7120   60.1660 C.3   307  TRP307      0.0550
    141  CG        20.6120   -4.4290   60.9170 C.ar  307  TRP307      0.0003
    142  CD1       21.6110   -3.5860   61.2870 C.ar  307  TRP307      0.0946
    143  CD2       19.3940   -3.8430   61.3980 C.ar  307  TRP307      0.0152
    144  NE1       21.0990   -2.5060   61.9640 N.ar  307  TRP307     -0.2442
    145  CE2       19.7380   -2.6410   62.0460 C.ar  307  TRP307      0.0810
    146  CE3       18.0470   -4.2180   61.3420 C.ar  307  TRP307      0.0012
    147  CZ2       18.7860   -1.8110   62.6350 C.ar  307  TRP307      0.0191
    148  CZ3       17.1040   -3.3920   61.9280 C.ar  307  TRP307      0.0001
    149  CH2       17.4780   -2.2040   62.5660 C.ar  307  TRP307      0.0015
    150  N         15.7200   -9.1220   60.6300 N.3   310  PHE310     -0.1227
    151  CA        14.6980   -8.1270   60.3200 C.3   310  PHE310      0.1736
    152  C         14.4160   -8.0700   58.8260 C.2   310  PHE310      0.2595
    153  O         13.2550   -8.0670   58.4060 O.2   310  PHE310     -0.2718
    154  CB        15.1080   -6.7460   60.8280 C.3   310  PHE310      0.0547
    155  CG        14.3220   -5.6280   60.2040 C.ar  310  PHE310     -0.0202
    156  CD1       12.9890   -5.4410   60.5270 C.ar  310  PHE310     -0.0042
    157  CD2       14.9080   -4.7740   59.2840 C.ar  310  PHE310     -0.0042
    158  CE1       12.2570   -4.4200   59.9510 C.ar  310  PHE310     -0.0003
    159  CE2       14.1800   -3.7500   58.7060 C.ar  310  PHE310     -0.0003
    160  CZ        12.8540   -3.5730   59.0410 C.ar  310  PHE310     -0.0000
    161  N         15.4660   -7.9970   58.0060 N.am  311  PHE311     -0.1976
    162  CA        15.2630   -7.9140   56.5630 C.3   311  PHE311      0.1639
    163  C         14.6370   -9.1930   56.0200 C.2   311  PHE311      0.2290
    164  O         13.7580   -9.1380   55.1490 O.2   311  PHE311     -0.2864
    165  CB        16.5860   -7.6110   55.8620 C.3   311  PHE311      0.0560
    166  CG        17.0080   -6.1750   55.9710 C.ar  311  PHE311     -0.0200
    167  CD1       17.6980   -5.7240   57.0830 C.ar  311  PHE311     -0.0042
    168  CD2       16.7030   -5.2710   54.9670 C.ar  311  PHE311     -0.0042
    169  CE1       18.0840   -4.4030   57.1910 C.ar  311  PHE311     -0.0003
    170  CE2       17.0850   -3.9460   55.0680 C.ar  311  PHE311     -0.0003
    171  CZ        17.7770   -3.5120   56.1810 C.ar  311  PHE311     -0.0000
    172  N         11.0000   -9.0670   56.9810 N.3   314  ASN314     -0.1240
    173  CA        10.2900   -7.9880   56.3040 C.3   314  ASN314      0.1653
    174  C         10.0080   -8.3440   54.8500 C.2   314  ASN314      0.2266
    175  O          8.8730   -8.2070   54.3770 O.2   314  ASN314     -0.2867
    176  CB        11.0970   -6.6920   56.4000 C.3   314  ASN314      0.1155
    177  CG        10.2280   -5.4550   56.2780 C.2   314  ASN314      0.2627
    178  OD1        9.0820   -5.4400   56.7280 O.2   314  ASN314     -0.2716
    179  ND2       10.7730   -4.4080   55.6690 N.am  314  ASN314     -0.0877
    180  N          4.5490  -10.2040   63.0780 N.3   330  GLY330     -0.1225
    181  CA         4.6910   -8.9110   63.7280 C.3   330  GLY330      0.1811
    182  C          5.5440   -8.9850   64.9790 C.2   330  GLY330      0.2280
    183  O          6.3780   -8.1050   65.2320 O.2   330  GLY330     -0.2866
    184  N          9.0550   -9.2180   63.8170 N.3   333  LEU333     -0.1231
    185  CA         9.5630   -7.9460   63.3170 C.3   333  LEU333      0.1693
    186  C          9.9280   -7.0110   64.4610 C.2   333  LEU333      0.2592
    187  O         10.9590   -6.3360   64.4040 O.2   333  LEU333     -0.2718
    188  CB         8.5420   -7.2920   62.3850 C.3   333  LEU333      0.0284
    189  CG         8.5980   -7.7240   60.9180 C.3   333  LEU333      0.0019
    190  CD1        7.5760   -6.9600   60.0890 C.3   333  LEU333      0.0001
    191  CD2        9.9970   -7.5250   60.3570 C.3   333  LEU333      0.0001
    192  N          9.1080   -6.9670   65.5130 N.am  334  ASN334     -0.1974
    193  CA         9.4760   -6.2030   66.7050 C.3   334  ASN334      0.1688
    194  C         10.8180   -6.6740   67.2640 C.2   334  ASN334      0.2292
    195  O         11.7650   -5.8820   67.4250 O.2   334  ASN334     -0.2864
    196  CB         8.3790   -6.3240   67.7660 C.3   334  ASN334      0.1181
    197  CG         7.0730   -5.6950   67.3330 C.2   334  ASN334      0.2629
    198  OD1        7.0610   -4.7090   66.6020 O.2   334  ASN334     -0.2716
    199  ND2        5.9620   -6.2620   67.7880 N.am  334  ASN334     -0.0877
    200  N         13.7690   -5.9250   64.8170 N.3   337  VAL337     -0.1245
    201  CA        14.0990   -4.5040   64.8210 C.3   337  VAL337      0.1561
    202  C         14.9490   -4.1710   66.0360 C.2   337  VAL337      0.2260
    203  O         15.9520   -3.4510   65.9360 O.2   337  VAL337     -0.2867
    204  CB        12.8140   -3.6540   64.7790 C.3   337  VAL337      0.0252
    205  CG1       13.0960   -2.2350   65.2460 C.3   337  VAL337      0.0019
    206  CG2       12.2340   -3.6300   63.3800 C.3   337  VAL337      0.0019
    207  N         18.7980   -2.8710   66.3070 N.3   341  TYR341     -0.1241
    208  CA        19.1770   -1.6920   67.0800 C.3   341  TYR341      0.1605
    209  C         20.2780   -2.0170   68.0850 C.2   341  TYR341      0.2264
    210  O         21.1510   -1.1810   68.3470 O.2   341  TYR341     -0.2867
    211  CB        17.9510   -1.1070   67.7810 C.3   341  TYR341      0.0534
    212  CG        17.0540   -0.2930   66.8720 C.ar  341  TYR341     -0.0201
    213  CD1       17.5620    0.3380   65.7440 C.ar  341  TYR341     -0.0009
    214  CD2       15.7000   -0.1540   67.1430 C.ar  341  TYR341     -0.0009
    215  CE1       16.7440    1.0840   64.9130 C.ar  341  TYR341      0.0417
    216  CE2       14.8770    0.5910   66.3230 C.ar  341  TYR341      0.0417
    217  CZ        15.4010    1.2060   65.2090 C.ar  341  TYR341      0.1957
    218  OH        14.5800    1.9460   64.3890 O.3   341  TYR341     -0.2866
@<TRIPOS>BOND
     1   108   109    1
     2   109   110    1
     3   109   112    1
     4   113   112    1
     5   116   117    2
     6   116   115    1
     7   114   110   am
     8   114   115    1
     9   110   111    2
    10   115   118    1
    11    83    81    1
    12   118   119    1
    13   106   105    1
    14   107   105    1
    15   105   104    1
    16   121   119   ar
    17   121   123   ar
    18   175   174    2
    19   119   120   ar
    20    82    81    1
    21    81    78    1
    22    69    68    1
    23   174   173    1
    24    91    89    1
    25   103   102    2
    26   168   170   ar
    27   168   166   ar
    28   102   101    1
    29    90    88    1
    30    87    86    2
    31   170   171   ar
    32    80    79    2
    33   164   163    2
    34   123   124   ar
    35    89    88    1
    36   104   101    1
    37    86    85    1
    38   120   122   ar
    39    78    79    1
    40    78    77    1
    41   179   177   am
    42   101   100    1
    43   165   166    1
    44   165   162    1
    45   166   167   ar
    46    88    85    1
    47   163   162    1
    48    68    70    1
    49    68    65    1
    50   171   169   ar
    51   177   176    1
    52   177   178    2
    53   124   122   ar
    54   173   176    1
    55   173   172    1
    56    85    84    1
    57   162   161    1
    58    67    66    2
    59    77    73   am
    60    66    65    1
    61   167   169   ar
    62    95    94    2
    63   100    94   am
    64    54    52    1
    65    65    64    1
    66    94    93    1
    67    74    73    2
    68    73    72    1
    69   161   152   am
    70    51    50    2
    71    52    53    1
    72    52    49    1
    73    50    49    1
    74    55    53    1
    75   153   152    2
    76    64    58   am
    77   159   160   ar
    78   159   157   ar
    79   134   132   ar
    80   134   135   ar
    81   152   151    1
    82   160   158   ar
    83    49    48    1
    84    93    96    1
    85    93    92    1
    86   157   155   ar
    87    72    75    1
    88    72    71    1
    89    96    97    1
    90    75    76    1
    91   139   138    2
    92   132   130   ar
    93   135   133   ar
    94    58    59    2
    95    58    57    1
    96    48    36   am
    97   158   156   ar
    98   138   137    1
    99   190   189    1
   100   140   141    1
   101   140   137    1
   102   155   156   ar
   103   155   154    1
   104   151   150    1
   105   151   154    1
   106   191   189    1
   107    56    57    1
   108    98    97    1
   109    97    99    1
   110    34    35    1
   111    57    60    1
   112   130   129    1
   113   130   131   ar
   114    36    37    2
   115    36    35    1
   116   141   142   ar
   117   141   143   ar
   118   189   188    1
   119   133   131   ar
   120   137   136    1
   121    60    61    1
   122   127   128    2
   123   127   126    1
   124   142   144   ar
   125   146   143   ar
   126   146   148   ar
   127   143   145   ar
   128   129   126    1
   129    35    38    1
   130    61    62   ar
   131    61    63   ar
   132   148   149   ar
   133   144   145   ar
   134   145   147   ar
   135   126   125    1
   136   188   185    1
   137   149   147   ar
   138    38    39    1
   139    44    46   ar
   140    44    41   ar
   141   180   181    1
   142   185   184    1
   143   185   186    1
   144    46    47   ar
   145   206   204    1
   146    39    41   ar
   147    39    40   ar
   148    41    43   ar
   149   181   182    1
   150    47    45   ar
   151   218   217    1
   152   187   186    2
   153    40    42   ar
   154   186   192   am
   155    43    45   ar
   156    43    42   ar
   157   204   201    1
   158   204   205    1
   159   200   201    1
   160   201   202    1
   161   215   217   ar
   162   215   213   ar
   163   182   183    2
   164   217   216   ar
   165   192   193    1
   166   213   212   ar
   167   203   202    2
   168    25    24    2
   169   207   208    1
   170   216   214   ar
   171   198   197    2
   172   193   194    1
   173   193   196    1
   174   212   214   ar
   175   212   211    1
   176   208   211    1
   177   208   209    1
   178   194   195    2
   179    24    23    1
   180   197   196    1
   181   197   199   am
   182    26    27    1
   183    26    23    1
   184    13    11    1
   185    12    11    1
   186     6     5    1
   187    28    27   ar
   188    28    30   ar
   189    27    29   ar
   190    23    22    1
   191   209   210    2
   192     5     2    1
   193    11     8    1
   194    30    32   ar
   195     2     1    1
   196     2     3    1
   197    29    31   ar
   198    32    31   ar
   199    32    33    1
   200     8     9    1
   201     8     7    1
   202     3     4    2
   203     9    10    2
   204     9    14   am
   205    20    18    1
   206    14    15    1
   207    15    18    1
   208    15    16    1
   209    18    19    1
   210    16    17    2
   211    19    21    1
