@<TRIPOS>MOLECULE
tmp/6a93A02.pdb
 103 95 0 0 0
SMALL
GASTEIGER

@<TRIPOS>ATOM
      1  N          1.7670    0.7920   69.4640 N.3    71  TYR71      -0.1241
      2  CA         2.2200    0.9520   68.0830 C.3    71  TYR71       0.1605
      3  C          1.3620    1.9340   67.2910 C.2    71  TYR71       0.2264
      4  O          1.3610    1.9040   66.0590 O.2    71  TYR71      -0.2867
      5  CB         2.2930   -0.3980   67.3590 C.3    71  TYR71       0.0534
      6  CG         3.1590   -1.4120   68.0700 C.ar   71  TYR71      -0.0201
      7  CD1        4.5430   -1.2990   68.0580 C.ar   71  TYR71      -0.0009
      8  CD2        2.5940   -2.4770   68.7590 C.ar   71  TYR71      -0.0009
      9  CE1        5.3390   -2.2200   68.7080 C.ar   71  TYR71       0.0417
     10  CE2        3.3840   -3.4040   69.4130 C.ar   71  TYR71       0.0417
     11  CZ         4.7560   -3.2690   69.3850 C.ar   71  TYR71       0.1957
     12  OH         5.5470   -4.1890   70.0340 O.3    71  TYR71      -0.2866
     13  N          0.4670    2.6710   58.2160 N.3   155  LYS155     -0.1231
     14  CA         0.0380    1.2850   58.0230 C.3   155  LYS155      0.1693
     15  C         -0.9260    0.9420   59.1590 C.2   155  LYS155      0.2591
     16  O         -0.5030    0.4860   60.2250 O.2   155  LYS155     -0.2718
     17  CB         1.2570    0.3710   57.9900 C.3   155  LYS155      0.0285
     18  CG         1.0200   -1.0710   57.5920 C.3   155  LYS155      0.0035
     19  CD         2.3690   -1.7770   57.4880 C.3   155  LYS155      0.0206
     20  CE         2.2500   -3.1990   56.9740 C.3   155  LYS155      0.1093
     21  NZ         3.5960   -3.8280   56.8440 N.3   155  LYS155     -0.1314
     22  N         -2.2200    1.1690   58.9170 N.am  156  GLU156     -0.1979
     23  CA        -3.2780    0.9270   59.9020 C.3   156  GLU156      0.1602
     24  C         -3.0430    1.7380   61.1760 C.2   156  GLU156      0.2287
     25  O         -3.0520    1.2080   62.2890 O.2   156  GLU156     -0.2864
     26  CB        -3.4020   -0.5630   60.2270 C.3   156  GLU156      0.0415
     27  CG        -3.7120   -1.4570   59.0430 C.3   156  GLU156      0.1163
     28  CD        -4.0740   -2.8650   59.4720 C.2   156  GLU156      0.3649
     29  OE1       -4.1960   -3.1010   60.6930 O.co2 156  GLU156     -0.2457
     30  OE2       -4.2290   -3.7370   58.5920 O.co2 156  GLU156     -0.2457
     31  N         -0.4910    2.8230   62.4160 N.3   158  SER158     -0.1217
     32  CA         0.8930    2.7040   62.8460 C.3   158  SER158      0.1889
     33  C          1.8260    3.3510   61.8320 C.2   158  SER158      0.2288
     34  O          1.5800    3.3100   60.6230 O.2   158  SER158     -0.2866
     35  CB         1.2680    1.2330   63.0330 C.3   158  SER158      0.2089
     36  OG         0.9810    0.4790   61.8700 O.3   158  SER158     -0.2183
     37  N          4.5880    3.0490   59.8260 N.3   160  LEU160     -0.1245
     38  CA         5.4640    2.0740   59.1970 C.3   160  LEU160      0.1561
     39  C          5.6080    2.3970   57.7180 C.2   160  LEU160      0.2260
     40  O          4.6940    2.9400   57.0920 O.2   160  LEU160     -0.2867
     41  CB         4.9300    0.6410   59.3580 C.3   160  LEU160      0.0270
     42  CG         4.7090    0.1160   60.7770 C.3   160  LEU160      0.0019
     43  CD1        4.1710   -1.3060   60.7400 C.3   160  LEU160      0.0001
     44  CD2        5.9940    0.1840   61.5840 C.3   160  LEU160      0.0001
     45  N          7.3440  -11.0270   54.8380 N.3   317  ALA317     -0.1245
     46  CA         6.0100  -10.4900   55.0690 C.3   317  ALA317      0.1562
     47  C          5.5100   -9.6730   53.8890 C.2   317  ALA317      0.2260
     48  O          4.2940   -9.5430   53.7160 O.2   317  ALA317     -0.2867
     49  CB         6.0010   -9.6360   56.3360 C.3   317  ALA317      0.0290
     50  N          1.4900  -12.1840   52.0100 N.3   321  LYS321     -0.1245
     51  CA         0.5960  -11.3670   52.8210 C.3   321  LYS321      0.1561
     52  C         -0.4150  -12.2180   53.5780 C.2   321  LYS321      0.2260
     53  O         -0.8890  -11.8090   54.6440 O.2   321  LYS321     -0.2867
     54  CB        -0.1260  -10.3400   51.9450 C.3   321  LYS321      0.0271
     55  CG         0.7930   -9.5160   51.0560 C.3   321  LYS321      0.0035
     56  CD         1.8560   -8.7870   51.8610 C.3   321  LYS321      0.0206
     57  CE         1.2490   -7.8040   52.8510 C.3   321  LYS321      0.1093
     58  NZ         2.2970   -7.1330   53.6720 N.3   321  LYS321     -0.1314
     59  N          0.8040  -13.7030   60.2420 N.3   326  GLU326     -0.1231
     60  CA         1.2800  -12.3370   60.4250 C.3   326  GLU326      0.1699
     61  C          1.2880  -11.8570   61.8730 C.2   326  GLU326      0.2592
     62  O          1.9060  -10.8260   62.1520 O.2   326  GLU326     -0.2718
     63  CB         0.4530  -11.3620   59.5770 C.3   326  GLU326      0.0402
     64  CG         0.9450  -11.2420   58.1450 C.3   326  GLU326      0.1161
     65  CD         0.3960  -10.0220   57.4350 C.2   326  GLU326      0.3649
     66  OE1       -0.7100   -9.5690   57.7960 O.co2 326  GLU326     -0.2457
     67  OE2        1.0780   -9.5090   56.5230 O.co2 326  GLU326     -0.2457
     68  N          0.6410  -12.5620   62.8020 N.am  327  ASP327     -0.1974
     69  CA         0.7730  -12.1900   64.2090 C.3   327  ASP327      0.1709
     70  C          2.1650  -12.5350   64.7250 C.2   327  ASP327      0.2293
     71  O          2.8730  -11.6820   65.2860 O.2   327  ASP327     -0.2864
     72  CB        -0.3030  -12.8870   65.0440 C.3   327  ASP327      0.1436
     73  CG        -1.6890  -12.3230   64.7980 C.2   327  ASP327      0.3671
     74  OD1       -1.7990  -11.2930   64.1010 O.co2 327  ASP327     -0.2456
     75  OD2       -2.6690  -12.9110   65.3030 O.co2 327  ASP327     -0.2456
     76  N          4.5450  -13.0000   62.7860 N.3   329  ILE329     -0.1231
     77  CA         5.4300  -12.1920   61.9510 C.3   329  ILE329      0.1692
     78  C          5.6170  -10.8000   62.5460 C.2   329  ILE329      0.2592
     79  O          6.7240  -10.2530   62.5310 O.2   329  ILE329     -0.2718
     80  CB         4.9050  -12.1330   60.5040 C.3   329  ILE329      0.0266
     81  CG1        5.6470  -13.1510   59.6350 C.3   329  ILE329      0.0019
     82  CG2        5.0390  -10.7310   59.9180 C.3   329  ILE329      0.0020
     83  CD1        5.3810  -12.9970   58.1620 C.3   329  ILE329      0.0001
     84  N          4.5490  -10.2040   63.0780 N.am  330  GLY330     -0.1957
     85  CA         4.6910   -8.9110   63.7280 C.3   330  GLY330      0.1869
     86  C          5.5440   -8.9850   64.9790 C.2   330  GLY330      0.2309
     87  O          6.3780   -8.1050   65.2320 O.2   330  GLY330     -0.2863
     88  N          9.0550   -9.2180   63.8170 N.3   333  LEU333     -0.1231
     89  CA         9.5630   -7.9460   63.3170 C.3   333  LEU333      0.1693
     90  C          9.9280   -7.0110   64.4610 C.2   333  LEU333      0.2592
     91  O         10.9590   -6.3360   64.4040 O.2   333  LEU333     -0.2718
     92  CB         8.5420   -7.2920   62.3850 C.3   333  LEU333      0.0284
     93  CG         8.5980   -7.7240   60.9180 C.3   333  LEU333      0.0019
     94  CD1        7.5760   -6.9600   60.0890 C.3   333  LEU333      0.0001
     95  CD2        9.9970   -7.5250   60.3570 C.3   333  LEU333      0.0001
     96  N          9.1080   -6.9670   65.5130 N.am  334  ASN334     -0.1974
     97  CA         9.4760   -6.2030   66.7050 C.3   334  ASN334      0.1688
     98  C         10.8180   -6.6740   67.2640 C.2   334  ASN334      0.2292
     99  O         11.7650   -5.8820   67.4250 O.2   334  ASN334     -0.2864
    100  CB         8.3790   -6.3240   67.7660 C.3   334  ASN334      0.1181
    101  CG         7.0730   -5.6950   67.3330 C.2   334  ASN334      0.2629
    102  OD1        7.0610   -4.7090   66.6020 O.2   334  ASN334     -0.2716
    103  ND2        5.9620   -6.2620   67.7880 N.am  334  ASN334     -0.0877
@<TRIPOS>BOND
     1    55    56    1
     2    55    54    1
     3    56    57    1
     4    54    51    1
     5    50    51    1
     6    51    52    1
     7    57    58    1
     8    52    53    2
     9    48    47    2
    10    47    46    1
    11    45    46    1
    12    46    49    1
    13    67    65   ar
    14    21    20    1
    15    20    19    1
    16    40    39    2
    17    65    66   ar
    18    65    64    1
    19    19    18    1
    20    18    17    1
    21    39    38    1
    22    17    14    1
    23    14    13    1
    24    14    15    1
    25    64    63    1
    26    83    81    1
    27    30    28   ar
    28    22    15   am
    29    22    23    1
    30    27    28    1
    31    27    26    1
    32    15    16    2
    33    38    41    1
    34    38    37    1
    35    41    42    1
    36    28    29   ar
    37    63    60    1
    38    81    80    1
    39    23    26    1
    40    23    24    1
    41    82    80    1
    42    94    93    1
    43    59    60    1
    44    95    93    1
    45    60    61    1
    46    80    77    1
    47    34    33    2
    48    43    42    1
    49    42    44    1
    50    93    92    1
    51    24    25    2
    52    33    32    1
    53    36    35    1
    54    61    62    2
    55    61    68   am
    56    77    78    1
    57    77    76    1
    58    92    89    1
    59    31    32    1
    60    79    78    2
    61    78    84   am
    62    68    69    1
    63    32    35    1
    64    84    85    1
    65    89    88    1
    66    89    90    1
    67    85    86    1
    68    74    73   ar
    69    69    70    1
    70    69    72    1
    71    91    90    2
    72    90    96   am
    73    70    71    2
    74    73    72    1
    75    73    75   ar
    76    86    87    2
    77    96    97    1
    78     4     3    2
    79   102   101    2
    80    97    98    1
    81    97   100    1
    82    98    99    2
    83     3     2    1
    84   101   100    1
    85   101   103   am
    86     5     6    1
    87     5     2    1
    88     7     6   ar
    89     7     9   ar
    90     6     8   ar
    91     2     1    1
    92     9    11   ar
    93     8    10   ar
    94    11    10   ar
    95    11    12    1
