@<TRIPOS>MOLECULE
tmp/6a94A01.pdb
 129 125 0 0 0
SMALL
GASTEIGER

@<TRIPOS>ATOM
      1  N         39.0040    7.2060   61.0730 N.3    43  TYR43      -0.1241
      2  CA        38.0800    8.3010   60.7930 C.3    43  TYR43       0.1605
      3  C         36.7430    7.7630   60.3020 C.2    43  TYR43       0.2264
      4  O         35.6780    8.2280   60.7300 O.2    43  TYR43      -0.2867
      5  CB        38.6900    9.2570   59.7680 C.3    43  TYR43       0.0534
      6  CG        39.8600   10.0480   60.3080 C.ar   43  TYR43      -0.0201
      7  CD1       39.8990   10.4490   61.6380 C.ar   43  TYR43      -0.0009
      8  CD2       40.9350   10.3790   59.4930 C.ar   43  TYR43      -0.0009
      9  CE1       40.9710   11.1660   62.1380 C.ar   43  TYR43       0.0417
     10  CE2       42.0130   11.0920   59.9840 C.ar   43  TYR43       0.0417
     11  CZ        42.0270   11.4850   61.3050 C.ar   43  TYR43       0.1957
     12  OH        43.1020   12.1970   61.7920 O.3    43  TYR43      -0.2866
     13  N         34.9320    6.3830   63.2790 N.3    46  MET46      -0.1230
     14  CA        34.2980    7.4240   64.0850 C.3    46  MET46       0.1702
     15  C         33.0550    7.9710   63.3970 C.2    46  MET46       0.2593
     16  O         32.0760    8.3210   64.0630 O.2    46  MET46      -0.2718
     17  CB        35.2830    8.5490   64.3920 C.3    46  MET46       0.0401
     18  CG        34.6620    9.6950   65.1770 C.3    46  MET46       0.0596
     19  SD        35.8500   10.9590   65.6560 S.3    46  MET46      -0.1393
     20  CE        36.4020   11.5480   64.0580 C.3    46  MET46       0.0692
     21  N         33.0770    8.0630   62.0660 N.am   47  SER47      -0.1952
     22  CA        31.8520    8.3960   61.3440 C.3    47  SER47       0.1924
     23  C         30.7720    7.3530   61.6050 C.2    47  SER47       0.2314
     24  O         29.6010    7.6920   61.8250 O.2    47  SER47      -0.2863
     25  CB        32.1390    8.5120   59.8470 C.3    47  SER47       0.2116
     26  OG        30.9630    8.8160   59.1170 O.3    47  SER47      -0.2180
     27  N         29.3960    7.9970   65.0250 N.3    50  ILE50      -0.1245
     28  CA        28.4650    9.1230   65.0200 C.3    50  ILE50       0.1561
     29  C         27.1220    8.6970   64.4470 C.2    50  ILE50       0.2260
     30  O         26.0630    9.0800   64.9580 O.2    50  ILE50      -0.2867
     31  CB        29.0610   10.3100   64.2430 C.3    50  ILE50       0.0252
     32  CG1       30.2310   10.9170   65.0160 C.3    50  ILE50       0.0019
     33  CG2       28.0020   11.3630   63.9870 C.3    50  ILE50       0.0019
     34  CD1       30.8320   12.1330   64.3490 C.3    50  ILE50       0.0001
     35  N         23.6260    8.8300   66.4880 N.3    54  LEU54      -0.1245
     36  CA        22.4110    9.4580   65.9780 C.3    54  LEU54       0.1561
     37  C         21.2660    8.4570   65.8950 C.2    54  LEU54       0.2260
     38  O         20.1050    8.8090   66.1310 O.2    54  LEU54      -0.2867
     39  CB        22.6750   10.0900   64.6130 C.3    54  LEU54       0.0270
     40  CG        23.6060   11.3000   64.6300 C.3    54  LEU54       0.0019
     41  CD1       23.8300   11.8120   63.2210 C.3    54  LEU54       0.0001
     42  CD2       23.0450   12.3940   65.5220 C.3    54  LEU54       0.0001
     43  N         12.8410    7.6780   57.4970 N.3    85  TYR85      -0.1227
     44  CA        13.9280    8.2240   56.6930 C.3    85  TYR85       0.1736
     45  C         15.2240    8.2890   57.4830 C.2    85  TYR85       0.2595
     46  O         16.2840    7.9140   56.9800 O.2    85  TYR85      -0.2718
     47  CB        13.5650    9.6140   56.1850 C.3    85  TYR85       0.0548
     48  CG        14.7750   10.4280   55.7710 C.ar   85  TYR85      -0.0200
     49  CD1       15.4480   10.1540   54.5840 C.ar   85  TYR85      -0.0009
     50  CD2       15.2480   11.4660   56.5680 C.ar   85  TYR85      -0.0009
     51  CE1       16.5520   10.8970   54.1980 C.ar   85  TYR85       0.0417
     52  CE2       16.3550   12.2120   56.1910 C.ar   85  TYR85       0.0417
     53  CZ        17.0020   11.9220   55.0050 C.ar   85  TYR85       0.1957
     54  OH        18.1030   12.6570   54.6210 O.3    85  TYR85      -0.2866
     55  N         15.1640    8.7900   58.7160 N.am   86  LEU86      -0.1980
     56  CA        16.3750    8.8820   59.5230 C.3    86  LEU86       0.1596
     57  C         16.9270    7.4990   59.8370 C.2    86  LEU86       0.2287
     58  O         18.1450    7.2820   59.7760 O.2    86  LEU86      -0.2864
     59  CB        16.0950    9.6580   60.8080 C.3    86  LEU86       0.0297
     60  CG        15.8770   11.1620   60.6140 C.3    86  LEU86       0.0022
     61  CD1       15.7880   11.8730   61.9570 C.3    86  LEU86       0.0001
     62  CD2       16.9780   11.7650   59.7440 C.3    86  LEU86       0.0001
     63  N         18.4620    6.1230   56.6370 N.3    89  LEU89      -0.1231
     64  CA        19.6440    6.9020   56.2930 C.3    89  LEU89       0.1693
     65  C         20.8330    6.4950   57.1460 C.2    89  LEU89       0.2592
     66  O         21.9360    6.2790   56.6320 O.2    89  LEU89      -0.2718
     67  CB        19.3460    8.3910   56.4580 C.3    89  LEU89       0.0284
     68  CG        20.5310    9.3510   56.3560 C.3    89  LEU89       0.0019
     69  CD1       21.1120    9.3280   54.9570 C.3    89  LEU89       0.0001
     70  CD2       20.1310   10.7700   56.7480 C.3    89  LEU89       0.0001
     71  N         20.6280    6.3870   58.4600 N.am   90  PHE90      -0.1976
     72  CA        21.7360    6.0190   59.3330 C.3    90  PHE90       0.1639
     73  C         22.2150    4.6000   59.0490 C.2    90  PHE90       0.2290
     74  O         23.4260    4.3470   58.9980 O.2    90  PHE90      -0.2864
     75  CB        21.3290    6.1870   60.7960 C.3    90  PHE90       0.0560
     76  CG        21.0030    7.6100   61.1710 C.ar   90  PHE90      -0.0200
     77  CD1       21.5110    8.6710   60.4330 C.ar   90  PHE90      -0.0042
     78  CD2       20.1910    7.8860   62.2610 C.ar   90  PHE90      -0.0042
     79  CE1       21.2140    9.9790   60.7710 C.ar   90  PHE90      -0.0003
     80  CE2       19.8920    9.1920   62.6040 C.ar   90  PHE90      -0.0003
     81  CZ        20.4050   10.2400   61.8590 C.ar   90  PHE90      -0.0000
     82  N         38.1450   12.5670   55.2100 N.3   125  PHE125     -0.1241
     83  CA        36.9520   13.3410   55.5320 C.3   125  PHE125      0.1605
     84  C         36.1150   13.6000   54.2850 C.2   125  PHE125      0.2264
     85  O         34.8800   13.5230   54.3280 O.2   125  PHE125     -0.2867
     86  CB        37.3520   14.6560   56.2050 C.3   125  PHE125      0.0534
     87  CG        37.8730   14.4920   57.6130 C.ar  125  PHE125     -0.0203
     88  CD1       37.7910   13.2720   58.2670 C.ar  125  PHE125     -0.0042
     89  CD2       38.4460   15.5640   58.2820 C.ar  125  PHE125     -0.0042
     90  CE1       38.2720   13.1250   59.5630 C.ar  125  PHE125     -0.0003
     91  CE2       38.9270   15.4240   59.5750 C.ar  125  PHE125     -0.0003
     92  CZ        38.8400   14.2020   60.2160 C.ar  125  PHE125     -0.0000
     93  N         34.2380   10.4980   53.4560 N.3   128  ILE128     -0.1231
     94  CA        33.1460   10.2950   54.4040 C.3   128  ILE128      0.1692
     95  C         31.9600   11.1810   54.0480 C.2   128  ILE128      0.2591
     96  O         30.8010   10.7440   54.0870 O.2   128  ILE128     -0.2718
     97  CB        33.6360   10.5420   55.8430 C.3   128  ILE128      0.0266
     98  CG1       34.6440    9.4620   56.2480 C.3   128  ILE128      0.0019
     99  CG2       32.4630   10.5750   56.8140 C.3   128  ILE128      0.0020
    100  CD1       35.2460    9.6590   57.6220 C.3   128  ILE128      0.0001
    101  N         32.2300   12.4380   53.6900 N.am  129  ILE129     -0.1980
    102  CA        31.1490   13.3410   53.2940 C.3   129  ILE129      0.1595
    103  C         30.4640   12.8340   52.0280 C.2   129  ILE129      0.2287
    104  O         29.2360   12.9170   51.8890 O.2   129  ILE129     -0.2864
    105  CB        31.6860   14.7750   53.1210 C.3   129  ILE129      0.0276
    106  CG1       32.1820   15.3240   54.4620 C.3   129  ILE129      0.0022
    107  CG2       30.6160   15.6860   52.5420 C.3   129  ILE129      0.0022
    108  CD1       32.8070   16.7030   54.3650 C.3   129  ILE129      0.0001
    109  N         28.1550   10.0180   53.0320 N.3   132  TRP132     -0.1241
    110  CA        26.9460   10.5790   53.6290 C.3   132  TRP132      0.1605
    111  C         26.0110   11.1300   52.5590 C.2   132  TRP132      0.2264
    112  O         24.7870   10.9550   52.6380 O.2   132  TRP132     -0.2867
    113  CB        27.3130   11.6580   54.6440 C.3   132  TRP132      0.0550
    114  CG        27.6510   11.1000   55.9890 C.ar  132  TRP132      0.0003
    115  CD1       28.8890   11.0080   56.5510 C.ar  132  TRP132      0.0946
    116  CD2       26.7340   10.5410   56.9400 C.ar  132  TRP132      0.0152
    117  NE1       28.8010   10.4300   57.7980 N.ar  132  TRP132     -0.2442
    118  CE2       27.4890   10.1350   58.0590 C.ar  132  TRP132      0.0810
    119  CE3       25.3500   10.3450   56.9520 C.ar  132  TRP132      0.0012
    120  CZ2       26.9060    9.5470   59.1810 C.ar  132  TRP132      0.0191
    121  CZ3       24.7710    9.7620   58.0700 C.ar  132  TRP132      0.0001
    122  CH2       25.5500    9.3690   59.1680 C.ar  132  TRP132      0.0015
    123  N         22.1740    9.9450   51.7370 N.3   136  VAL136     -0.1245
    124  CA        21.0250   10.8450   51.6750 C.3   136  VAL136      0.1561
    125  C         20.2840   10.6690   50.3560 C.2   136  VAL136      0.2260
    126  O         19.0470   10.6660   50.3140 O.2   136  VAL136     -0.2867
    127  CB        21.4760   12.3020   51.8830 C.3   136  VAL136      0.0252
    128  CG1       20.3240   13.2590   51.6280 C.3   136  VAL136      0.0019
    129  CG2       22.0240   12.4890   53.2880 C.3   136  VAL136      0.0019
@<TRIPOS>BOND
     1   126   125    2
     2   125   124    1
     3   128   127    1
     4   124   123    1
     5   124   127    1
     6   127   129    1
     7   104   103    2
     8   103   102    1
     9   107   105    1
    10   111   112    2
    11   111   110    1
    12   109   110    1
    13   105   102    1
    14   105   106    1
    15   102   101    1
    16    93    94    1
    17   110   113    1
    18   101    95   am
    19    95    96    2
    20    95    94    1
    21    51    49   ar
    22    51    53   ar
    23    84    85    2
    24    84    83    1
    25   108   106    1
    26    94    97    1
    27    49    48   ar
    28    54    53    1
    29   113   114    1
    30    69    68    1
    31    53    52   ar
    32    82    83    1
    33    83    86    1
    34    48    47    1
    35    48    50   ar
    36    97    98    1
    37    97    99    1
    38   114   115   ar
    39   114   116   ar
    40    47    44    1
    41    52    50   ar
    42    86    87    1
    43    98   100    1
    44    64    67    1
    45    64    63    1
    46    64    65    1
    47    68    67    1
    48    68    70    1
    49   115   117   ar
    50    66    65    2
    51    44    45    1
    52    44    43    1
    53   116   119   ar
    54   116   118   ar
    55   119   121   ar
    56    46    45    2
    57    65    71   am
    58    45    55   am
    59    87    88   ar
    60    87    89   ar
    61   117   118   ar
    62   118   120   ar
    63   121   122   ar
    64    88    90   ar
    65    89    91   ar
    66    71    72    1
    67    55    56    1
    68    74    73    2
    69    73    72    1
    70    26    25    1
    71   122   120   ar
    72    72    75    1
    73     8    10   ar
    74     8     6   ar
    75    56    57    1
    76    56    59    1
    77    90    92   ar
    78    91    92   ar
    79    62    60    1
    80     5     6    1
    81     5     2    1
    82    58    57    2
    83    25    22    1
    84    10    11   ar
    85     3     4    2
    86     3     2    1
    87     6     7   ar
    88    77    79   ar
    89    77    76   ar
    90    60    59    1
    91    60    61    1
    92    79    81   ar
    93     2     1    1
    94    75    76    1
    95    76    78   ar
    96    11    12    1
    97    11     9   ar
    98    22    23    1
    99    22    21    1
   100    23    24    2
   101     7     9   ar
   102    81    80   ar
   103    21    15   am
   104    78    80   ar
   105    41    40    1
   106    13    14    1
   107    15    16    2
   108    15    14    1
   109    33    31    1
   110    20    19    1
   111    14    17    1
   112    31    32    1
   113    31    28    1
   114    34    32    1
   115    17    18    1
   116    29    30    2
   117    29    28    1
   118    39    40    1
   119    39    36    1
   120    40    42    1
   121    28    27    1
   122    18    19    1
   123    37    36    1
   124    37    38    2
   125    36    35    1
