@<TRIPOS>MOLECULE
tmp/6a94A02.pdb
 71 65 0 0 0
SMALL
GASTEIGER

@<TRIPOS>ATOM
      1  N         47.2190   -9.5800   50.4810 N.3   193  LEU193     -0.1231
      2  CA        48.1610   -9.6330   51.5940 C.3   193  LEU193      0.1693
      3  C         49.0610  -10.8630   51.4930 C.2   193  LEU193      0.2591
      4  O         50.2560  -10.7990   51.8260 O.2   193  LEU193     -0.2718
      5  CB        47.4070   -9.6040   52.9190 C.3   193  LEU193      0.0284
      6  CG        46.6640   -8.2980   53.2200 C.3   193  LEU193      0.0019
      7  CD1       45.9460   -8.3860   54.5570 C.3   193  LEU193      0.0001
      8  CD2       47.6080   -7.1030   53.2050 C.3   193  LEU193      0.0001
      9  N         48.5120  -11.9950   51.0370 N.am  194  GLN194     -0.1979
     10  CA        49.3610  -13.1600   50.8080 C.3   194  GLN194      0.1601
     11  C         50.4330  -12.8560   49.7660 C.2   194  GLN194      0.2287
     12  O         51.6110  -13.2010   49.9480 O.2   194  GLN194     -0.2864
     13  CB        48.5120  -14.3550   50.3780 C.3   194  GLN194      0.0394
     14  CG        47.6380  -14.9130   51.4900 C.3   194  GLN194      0.0908
     15  CD        46.7490  -16.0520   51.0240 C.2   194  GLN194      0.2608
     16  OE1       46.6490  -16.3270   49.8270 O.2   194  GLN194     -0.2717
     17  NE2       46.0970  -16.7230   51.9740 N.am  194  GLN194     -0.0878
     18  N         53.2110  -10.8540   51.3540 N.3   197  ALA197     -0.1231
     19  CA        54.1440  -11.6550   52.1470 C.3   197  ALA197      0.1694
     20  C         55.0670  -12.4860   51.2580 C.2   197  ALA197      0.2591
     21  O         56.2540  -12.6730   51.5710 O.2   197  ALA197     -0.2718
     22  CB        53.3780  -12.5540   53.1130 C.3   197  ALA197      0.0304
     23  N         54.5350  -13.0030   50.1480 N.am  198  ALA198     -0.1980
     24  CA        55.3600  -13.7790   49.2260 C.3   198  ALA198      0.1597
     25  C         56.4670  -12.9230   48.6280 C.2   198  ALA198      0.2287
     26  O         57.6370  -13.3320   48.5780 O.2   198  ALA198     -0.2864
     27  CB        54.4860  -14.3750   48.1200 C.3   198  ALA198      0.0319
     28  N         57.7360  -10.2450   49.8970 N.3   200  LEU200     -0.1231
     29  CA        58.6980   -9.9370   50.9490 C.3   200  LEU200      0.1693
     30  C         59.6860  -11.0800   51.1470 C.2   200  LEU200      0.2591
     31  O         60.8990  -10.8500   51.2590 O.2   200  LEU200     -0.2718
     32  CB        57.9700   -9.6360   52.2550 C.3   200  LEU200      0.0284
     33  CG        58.8850   -9.2820   53.4240 C.3   200  LEU200      0.0019
     34  CD1       59.6160   -7.9770   53.1590 C.3   200  LEU200      0.0001
     35  CD2       58.0820   -9.1940   54.6970 C.3   200  LEU200      0.0001
     36  N         59.1910  -12.3190   51.1890 N.am  201  GLU201     -0.1979
     37  CA        60.0970  -13.4580   51.3140 C.3   201  GLU201      0.1602
     38  C         61.0770  -13.4960   50.1500 C.2   201  GLU201      0.2287
     39  O         62.2650  -13.7960   50.3330 O.2   201  GLU201     -0.2864
     40  CB        59.3030  -14.7650   51.3990 C.3   201  GLU201      0.0415
     41  CG        60.1650  -16.0310   51.4380 C.3   201  GLU201      0.1163
     42  CD        59.4060  -17.2700   51.9120 C.2   201  GLU201      0.3649
     43  OE1       58.7150  -17.2020   52.9510 O.co2 201  GLU201     -0.2457
     44  OE2       59.5030  -18.3190   51.2410 O.co2 201  GLU201     -0.2457
     45  N         57.5500   -7.6080   57.6110 N.3   283  GLY283     -0.1225
     46  CA        56.6000   -8.6890   57.8090 C.3   283  GLY283      0.1811
     47  C         55.6320   -8.4150   58.9420 C.2   283  GLY283      0.2280
     48  O         54.4530   -8.7840   58.8660 O.2   283  GLY283     -0.2866
     49  N         52.9300   -6.2050   57.5120 N.3   286  ILE286     -0.1231
     50  CA        51.9650   -6.9910   56.7460 C.3   286  ILE286      0.1692
     51  C         51.0200   -7.7300   57.6860 C.2   286  ILE286      0.2592
     52  O         49.8070   -7.8020   57.4450 O.2   286  ILE286     -0.2718
     53  CB        52.6930   -7.9620   55.8020 C.3   286  ILE286      0.0266
     54  CG1       53.5750   -7.1920   54.8170 C.3   286  ILE286      0.0019
     55  CG2       51.6880   -8.8440   55.0740 C.3   286  ILE286      0.0020
     56  CD1       54.3700   -8.0910   53.8930 C.3   286  ILE286      0.0001
     57  N         51.5550   -8.2750   58.7840 N.am  287  SER287     -0.1952
     58  CA        50.7080   -8.9840   59.7400 C.3   287  SER287      0.1924
     59  C         49.7240   -8.0400   60.4190 C.2   287  SER287      0.2314
     60  O         48.5790   -8.4180   60.6890 O.2   287  SER287     -0.2863
     61  CB        51.5700   -9.6890   60.7800 C.3   287  SER287      0.2116
     62  OG        52.3410  -10.7050   60.1680 O.3   287  SER287     -0.2180
     63  N         46.9400   -7.6230   58.1650 N.3   290  GLN290     -0.1245
     64  CA        46.0790   -8.8010   58.2290 C.3   290  GLN290      0.1566
     65  C         45.1660   -8.7580   59.4490 C.2   290  GLN290      0.2260
     66  O         43.9800   -9.1080   59.3620 O.2   290  GLN290     -0.2867
     67  CB        46.9170  -10.0750   58.2470 C.3   290  GLN290      0.0367
     68  CG        46.0750  -11.3320   58.1080 C.3   290  GLN290      0.0905
     69  CD        46.9030  -12.6010   58.1270 C.2   290  GLN290      0.2608
     70  OE1       48.1300  -12.5530   58.1740 O.2   290  GLN290     -0.2717
     71  NE2       46.2330  -13.7460   58.0810 N.am  290  GLN290     -0.0878
@<TRIPOS>BOND
     1    27    24    1
     2    26    25    2
     3    25    24    1
     4    24    23    1
     5    11    12    2
     6    11    10    1
     7    16    15    2
     8    28    29    1
     9    23    20   am
    10    38    39    2
    11    38    37    1
    12    13    10    1
    13    13    14    1
    14     1     2    1
    15    10     9    1
    16    29    30    1
    17    29    32    1
    18    15    14    1
    19    15    17   am
    20     9     3   am
    21    30    36   am
    22    30    31    2
    23    36    37    1
    24    44    42   ar
    25    20    21    2
    26    20    19    1
    27    37    40    1
    28    18    19    1
    29    40    41    1
    30    41    42    1
    31     3     2    1
    32     3     4    2
    33     2     5    1
    34    42    43   ar
    35    19    22    1
    36    32    33    1
    37     5     6    1
    38    34    33    1
    39     8     6    1
    40     6     7    1
    41    33    35    1
    42    56    54    1
    43    54    53    1
    44    55    53    1
    45    53    50    1
    46    50    49    1
    47    50    51    1
    48    52    51    2
    49    45    46    1
    50    51    57   am
    51    46    47    1
    52    71    69   am
    53    68    69    1
    54    68    67    1
    55    69    70    2
    56    63    64    1
    57    64    67    1
    58    64    65    1
    59    57    58    1
    60    48    47    2
    61    66    65    2
    62    58    59    1
    63    58    61    1
    64    62    61    1
    65    59    60    2
