@<TRIPOS>MOLECULE
tmp/6a94A00.pdb
 193 189 0 0 0
SMALL
GASTEIGER

@<TRIPOS>ATOM
      1  N         10.8600    9.6700   60.5990 N.3    83  TRP83      -0.1227
      2  CA        11.4640    8.6400   61.4380 C.3    83  TRP83       0.1737
      3  C         12.0320    7.5060   60.5930 C.2    83  TRP83       0.2595
      4  O         13.1910    7.0990   60.7640 O.2    83  TRP83      -0.2718
      5  CB        10.4180    8.1170   62.4210 C.3    83  TRP83       0.0564
      6  CG        10.8940    7.0300   63.3240 C.ar   83  TRP83       0.0003
      7  CD1       11.7970    7.1420   64.3390 C.ar   83  TRP83       0.0946
      8  CD2       10.4770    5.6580   63.3040 C.ar   83  TRP83       0.0152
      9  NE1       11.9720    5.9230   64.9520 N.ar   83  TRP83      -0.2442
     10  CE2       11.1730    4.9960   64.3350 C.ar   83  TRP83       0.0810
     11  CE3        9.5850    4.9260   62.5130 C.ar   83  TRP83       0.0012
     12  CZ2       11.0060    3.6340   64.5950 C.ar   83  TRP83       0.0191
     13  CZ3        9.4190    3.5740   62.7730 C.ar   83  TRP83       0.0001
     14  CH2       10.1280    2.9420   63.8050 C.ar   83  TRP83       0.0015
     15  N         11.2250    6.9880   59.6640 N.am   84  ILE84      -0.1980
     16  CA        11.7030    5.9310   58.7750 C.3    84  ILE84       0.1595
     17  C         12.8880    6.4210   57.9510 C.2    84  ILE84       0.2287
     18  O         13.8570    5.6830   57.7310 O.2    84  ILE84      -0.2864
     19  CB        10.5560    5.4230   57.8810 C.3    84  ILE84       0.0276
     20  CG1        9.4570    4.7870   58.7360 C.3    84  ILE84       0.0022
     21  CG2       11.0780    4.4250   56.8590 C.3    84  ILE84       0.0022
     22  CD1        8.3240    4.1970   57.9280 C.3    84  ILE84       0.0001
     23  N         16.0450    6.5450   60.1500 N.3    87  ASP87      -0.1225
     24  CA        16.4920    5.1790   60.4100 C.3    87  ASP87       0.1805
     25  C         17.2060    4.5920   59.1960 C.2    87  ASP87       0.2597
     26  O         18.3430    4.1030   59.2970 O.2    87  ASP87      -0.2718
     27  CB        15.2920    4.3160   60.8050 C.3    87  ASP87       0.1424
     28  CG        15.6990    3.0210   61.4770 C.2    87  ASP87       0.3668
     29  OD1       16.9150    2.7290   61.5300 O.co2  87  ASP87      -0.2456
     30  OD2       14.7990    2.2970   61.9600 O.co2  87  ASP87      -0.2456
     31  N         16.5530    4.6470   58.0310 N.am   88  VAL88      -0.1980
     32  CA        17.1310    4.0850   56.8140 C.3    88  VAL88       0.1595
     33  C         18.4250    4.8010   56.4530 C.2    88  VAL88       0.2287
     34  O         19.4010    4.1720   56.0320 O.2    88  VAL88      -0.2864
     35  CB        16.1070    4.1490   55.6640 C.3    88  VAL88       0.0276
     36  CG1       16.7820    3.8330   54.3350 C.3    88  VAL88       0.0022
     37  CG2       14.9560    3.1900   55.9270 C.3    88  VAL88       0.0022
     38  N         21.2870    3.6640   58.8320 N.3    91  SER91      -0.1202
     39  CA        21.7070    2.2920   58.5580 C.3    91  SER91       0.2020
     40  C         22.4440    2.1880   57.2240 C.2    91  SER91       0.2619
     41  O         23.4410    1.4590   57.1080 O.2    91  SER91      -0.2717
     42  CB        20.4950    1.3640   58.5840 C.3    91  SER91       0.2103
     43  OG        19.8810    1.3590   59.8630 O.3    91  SER91      -0.2182
     44  N         21.9780    2.9210   56.2090 N.am   92  THR92      -0.1952
     45  CA        22.6470    2.9120   54.9140 C.3    92  THR92       0.1897
     46  C         24.0290    3.5420   55.0110 C.2    92  THR92       0.2313
     47  O         24.9930    3.0370   54.4200 O.2    92  THR92      -0.2863
     48  CB        21.7900    3.6440   53.8770 C.3    92  THR92       0.1794
     49  OG1       20.4730    3.0810   53.8570 O.3    92  THR92      -0.2208
     50  CG2       22.3880    3.5170   52.4960 C.3    92  THR92       0.0378
     51  N         26.3150    0.8260   56.5930 N.3    95  ILE95      -0.1245
     52  CA        26.6920   -0.2930   55.7350 C.3    95  ILE95       0.1561
     53  C         27.6200    0.1750   54.6150 C.2    95  ILE95       0.2260
     54  O         28.6040   -0.5010   54.2820 O.2    95  ILE95      -0.2867
     55  CB        25.4290   -0.9960   55.2000 C.3    95  ILE95       0.0252
     56  CG1       25.7940   -2.2730   54.4460 C.3    95  ILE95       0.0019
     57  CG2       24.5960   -0.0600   54.3420 C.3    95  ILE95       0.0019
     58  CD1       26.2570   -3.3850   55.3550 C.3    95  ILE95       0.0001
     59  N          5.4510    1.9320   59.6560 N.3   160  LEU160     -0.1231
     60  CA         6.4530    1.0130   59.1320 C.3   160  LEU160      0.1693
     61  C          6.3620    1.0250   57.6140 C.2   160  LEU160      0.2591
     62  O          5.3430    1.4220   57.0420 O.2   160  LEU160     -0.2718
     63  CB         6.2640   -0.4080   59.6790 C.3   160  LEU160      0.0284
     64  CG         4.8780   -1.0480   59.5870 C.3   160  LEU160      0.0019
     65  CD1        4.7020   -1.8050   58.2840 C.3   160  LEU160      0.0001
     66  CD2        4.6530   -1.9680   60.7730 C.3   160  LEU160      0.0001
     67  N          7.4430    0.5910   56.9690 N.am  161  LEU161     -0.1980
     68  CA         7.4600    0.5210   55.5140 C.3   161  LEU161      0.1596
     69  C          6.4090   -0.4700   55.0290 C.2   161  LEU161      0.2287
     70  O          6.4610   -1.6590   55.3610 O.2   161  LEU161     -0.2864
     71  CB         8.8480    0.1150   55.0200 C.3   161  LEU161      0.0297
     72  CG         9.9320    1.1940   55.0640 C.3   161  LEU161      0.0022
     73  CD1       11.3090    0.5790   54.8980 C.3   161  LEU161      0.0001
     74  CD2        9.6850    2.2320   53.9870 C.3   161  LEU161      0.0001
     75  N          9.2580   -0.4760   47.7870 N.3   166  PHE166     -0.1227
     76  CA        10.1550    0.1710   48.7400 C.3   166  PHE166      0.1736
     77  C         10.9980   -0.8590   49.4750 C.2   166  PHE166      0.2595
     78  O         12.2240   -0.7350   49.5470 O.2   166  PHE166     -0.2718
     79  CB         9.3560    1.0100   49.7370 C.3   166  PHE166      0.0547
     80  CG         9.3230    2.4760   49.4150 C.ar  166  PHE166     -0.0202
     81  CD1       10.2220    3.0220   48.5140 C.ar  166  PHE166     -0.0042
     82  CD2        8.3970    3.3100   50.0210 C.ar  166  PHE166     -0.0042
     83  CE1       10.1920    4.3750   48.2190 C.ar  166  PHE166     -0.0003
     84  CE2        8.3650    4.6620   49.7300 C.ar  166  PHE166     -0.0003
     85  CZ         9.2640    5.1940   48.8280 C.ar  166  PHE166     -0.0000
     86  N         10.3540   -1.8930   50.0210 N.am  167  VAL167     -0.1980
     87  CA        11.0820   -2.8950   50.7940 C.3   167  VAL167      0.1595
     88  C         12.1090   -3.6030   49.9220 C.2   167  VAL167      0.2287
     89  O         13.2600   -3.7930   50.3310 O.2   167  VAL167     -0.2864
     90  CB        10.1040   -3.8930   51.4400 C.3   167  VAL167      0.0276
     91  CG1       10.8690   -5.0350   52.0940 C.3   167  VAL167      0.0022
     92  CG2        9.2250   -3.1890   52.4620 C.3   167  VAL167      0.0022
     93  N         14.9590   -1.1850   48.7750 N.3   170  GLY170     -0.1210
     94  CA        15.7740   -0.8460   49.9270 C.3   170  GLY170      0.1956
     95  C         16.6360   -2.0020   50.3840 C.2   170  GLY170      0.2612
     96  O         17.8230   -1.8240   50.6690 O.2   170  GLY170     -0.2717
     97  N         16.0620   -3.2090   50.4350 N.am  171  SER171     -0.1952
     98  CA        16.8180   -4.3770   50.8650 C.3   171  SER171      0.1924
     99  C         17.9570   -4.6800   49.9070 C.2   171  SER171      0.2314
    100  O         19.0050   -5.1880   50.3230 O.2   171  SER171     -0.2863
    101  CB        15.8860   -5.5780   50.9800 C.3   171  SER171      0.2116
    102  OG        14.8160   -5.2960   51.8620 O.3   171  SER171     -0.2180
    103  N         20.5530   -1.1650   50.0040 N.3   174  SER174     -0.1202
    104  CA        21.1680   -0.8660   51.2880 C.3   174  SER174      0.2020
    105  C         21.6550   -2.0890   52.0550 C.2   174  SER174      0.2618
    106  O         22.3400   -1.9180   53.0670 O.2   174  SER174     -0.2717
    107  CB        20.1920   -0.0740   52.1700 C.3   174  SER174      0.2103
    108  OG        19.8850    1.1810   51.5870 O.3   174  SER174     -0.2182
    109  N         21.3050   -3.3090   51.6430 N.am  175  PHE175     -0.1975
    110  CA        21.7730   -4.4700   52.3990 C.3   175  PHE175      0.1639
    111  C         22.5010   -5.5050   51.5480 C.2   175  PHE175      0.2290
    112  O         23.6370   -5.8780   51.8570 O.2   175  PHE175     -0.2864
    113  CB        20.6060   -5.1340   53.1250 C.3   175  PHE175      0.0560
    114  CG        21.0270   -6.2040   54.0920 C.ar  175  PHE175     -0.0200
    115  CD1       21.6480   -5.8750   55.2840 C.ar  175  PHE175     -0.0042
    116  CD2       20.7840   -7.5410   53.8150 C.ar  175  PHE175     -0.0042
    117  CE1       22.0280   -6.8620   56.1800 C.ar  175  PHE175     -0.0003
    118  CE2       21.1600   -8.5280   54.7060 C.ar  175  PHE175     -0.0003
    119  CZ        21.7820   -8.1870   55.8910 C.ar  175  PHE175     -0.0000
    120  N         27.5090   -7.1990   61.9490 N.3   303  PHE303     -0.1241
    121  CA        26.4440   -6.3250   61.4590 C.3   303  PHE303      0.1605
    122  C         25.5040   -7.0830   60.5280 C.2   303  PHE303      0.2264
    123  O         24.2730   -7.0320   60.6800 O.2   303  PHE303     -0.2867
    124  CB        27.0530   -5.1170   60.7530 C.3   303  PHE303      0.0534
    125  CG        26.0450   -4.1240   60.2670 C.ar  303  PHE303     -0.0203
    126  CD1       25.4960   -3.2010   61.1340 C.ar  303  PHE303     -0.0042
    127  CD2       25.6630   -4.0960   58.9380 C.ar  303  PHE303     -0.0042
    128  CE1       24.5730   -2.2780   60.6900 C.ar  303  PHE303     -0.0003
    129  CE2       24.7400   -3.1750   58.4890 C.ar  303  PHE303     -0.0003
    130  CZ        24.1940   -2.2660   59.3650 C.ar  303  PHE303     -0.0000
    131  N         21.5920   -8.1720   61.4180 N.3   307  TRP307     -0.1241
    132  CA        20.4930   -7.5890   60.6550 C.3   307  TRP307      0.1605
    133  C         19.7730   -8.5920   59.7650 C.2   307  TRP307      0.2264
    134  O         18.6700   -8.2930   59.2970 O.2   307  TRP307     -0.2867
    135  CB        20.9810   -6.4240   59.7920 C.3   307  TRP307      0.0550
    136  CG        20.9440   -5.1010   60.4900 C.ar  307  TRP307      0.0003
    137  CD1       22.0090   -4.3870   60.9560 C.ar  307  TRP307      0.0946
    138  CD2       19.7790   -4.3400   60.8150 C.ar  307  TRP307      0.0152
    139  NE1       21.5780   -3.2220   61.5420 N.ar  307  TRP307     -0.2442
    140  CE2       20.2120   -3.1710   61.4700 C.ar  307  TRP307      0.0810
    141  CE3       18.4090   -4.5310   60.6150 C.ar  307  TRP307      0.0012
    142  CZ2       19.3230   -2.1970   61.9260 C.ar  307  TRP307      0.0191
    143  CZ3       17.5260   -3.5600   61.0680 C.ar  307  TRP307      0.0001
    144  CH2       17.9880   -2.4100   61.7150 C.ar  307  TRP307      0.0015
    145  N         15.9230   -9.6950   60.3250 N.3   310  PHE310     -0.1227
    146  CA        14.9560   -8.6570   59.9820 C.3   310  PHE310      0.1736
    147  C         14.7060   -8.6110   58.4790 C.2   310  PHE310      0.2595
    148  O         13.5530   -8.5890   58.0310 O.2   310  PHE310     -0.2718
    149  CB        15.4370   -7.3000   60.5000 C.3   310  PHE310      0.0547
    150  CG        14.7160   -6.1270   59.8940 C.ar  310  PHE310     -0.0202
    151  CD1       13.4280   -5.8100   60.2840 C.ar  310  PHE310     -0.0042
    152  CD2       15.3350   -5.3310   58.9380 C.ar  310  PHE310     -0.0042
    153  CE1       12.7640   -4.7280   59.7250 C.ar  310  PHE310     -0.0003
    154  CE2       14.6760   -4.2500   58.3790 C.ar  310  PHE310     -0.0003
    155  CZ        13.3870   -3.9470   58.7750 C.ar  310  PHE310     -0.0000
    156  N         15.7770   -8.6000   57.6810 N.am  311  PHE311     -0.1976
    157  CA        15.6090   -8.5160   56.2330 C.3   311  PHE311      0.1639
    158  C         15.0060   -9.7950   55.6640 C.2   311  PHE311      0.2290
    159  O         14.2100   -9.7420   54.7190 O.2   311  PHE311     -0.2864
    160  CB        16.9440   -8.2050   55.5660 C.3   311  PHE311      0.0560
    161  CG        17.3370   -6.7620   55.6470 C.ar  311  PHE311     -0.0200
    162  CD1       18.1350   -6.3040   56.6880 C.ar  311  PHE311     -0.0042
    163  CD2       16.9100   -5.8600   54.6840 C.ar  311  PHE311     -0.0042
    164  CE1       18.5080   -4.9710   56.7680 C.ar  311  PHE311     -0.0003
    165  CE2       17.2770   -4.5210   54.7530 C.ar  311  PHE311     -0.0003
    166  CZ        18.0770   -4.0770   55.7980 C.ar  311  PHE311     -0.0000
    167  N         11.3730   -9.6120   56.4070 N.3   314  ASN314     -0.1240
    168  CA        10.7330   -8.5690   55.6110 C.3   314  ASN314      0.1653
    169  C         10.5270   -9.0230   54.1680 C.2   314  ASN314      0.2266
    170  O          9.4390   -8.8530   53.6000 O.2   314  ASN314     -0.2867
    171  CB        11.5690   -7.2910   55.6700 C.3   314  ASN314      0.1155
    172  CG        10.7200   -6.0460   55.7950 C.2   314  ASN314      0.2627
    173  OD1        9.5940   -6.0000   55.3080 O.2   314  ASN314     -0.2716
    174  ND2       11.2560   -5.0260   56.4540 N.am  314  ASN314     -0.0877
    175  N         14.1600   -5.8970   64.5960 N.3   337  VAL337     -0.1245
    176  CA        14.6460   -4.5210   64.5160 C.3   337  VAL337      0.1561
    177  C         15.5230   -4.2030   65.7210 C.2   337  VAL337      0.2260
    178  O         16.5740   -3.5560   65.6000 O.2   337  VAL337     -0.2867
    179  CB        13.4630   -3.5440   64.3950 C.3   337  VAL337      0.0252
    180  CG1       13.9470   -2.1160   64.4670 C.3   337  VAL337      0.0019
    181  CG2       12.7270   -3.7730   63.0990 C.3   337  VAL337      0.0019
    182  N         19.4160   -3.1720   66.2440 N.3   341  TYR341     -0.1241
    183  CA        19.8970   -2.0840   67.0960 C.3   341  TYR341      0.1605
    184  C         20.9820   -2.5710   68.0570 C.2   341  TYR341      0.2264
    185  O         21.9450   -1.8480   68.3460 O.2   341  TYR341     -0.2867
    186  CB        18.7300   -1.4560   67.8580 C.3   341  TYR341      0.0534
    187  CG        17.7120   -0.7670   66.9700 C.ar  341  TYR341     -0.0201
    188  CD1       18.0270   -0.4070   65.6650 C.ar  341  TYR341     -0.0009
    189  CD2       16.4390   -0.4710   67.4400 C.ar  341  TYR341     -0.0009
    190  CE1       17.0990    0.2240   64.8540 C.ar  341  TYR341      0.0417
    191  CE2       15.5070    0.1620   66.6390 C.ar  341  TYR341      0.0417
    192  CZ        15.8430    0.5080   65.3470 C.ar  341  TYR341      0.1957
    193  OH        14.9150    1.1350   64.5440 O.3   341  TYR341     -0.2866
@<TRIPOS>BOND
     1    75    76    1
     2    83    81   ar
     3    83    85   ar
     4    81    80   ar
     5    76    77    1
     6    76    79    1
     7    93    94    1
     8    85    84   ar
     9    80    79    1
    10    80    82   ar
    11    77    78    2
    12    77    86   am
    13    84    82   ar
    14    99   100    2
    15    99    98    1
    16    88    89    2
    17    88    87    1
    18    94    95    1
    19   103   104    1
    20    86    87    1
    21    95    97   am
    22    95    96    2
    23    97    98    1
    24    87    90    1
    25    98   101    1
    26   101   102    1
    27   104   105    1
    28   104   107    1
    29    90    91    1
    30    90    92    1
    31   111   112    2
    32   111   110    1
    33   108   107    1
    34   109   105   am
    35   109   110    1
    36   105   106    2
    37   110   113    1
    38    50    48    1
    39   113   114    1
    40   170   169    2
    41   116   114   ar
    42   116   118   ar
    43    49    48    1
    44    48    45    1
    45    74    72    1
    46   114   115   ar
    47   169   168    1
    48    54    53    2
    49    36    35    1
    50    57    55    1
    51    47    46    2
    52    56    55    1
    53    56    58    1
    54    53    52    1
    55   163   165   ar
    56   163   161   ar
    57   118   119   ar
    58   159   158    2
    59   165   166   ar
    60    73    72    1
    61    45    46    1
    62    45    44    1
    63    71    72    1
    64    71    68    1
    65    69    70    2
    66    69    68    1
    67    55    52    1
    68   115   117   ar
    69   173   172    2
    70    68    67    1
    71   160   161    1
    72   160   157    1
    73   168   171    1
    74   168   167    1
    75   161   162   ar
    76   158   157    1
    77    35    37    1
    78    35    32    1
    79   171   172    1
    80    52    51    1
    81   172   174   am
    82   166   164   ar
    83   119   117   ar
    84    34    33    2
    85    44    40   am
    86   157   156    1
    87    33    32    1
    88   162   164   ar
    89    32    31    1
    90    21    19    1
    91    67    61   am
    92    62    61    2
    93    41    40    2
    94    40    39    1
    95    61    60    1
    96   156   147   am
    97    18    17    2
    98    19    20    1
    99    19    16    1
   100    22    20    1
   101    17    16    1
   102    31    25   am
   103   148   147    2
   104    65    64    1
   105   154   155   ar
   106   154   152   ar
   107   147   146    1
   108   129   127   ar
   109   129   130   ar
   110    39    42    1
   111    39    38    1
   112    42    43    1
   113   155   153   ar
   114    16    15    1
   115   152   150   ar
   116   127   125   ar
   117    60    59    1
   118    60    63    1
   119    25    26    2
   120    25    24    1
   121   134   133    2
   122   130   128   ar
   123    64    63    1
   124    64    66    1
   125    15     3   am
   126   153   151   ar
   127   133   132    1
   128   135   136    1
   129   135   132    1
   130   150   151   ar
   131   150   149    1
   132   146   145    1
   133   146   149    1
   134    23    24    1
   135   125   124    1
   136   125   126   ar
   137    24    27    1
   138   136   138   ar
   139   136   137   ar
   140   122   123    2
   141   122   121    1
   142     3     4    2
   143     3     2    1
   144     1     2    1
   145   141   138   ar
   146   141   143   ar
   147   132   131    1
   148   128   126   ar
   149   124   121    1
   150    27    28    1
   151   138   140   ar
   152   137   139   ar
   153   143   144   ar
   154     2     5    1
   155   121   120    1
   156   140   139   ar
   157   140   142   ar
   158    28    29   ar
   159    28    30   ar
   160   144   142   ar
   161     5     6    1
   162    11    13   ar
   163    11     8   ar
   164    13    14   ar
   165   181   179    1
   166     8     6   ar
   167     8    10   ar
   168     6     7   ar
   169    14    12   ar
   170    10    12   ar
   171    10     9   ar
   172     7     9   ar
   173   179   180    1
   174   179   176    1
   175   176   175    1
   176   176   177    1
   177   193   192    1
   178   190   192   ar
   179   190   188   ar
   180   192   191   ar
   181   178   177    2
   182   188   187   ar
   183   182   183    1
   184   191   189   ar
   185   187   189   ar
   186   187   186    1
   187   183   186    1
   188   183   184    1
   189   184   185    2
