@<TRIPOS>MOLECULE
tmp/6a94B01.pdb
 109 104 0 0 0
SMALL
GASTEIGER

@<TRIPOS>ATOM
      1  N         23.1280   -7.8400   27.9940 N.3    14  ILE14      -0.1231
      2  CA        23.3010   -6.6410   28.8150 C.3    14  ILE14       0.1692
      3  C         24.5270   -6.7820   29.7070 C.2    14  ILE14       0.2591
      4  O         25.3500   -5.8600   29.8250 O.2    14  ILE14      -0.2718
      5  CB        22.0350   -6.3820   29.6530 C.3    14  ILE14       0.0266
      6  CG1       20.8690   -5.9830   28.7560 C.3    14  ILE14       0.0019
      7  CG2       22.2910   -5.3130   30.7110 C.3    14  ILE14       0.0020
      8  CD1       19.5580   -5.9270   29.4710 C.3    14  ILE14       0.0001
      9  N         24.6570   -7.9380   30.3610 N.am   15  ILE15      -0.1980
     10  CA        25.7700   -8.1440   31.2790 C.3    15  ILE15       0.1595
     11  C         27.0890   -8.1380   30.5210 C.2    15  ILE15       0.2287
     12  O         28.0810   -7.5580   30.9800 O.2    15  ILE15      -0.2864
     13  CB        25.5770   -9.4510   32.0650 C.3    15  ILE15       0.0276
     14  CG1       24.3550   -9.3470   32.9780 C.3    15  ILE15       0.0022
     15  CG2       26.8230   -9.7780   32.8640 C.3    15  ILE15       0.0022
     16  CD1       24.1020  -10.5900   33.8070 C.3    15  ILE15       0.0001
     17  N         27.9270   -4.4240   29.7100 N.3    18  ILE18      -0.1231
     18  CA        28.3900   -3.6640   30.8640 C.3    18  ILE18       0.1692
     19  C         29.7950   -4.1030   31.2580 C.2    18  ILE18       0.2591
     20  O         30.6900   -3.2710   31.4450 O.2    18  ILE18      -0.2718
     21  CB        27.3990   -3.8040   32.0320 C.3    18  ILE18       0.0266
     22  CG1       26.0480   -3.2060   31.6460 C.3    18  ILE18       0.0019
     23  CG2       27.9440   -3.1120   33.2710 C.3    18  ILE18       0.0020
     24  CD1       24.9780   -3.3880   32.6970 C.3    18  ILE18       0.0001
     25  N         30.0180   -5.4170   31.3610 N.am   19  ALA19      -0.1980
     26  CA        31.3110   -5.9180   31.8170 C.3    19  ALA19       0.1597
     27  C         32.4330   -5.5350   30.8560 C.2    19  ALA19       0.2287
     28  O         33.4760   -5.0170   31.2760 O.2    19  ALA19      -0.2864
     29  CB        31.2450   -7.4330   31.9960 C.3    19  ALA19       0.0319
     30  N         33.1150   -1.7470   30.9390 N.3    22  ILE22      -0.1231
     31  CA        33.7920   -1.4070   32.1870 C.3    22  ILE22       0.1692
     32  C         35.2690   -1.7630   32.0960 C.2    22  ILE22       0.2591
     33  O         36.1420   -0.9890   32.5130 O.2    22  ILE22      -0.2718
     34  CB        33.1130   -2.1190   33.3730 C.3    22  ILE22       0.0266
     35  CG1       31.7840   -1.4460   33.7180 C.3    22  ILE22       0.0019
     36  CG2       34.0370   -2.1640   34.5840 C.3    22  ILE22       0.0020
     37  CD1       31.0870   -2.0750   34.8890 C.3    22  ILE22       0.0001
     38  N         35.5700   -2.9390   31.5410 N.am   23  LEU23      -0.1980
     39  CA        36.9640   -3.3370   31.3780 C.3    23  LEU23       0.1596
     40  C         37.7140   -2.3570   30.4860 C.2    23  LEU23       0.2287
     41  O         38.8540   -1.9820   30.7830 O.2    23  LEU23      -0.2864
     42  CB        37.0400   -4.7510   30.7980 C.3    23  LEU23       0.0297
     43  CG        36.7100   -5.9000   31.7450 C.3    23  LEU23       0.0022
     44  CD1       36.8810   -7.2210   31.0210 C.3    23  LEU23       0.0001
     45  CD2       37.5810   -5.8460   33.0090 C.3    23  LEU23       0.0001
     46  N         38.4430    0.8240   32.4110 N.3    26  MET26      -0.1245
     47  CA        39.5400    0.6280   33.3570 C.3    26  MET26       0.1570
     48  C         40.8830    0.5840   32.6460 C.2    26  MET26       0.2261
     49  O         41.8570    1.1930   33.1050 O.2    26  MET26      -0.2867
     50  CB        39.3360   -0.6550   34.1550 C.3    26  MET26       0.0387
     51  CG        38.0910   -0.6680   34.9930 C.3    26  MET26       0.0595
     52  SD        37.9800   -2.2200   35.8770 S.3    26  MET26      -0.1393
     53  CE        39.5030   -2.1850   36.8270 C.3    26  MET26       0.0692
     54  N         23.0000    0.2030   30.4540 N.3    54  PHE54      -0.1241
     55  CA        22.3570    0.4890   31.7330 C.3    54  PHE54       0.1605
     56  C         20.9740    1.1120   31.5830 C.2    54  PHE54       0.2264
     57  O         20.0680    0.8020   32.3650 O.2    54  PHE54      -0.2867
     58  CB        23.2250    1.4340   32.5660 C.3    54  PHE54       0.0534
     59  CG        24.1400    0.7380   33.5310 C.ar   54  PHE54      -0.0203
     60  CD1       23.6470    0.2200   34.7180 C.ar   54  PHE54      -0.0042
     61  CD2       25.4990    0.6300   33.2690 C.ar   54  PHE54      -0.0042
     62  CE1       24.4880   -0.4100   35.6160 C.ar   54  PHE54      -0.0003
     63  CE2       26.3460    0.0000   34.1640 C.ar   54  PHE54      -0.0003
     64  CZ        25.8400   -0.5200   35.3410 C.ar   54  PHE54      -0.0000
     65  N         17.9890   -2.7240   29.2640 N.3    58  PRO58      -0.2116
     66  CA        17.0520   -3.3540   30.2110 C.3    58  PRO58       0.1372
     67  C         15.6220   -2.8720   30.0460 C.2    58  PRO58       0.2244
     68  O         14.6890   -3.6640   30.2270 O.2    58  PRO58      -0.2868
     69  CB        17.6340   -2.9820   31.5840 C.3    58  PRO58       0.0268
     70  CG        18.4550   -1.7760   31.3370 C.3    58  PRO58       0.0207
     71  CD        19.0400   -1.9680   29.9720 C.3    58  PRO58       0.0892
     72  N         42.7100   -7.7030   34.9510 N.3   352  TYR352     -0.1227
     73  CA        41.5710   -7.1520   35.6780 C.3   352  TYR352      0.1736
     74  C         40.5910   -8.2450   36.0910 C.2   352  TYR352      0.2595
     75  O         40.0170   -8.1910   37.1870 O.2   352  TYR352     -0.2718
     76  CB        40.8600   -6.1000   34.8260 C.3   352  TYR352      0.0548
     77  CG        41.6890   -4.8800   34.4990 C.ar  352  TYR352     -0.0200
     78  CD1       42.7760   -4.5170   35.2840 C.ar  352  TYR352     -0.0009
     79  CD2       41.3790   -4.0860   33.4030 C.ar  352  TYR352     -0.0009
     80  CE1       43.5320   -3.3960   34.9830 C.ar  352  TYR352      0.0417
     81  CE2       42.1250   -2.9680   33.0950 C.ar  352  TYR352      0.0417
     82  CZ        43.2010   -2.6240   33.8850 C.ar  352  TYR352      0.1957
     83  OH        43.9450   -1.5060   33.5710 O.3   352  TYR352     -0.2866
     84  N         40.3830   -9.2400   35.2260 N.am  353  ILE353     -0.1980
     85  CA        39.4500  -10.3190   35.5410 C.3   353  ILE353      0.1595
     86  C         39.8900  -11.0530   36.8000 C.2   353  ILE353      0.2287
     87  O         39.0640  -11.4290   37.6410 O.2   353  ILE353     -0.2864
     88  CB        39.3180  -11.2760   34.3420 C.3   353  ILE353      0.0276
     89  CG1       38.6180  -10.5800   33.1730 C.3   353  ILE353      0.0022
     90  CG2       38.5650  -12.5330   34.7380 C.3   353  ILE353      0.0022
     91  CD1       38.5930  -11.4040   31.9000 C.3   353  ILE353      0.0001
     92  N         41.7180   -9.7180   39.1550 N.3   355  CYS355     -0.1235
     93  CA        41.9450   -8.7300   40.2130 C.3   355  CYS355      0.1677
     94  C         43.4230   -8.6460   40.5890 C.2   355  CYS355      0.2270
     95  O         43.7840   -8.5860   41.7640 O.2   355  CYS355     -0.2867
     96  CB        41.0830   -9.0160   41.4430 C.3   355  CYS355      0.0956
     97  SG        39.3170   -8.9890   41.1140 S.3   355  CYS355     -0.0801
     98  N         46.2480   -6.1510   40.1070 N.3   357  TYR357     -0.1241
     99  CA        46.4560   -4.7700   39.7090 C.3   357  TYR357      0.1605
    100  C         47.8810   -4.2840   39.9180 C.2   357  TYR357      0.2264
    101  O         48.1900   -3.1490   39.5400 O.2   357  TYR357     -0.2867
    102  CB        45.4950   -3.8590   40.4800 C.3   357  TYR357      0.0534
    103  CG        44.0720   -4.3690   40.5110 C.ar  357  TYR357     -0.0201
    104  CD1       43.2480   -4.2740   39.3960 C.ar  357  TYR357     -0.0009
    105  CD2       43.5510   -4.9450   41.6620 C.ar  357  TYR357     -0.0009
    106  CE1       41.9420   -4.7420   39.4290 C.ar  357  TYR357      0.0417
    107  CE2       42.2510   -5.4140   41.7060 C.ar  357  TYR357      0.0417
    108  CZ        41.4520   -5.3100   40.5900 C.ar  357  TYR357      0.1957
    109  OH        40.1620   -5.7830   40.6440 O.3   357  TYR357     -0.2866
@<TRIPOS>BOND
     1     1     2    1
     2     6     8    1
     3     6     5    1
     4     2     5    1
     5     2     3    1
     6    65    71    1
     7    65    66    1
     8     5     7    1
     9     3     4    2
    10     3     9   am
    11    17    18    1
    12    71    70    1
    13    67    66    1
    14    67    68    2
    15    66    69    1
    16     9    10    1
    17    54    55    1
    18    40    41    2
    19    40    39    1
    20    11    12    2
    21    11    10    1
    22    42    39    1
    23    42    43    1
    24    27    28    2
    25    27    26    1
    26    18    19    1
    27    18    21    1
    28    30    31    1
    29    44    43    1
    30    19    25   am
    31    19    20    2
    32    10    13    1
    33    70    69    1
    34    25    26    1
    35    39    38    1
    36    38    32   am
    37    56    55    1
    38    56    57    2
    39    22    21    1
    40    22    24    1
    41    55    58    1
    42    43    45    1
    43    26    29    1
    44    91    89    1
    45    21    23    1
    46    13    15    1
    47    13    14    1
    48    32    31    1
    49    32    33    2
    50    31    34    1
    51    46    47    1
    52    58    59    1
    53    48    49    2
    54    48    47    1
    55    14    16    1
    56    81    79   ar
    57    81    82   ar
    58    89    88    1
    59    61    59   ar
    60    61    63   ar
    61    47    50    1
    62    34    35    1
    63    34    36    1
    64    79    77   ar
    65    59    60   ar
    66    83    82    1
    67    35    37    1
    68    82    80   ar
    69    50    51    1
    70    63    64   ar
    71    88    90    1
    72    88    85    1
    73    77    76    1
    74    77    78   ar
    75    60    62   ar
    76    76    73    1
    77    72    73    1
    78    80    78   ar
    79    51    52    1
    80    84    85    1
    81    84    74   am
    82    64    62   ar
    83    85    86    1
    84    73    74    1
    85    52    53    1
    86    74    75    2
    87    86    87    2
    88    92    93    1
    89   104   106   ar
    90   104   103   ar
    91   106   108   ar
    92   101   100    2
    93    99   100    1
    94    99    98    1
    95    99   102    1
    96    93    94    1
    97    93    96    1
    98   102   103    1
    99   103   105   ar
   100    94    95    2
   101   108   109    1
   102   108   107   ar
   103    97    96    1
   104   105   107   ar
