@<TRIPOS>MOLECULE
tmp/6a94A03.pdb
 90 84 0 0 0
SMALL
GASTEIGER

@<TRIPOS>ATOM
      1  N         36.7620   -1.3030   50.3830 N.3   103  LEU103     -0.1245
      2  CA        37.3030   -0.9300   49.0770 C.3   103  LEU103      0.1561
      3  C         38.5290   -0.0410   49.2150 C.2   103  LEU103      0.2260
      4  O         39.5230   -0.2270   48.5030 O.2   103  LEU103     -0.2867
      5  CB        36.2390   -0.2180   48.2440 C.3   103  LEU103      0.0270
      6  CG        35.1040   -1.0740   47.6960 C.3   103  LEU103      0.0019
      7  CD1       34.0340   -0.1960   47.0870 C.3   103  LEU103      0.0001
      8  CD2       35.6510   -2.0390   46.6680 C.3   103  LEU103      0.0001
      9  N         41.5980   -1.9510   50.4310 N.3   106  TYR106     -0.1227
     10  CA        42.0670   -2.8410   49.3720 C.3   106  TYR106      0.1736
     11  C         42.8340   -2.0600   48.3090 C.2   106  TYR106      0.2595
     12  O         43.9980   -2.3680   48.0040 O.2   106  TYR106     -0.2718
     13  CB        40.8730   -3.5840   48.7630 C.3   106  TYR106      0.0548
     14  CG        41.2220   -4.5170   47.6330 C.ar  106  TYR106     -0.0200
     15  CD1       41.9040   -5.7020   47.8770 C.ar  106  TYR106     -0.0009
     16  CD2       40.8600   -4.2210   46.3180 C.ar  106  TYR106     -0.0009
     17  CE1       42.2270   -6.5680   46.8470 C.ar  106  TYR106      0.0417
     18  CE2       41.1790   -5.0840   45.2750 C.ar  106  TYR106      0.0417
     19  CZ        41.8620   -6.2570   45.5510 C.ar  106  TYR106      0.1957
     20  OH        42.1920   -7.1260   44.5360 O.3   106  TYR106     -0.2866
     21  N         42.2060   -1.0170   47.7560 N.am  107  VAL107     -0.1980
     22  CA        42.8720   -0.2130   46.7370 C.3   107  VAL107      0.1595
     23  C         44.1510    0.3910   47.2960 C.2   107  VAL107      0.2287
     24  O         45.1560    0.5170   46.5820 O.2   107  VAL107     -0.2864
     25  CB        41.9120    0.8690   46.2010 C.3   107  VAL107      0.0276
     26  CG1       42.6310    1.7970   45.2400 C.3   107  VAL107      0.0022
     27  CG2       40.7290    0.2310   45.5160 C.3   107  VAL107      0.0022
     28  N         46.9230   -2.0740   47.3050 N.3   110  GLN110     -0.1231
     29  CA        47.3460   -2.3240   45.9200 C.3   110  GLN110      0.1698
     30  C         48.4130   -1.3030   45.4070 C.2   110  GLN110      0.2592
     31  O         48.7430   -1.3280   44.2120 O.2   110  GLN110     -0.2718
     32  CB        46.1280   -2.2920   44.9940 C.3   110  GLN110      0.0381
     33  CG        46.0580   -3.4420   44.0090 C.3   110  GLN110      0.0905
     34  CD        45.6480   -4.7540   44.6650 C.2   110  GLN110      0.2608
     35  OE1       45.0860   -4.7710   45.7710 O.2   110  GLN110     -0.2717
     36  NE2       45.9240   -5.8660   43.9820 N.am  110  GLN110     -0.0878
     37  N         48.9740   -0.4510   46.2660 N.am  111  ASN111     -0.1974
     38  CA        49.8650    0.6400   45.8780 C.3   111  ASN111      0.1688
     39  C         51.2700    0.3820   46.4060 C.2   111  ASN111      0.2292
     40  O         51.4390    0.2440   47.6270 O.2   111  ASN111     -0.2864
     41  CB        49.3140    1.9600   46.4180 C.3   111  ASN111      0.1181
     42  CG        50.1350    3.1620   46.0040 C.2   111  ASN111      0.2629
     43  OD1       51.0230    3.0660   45.1660 O.2   111  ASN111     -0.2716
     44  ND2       49.8360    4.3130   46.6010 N.am  111  ASN111     -0.0877
     45  N         23.5270   -5.6480   48.1580 N.3   177  ILE177     -0.1245
     46  CA        24.6400   -5.2390   47.2990 C.3   177  ILE177      0.1561
     47  C         25.8990   -4.9190   48.1010 C.2   177  ILE177      0.2260
     48  O         26.9680   -5.4660   47.7720 O.2   177  ILE177     -0.2867
     49  CB        24.2050   -4.0800   46.3890 C.3   177  ILE177      0.0252
     50  CG1       23.0840   -4.5310   45.4530 C.3   177  ILE177      0.0019
     51  CG2       25.3820   -3.5620   45.5880 C.3   177  ILE177      0.0019
     52  CD1       22.5930   -3.4430   44.5370 C.3   177  ILE177      0.0001
     53  N         27.4860   -8.2180   49.3740 N.3   180  THR180     -0.1203
     54  CA        28.2220   -8.9690   48.3590 C.3   180  THR180      0.1994
     55  C         29.5590   -8.3040   48.0480 C.2   180  THR180      0.2617
     56  O         30.6000   -8.9780   47.9660 O.2   180  THR180     -0.2717
     57  CB        27.3740   -9.0950   47.0910 C.3   180  THR180      0.1784
     58  OG1       26.1280   -9.7290   47.4100 O.3   180  THR180     -0.2211
     59  CG2       28.0940   -9.9240   46.0400 C.3   180  THR180      0.0376
     60  N         29.5500   -6.9760   47.8990 N.am  181  ILE181     -0.1979
     61  CA        30.7820   -6.2540   47.6030 C.3   181  ILE181      0.1595
     62  C         31.7960   -6.4530   48.7200 C.2   181  ILE181      0.2287
     63  O         32.9910   -6.6590   48.4660 O.2   181  ILE181     -0.2864
     64  CB        30.4800   -4.7620   47.3680 C.3   181  ILE181      0.0276
     65  CG1       29.5530   -4.5880   46.1630 C.3   181  ILE181      0.0022
     66  CG2       31.7660   -3.9770   47.1580 C.3   181  ILE181      0.0022
     67  CD1       29.2640   -3.1470   45.8300 C.3   181  ILE181      0.0001
     68  N         33.3330  -10.0520   48.5920 N.3   184  ILE184     -0.1231
     69  CA        34.2970  -10.1680   47.5020 C.3   184  ILE184      0.1692
     70  C         35.5830   -9.4210   47.8490 C.2   184  ILE184      0.2592
     71  O         36.6910   -9.9630   47.7150 O.2   184  ILE184     -0.2718
     72  CB        33.6770   -9.6610   46.1880 C.3   184  ILE184      0.0266
     73  CG1       32.4460  -10.4930   45.8250 C.3   184  ILE184      0.0019
     74  CG2       34.6910   -9.7240   45.0580 C.3   184  ILE184      0.0020
     75  CD1       31.8020  -10.0970   44.5040 C.3   184  ILE184      0.0001
     76  N         35.4500   -8.1740   48.3260 N.am  185  THR185     -0.1953
     77  CA        36.6180   -7.3550   48.6440 C.3   185  THR185      0.1897
     78  C         37.4360   -7.9730   49.7710 C.2   185  THR185      0.2313
     79  O         38.6660   -7.8930   49.7650 O.2   185  THR185     -0.2863
     80  CB        36.1840   -5.9300   49.0080 C.3   185  THR185      0.1794
     81  OG1       35.3720   -5.3880   47.9620 O.3   185  THR185     -0.2208
     82  CG2       37.3870   -5.0240   49.1660 C.3   185  THR185      0.0378
     83  N         39.4610  -10.8140   48.2030 N.3   188  LEU188     -0.1245
     84  CA        40.5160  -10.2150   47.3950 C.3   188  LEU188      0.1561
     85  C         41.6090   -9.6080   48.2680 C.2   188  LEU188      0.2260
     86  O         42.7940   -9.6470   47.9020 O.2   188  LEU188     -0.2867
     87  CB        39.9270   -9.1640   46.4610 C.3   188  LEU188      0.0270
     88  CG        38.9710   -9.6930   45.3970 C.3   188  LEU188      0.0019
     89  CD1       38.5390   -8.5630   44.4870 C.3   188  LEU188      0.0001
     90  CD2       39.6090  -10.8060   44.5970 C.3   188  LEU188      0.0001
@<TRIPOS>BOND
     1    36    34   am
     2    33    34    1
     3    33    32    1
     4    31    30    2
     5    89    88    1
     6    75    73    1
     7    20    19    1
     8    52    50    1
     9    90    88    1
    10    34    35    2
    11    32    29    1
    12    74    72    1
    13    43    42    2
    14    26    25    1
    15    18    19   ar
    16    18    16   ar
    17    88    87    1
    18    30    29    1
    19    30    37   am
    20    50    49    1
    21    27    25    1
    22    19    17   ar
    23    51    49    1
    24    73    72    1
    25    67    65    1
    26    38    37    1
    27    38    39    1
    28    38    41    1
    29    29    28    1
    30    42    41    1
    31    42    44   am
    32    59    57    1
    33    65    64    1
    34    72    69    1
    35    25    22    1
    36    16    14   ar
    37    49    46    1
    38    39    40    2
    39    87    84    1
    40    24    23    2
    41     8     6    1
    42    22    23    1
    43    22    21    1
    44    17    15   ar
    45     7     6    1
    46    57    58    1
    47    57    54    1
    48    66    64    1
    49    46    47    1
    50    46    45    1
    51    64    61    1
    52    84    83    1
    53    84    85    1
    54    69    70    1
    55    69    68    1
    56    61    60    1
    57    61    62    1
    58    14    15   ar
    59    14    13    1
    60     6     5    1
    61    71    70    2
    62    21    11   am
    63    48    47    2
    64    70    76   am
    65    60    55   am
    66    86    85    2
    67    81    80    1
    68    56    55    2
    69    12    11    2
    70    55    54    1
    71     5     2    1
    72    11    10    1
    73    76    77    1
    74    54    53    1
    75    63    62    2
    76     4     3    2
    77    77    80    1
    78    77    78    1
    79    13    10    1
    80    80    82    1
    81     2     3    1
    82     2     1    1
    83    10     9    1
    84    79    78    2
