@<TRIPOS>MOLECULE
tmp/6a98A00.pdb
 177 172 0 0 0
SMALL
GASTEIGER

@<TRIPOS>ATOM
      1  N         -4.5380   -7.1550  -28.5820 N.3    22  TYR22      -0.1227
      2  CA        -4.6470   -5.7790  -29.0530 C.3    22  TYR22       0.1736
      3  C         -3.2890   -5.1040  -29.3130 C.2    22  TYR22       0.2595
      4  O         -3.2970   -3.9060  -29.5970 O.2    22  TYR22      -0.2718
      5  CB        -5.4550   -4.9290  -28.0700 C.3    22  TYR22       0.0548
      6  CG        -4.8580   -4.7120  -26.7020 C.ar   22  TYR22      -0.0200
      7  CD1       -4.0260   -3.6330  -26.4450 C.ar   22  TYR22      -0.0009
      8  CD2       -5.2140   -5.5180  -25.6350 C.ar   22  TYR22      -0.0009
      9  CE1       -3.5290   -3.3850  -25.1750 C.ar   22  TYR22       0.0417
     10  CE2       -4.7180   -5.2920  -24.3650 C.ar   22  TYR22       0.0417
     11  CZ        -3.8650   -4.2260  -24.1230 C.ar   22  TYR22       0.1957
     12  OH        -3.3660   -4.0270  -22.8540 O.3    22  TYR22      -0.2866
     13  N         -2.1700   -5.8390  -29.2530 N.am   23  TYR23      -0.1976
     14  CA        -0.8680   -5.2610  -29.6660 C.3    23  TYR23       0.1639
     15  C          0.1720   -6.3380  -30.0230 C.2    23  TYR23       0.2290
     16  O          0.1050   -7.5260  -29.6210 O.2    23  TYR23      -0.2864
     17  CB        -0.2880   -4.3490  -28.5770 C.3    23  TYR23       0.0560
     18  CG         0.2020   -5.1040  -27.3680 C.ar   23  TYR23      -0.0198
     19  CD1        1.4750   -5.6410  -27.3220 C.ar   23  TYR23      -0.0009
     20  CD2       -0.6430   -5.3650  -26.3010 C.ar   23  TYR23      -0.0009
     21  CE1        1.9160   -6.3660  -26.2280 C.ar   23  TYR23       0.0417
     22  CE2       -0.2190   -6.0870  -25.1970 C.ar   23  TYR23       0.0417
     23  CZ         1.0730   -6.5860  -25.1550 C.ar   23  TYR23       0.1957
     24  OH         1.5190   -7.2960  -24.0780 O.3    23  TYR23      -0.2866
     25  N          7.0610   -5.3320  -23.3670 N.3    46  ARG46      -0.1231
     26  CA         6.0810   -4.2710  -23.5540 C.3    46  ARG46       0.1694
     27  C          6.5590   -3.0060  -22.8120 C.2    46  ARG46       0.2591
     28  O          6.0970   -1.9250  -23.1750 O.2    46  ARG46      -0.2718
     29  CB         4.6740   -4.7820  -23.1960 C.3    46  ARG46       0.0321
     30  CG         3.5550   -3.7570  -23.2980 C.3    46  ARG46       0.0489
     31  CD         3.1060   -3.2910  -24.6910 C.3    46  ARG46       0.2205
     32  NE         1.7750   -2.6960  -24.5280 N.pl3  46  ARG46      -0.0865
     33  CZ         1.0860   -1.9620  -25.4020 C.cat  46  ARG46       0.5346
     34  NH1       -0.0480   -1.4130  -25.0010 N.pl3  46  ARG46       0.1354
     35  NH2        1.4900   -1.7810  -26.6490 N.pl3  46  ARG46       0.1354
     36  N          7.4840   -3.1390  -21.8430 N.am   47  ILE47      -0.1980
     37  CA         8.0780   -2.0130  -21.0980 C.3    47  ILE47       0.1595
     38  C          9.5140   -1.6600  -21.5530 C.2    47  ILE47       0.2287
     39  O         10.0780   -0.6590  -21.1170 O.2    47  ILE47      -0.2864
     40  CB         7.9990   -2.2750  -19.5740 C.3    47  ILE47       0.0276
     41  CG1        9.0210   -3.2970  -19.0700 C.3    47  ILE47       0.0022
     42  CG2        6.5800   -2.6530  -19.1660 C.3    47  ILE47       0.0022
     43  CD1       10.2760   -2.6730  -18.5020 C.3    47  ILE47       0.0001
     44  N         10.5270   -0.1520  -27.7920 N.3    50  ASN50      -0.1240
     45  CA         9.9170   -1.0510  -28.7380 C.3    50  ASN50       0.1653
     46  C          9.1330   -0.2690  -29.8060 C.2    50  ASN50       0.2266
     47  O          9.0140    0.9600  -29.8420 O.2    50  ASN50      -0.2867
     48  CB         9.0480   -2.0900  -28.0170 C.3    50  ASN50       0.1155
     49  CG         7.9600   -1.4660  -27.1680 C.2    50  ASN50       0.2627
     50  OD1        7.4730   -0.3940  -27.5050 O.2    50  ASN50      -0.2716
     51  ND2        7.5620   -2.1040  -26.0750 N.am   50  ASN50      -0.0877
     52  N         -0.8260   -1.4750  -32.5920 N.3    54  GLY54      -0.1210
     53  CA        -1.7950   -1.3950  -31.5160 C.3    54  GLY54       0.1956
     54  C         -3.2170   -1.2840  -32.0600 C.2    54  GLY54       0.2612
     55  O         -3.4950   -0.4080  -32.8550 O.2    54  GLY54      -0.2717
     56  N         -4.0900   -2.2010  -31.6260 N.am   55  TYR55      -0.1962
     57  CA        -5.5140   -2.1420  -31.9610 C.3    55  TYR55       0.1771
     58  C         -6.0500   -0.9070  -31.2670 C.2    55  TYR55       0.2620
     59  O         -5.8900   -0.7840  -30.0910 O.2    55  TYR55      -0.2715
     60  CB        -6.2920   -3.3970  -31.5440 C.3    55  TYR55       0.0574
     61  CG        -7.7770   -3.2190  -31.7220 C.ar   55  TYR55      -0.0198
     62  CD1       -8.3060   -3.0380  -32.9910 C.ar   55  TYR55      -0.0009
     63  CD2       -8.6360   -3.1010  -30.6430 C.ar   55  TYR55      -0.0009
     64  CE1       -9.6550   -2.7880  -33.1890 C.ar   55  TYR55       0.0417
     65  CE2       -9.9910   -2.8520  -30.8210 C.ar   55  TYR55       0.0417
     66  CZ       -10.5000   -2.7000  -32.0990 C.ar   55  TYR55       0.1957
     67  OH       -11.8260   -2.4650  -32.3290 O.3    55  TYR55      -0.2866
     68  N         -6.5530    0.0500  -32.0400 N.am   56  THR56      -0.1951
     69  CA        -7.0250    1.2790  -31.5220 C.3    56  THR56       0.1897
     70  C         -8.4960    1.4270  -31.9370 C.2    56  THR56       0.2313
     71  O         -8.8130    2.0510  -32.9650 O.2    56  THR56      -0.2863
     72  CB        -6.1660    2.4540  -32.0070 C.3    56  THR56       0.1794
     73  OG1       -4.7980    2.0750  -31.7700 O.3    56  THR56      -0.2208
     74  CG2       -6.5390    3.7450  -31.3130 C.3    56  THR56       0.0378
     75  N         -6.5410    4.9760  -24.7180 N.3    62  TYR62      -0.1227
     76  CA        -5.4570    5.9290  -24.9530 C.3    62  TYR62       0.1736
     77  C         -5.8950    7.1060  -25.8270 C.2    62  TYR62       0.2595
     78  O         -5.1800    8.1150  -25.9030 O.2    62  TYR62      -0.2718
     79  CB        -4.3030    5.1830  -25.6140 C.3    62  TYR62       0.0548
     80  CG        -3.7550    4.0410  -24.7950 C.ar   62  TYR62      -0.0200
     81  CD1       -3.3900    4.1980  -23.4660 C.ar   62  TYR62      -0.0009
     82  CD2       -3.6320    2.7750  -25.3380 C.ar   62  TYR62      -0.0009
     83  CE1       -2.8680    3.1440  -22.7260 C.ar   62  TYR62       0.0417
     84  CE2       -3.1400    1.7010  -24.6040 C.ar   62  TYR62       0.0417
     85  CZ        -2.7440    1.8820  -23.2920 C.ar   62  TYR62       0.1957
     86  OH        -2.2070    0.8110  -22.6080 O.3    62  TYR62      -0.2866
     87  N         -7.0620    6.9740  -26.4760 N.am   63  TYR63      -0.1976
     88  CA        -7.5460    7.9210  -27.4700 C.3    63  TYR63       0.1639
     89  C         -9.0630    8.1220  -27.2630 C.2    63  TYR63       0.2290
     90  O         -9.7560    7.2300  -26.8110 O.2    63  TYR63      -0.2864
     91  CB        -7.2470    7.3740  -28.8700 C.3    63  TYR63       0.0560
     92  CG        -5.7790    7.4550  -29.2380 C.ar   63  TYR63      -0.0198
     93  CD1       -5.2310    8.6630  -29.6340 C.ar   63  TYR63      -0.0009
     94  CD2       -4.9390    6.3670  -29.1450 C.ar   63  TYR63      -0.0009
     95  CE1       -3.8960    8.7820  -29.9720 C.ar   63  TYR63       0.0417
     96  CE2       -3.5920    6.4600  -29.4750 C.ar   63  TYR63       0.0417
     97  CZ        -3.0850    7.6710  -29.9050 C.ar   63  TYR63       0.1957
     98  OH        -1.7840    7.8830  -30.2170 O.3    63  TYR63      -0.2866
     99  N         -3.0220    1.2280  -35.2900 N.3    73  VAL73      -0.1245
    100  CA        -2.0030    2.2650  -35.5280 C.3    73  VAL73       0.1561
    101  C         -0.6400    1.6480  -35.2230 C.2    73  VAL73       0.2260
    102  O         -0.5920    0.6490  -34.5320 O.2    73  VAL73      -0.2867
    103  CB        -2.2440    3.5140  -34.6540 C.3    73  VAL73       0.0252
    104  CG1       -3.6460    4.0560  -34.9040 C.3    73  VAL73       0.0019
    105  CG2       -1.9910    3.2460  -33.1730 C.3    73  VAL73       0.0019
    106  N          3.0520    2.1840  -33.1700 N.3    75  TYR75      -0.1241
    107  CA         3.6160    2.9350  -32.1070 C.3    75  TYR75       0.1605
    108  C          5.1370    2.7450  -32.0190 C.2    75  TYR75       0.2264
    109  O          5.6910    1.7390  -32.4230 O.2    75  TYR75      -0.2867
    110  CB         2.9920    2.5420  -30.7820 C.3    75  TYR75       0.0534
    111  CG         3.3230    1.1610  -30.2810 C.ar   75  TYR75      -0.0201
    112  CD1        2.5930    0.0430  -30.6520 C.ar   75  TYR75      -0.0009
    113  CD2        4.3250    1.0030  -29.3470 C.ar   75  TYR75      -0.0009
    114  CE1        2.8920   -1.2110  -30.1390 C.ar   75  TYR75       0.0417
    115  CE2        4.6270   -0.2400  -28.8110 C.ar   75  TYR75       0.0417
    116  CZ         3.9090   -1.3500  -29.2050 C.ar   75  TYR75       0.1957
    117  OH         4.2650   -2.5440  -28.6360 O.3    75  TYR75      -0.2866
    118  N          7.7420    3.3960  -28.8630 N.3    77  TYR77      -0.1241
    119  CA         7.9860    3.7620  -27.4740 C.3    77  TYR77       0.1605
    120  C          9.4820    3.6860  -27.1370 C.2    77  TYR77       0.2264
    121  O         10.1410    2.7150  -27.4890 O.2    77  TYR77      -0.2867
    122  CB         7.2300    2.7940  -26.5630 C.3    77  TYR77       0.0534
    123  CG         7.5520    3.0300  -25.1190 C.ar   77  TYR77      -0.0201
    124  CD1        7.2010    4.2270  -24.5230 C.ar   77  TYR77      -0.0009
    125  CD2        8.2130    2.0780  -24.3670 C.ar   77  TYR77      -0.0009
    126  CE1        7.5220    4.4810  -23.1990 C.ar   77  TYR77       0.0417
    127  CE2        8.5380    2.3210  -23.0430 C.ar   77  TYR77       0.0417
    128  CZ         8.1940    3.5290  -22.4620 C.ar   77  TYR77       0.1957
    129  OH         8.5110    3.7880  -21.1610 O.3    77  TYR77      -0.2866
    130  N         -0.9480    9.5140  -27.6990 N.3   112  SER112     -0.1217
    131  CA        -1.6580    8.5960  -26.8150 C.3   112  SER112      0.1889
    132  C         -1.7590    9.2380  -25.4310 C.2   112  SER112      0.2288
    133  O         -0.8010    9.7590  -24.9280 O.2   112  SER112     -0.2866
    134  CB        -0.9870    7.2360  -26.7660 C.3   112  SER112      0.2089
    135  OG         0.4250    7.3580  -26.5170 O.3   112  SER112     -0.2183
    136  N         -1.8870    4.4680  -14.4920 N.3   119  PHE119     -0.1241
    137  CA        -0.6430    4.9840  -15.0550 C.3   119  PHE119      0.1605
    138  C         -0.9100    6.0350  -16.1400 C.2   119  PHE119      0.2264
    139  O         -1.7540    5.8250  -17.0210 O.2   119  PHE119     -0.2867
    140  CB         0.1690    3.8210  -15.6140 C.3   119  PHE119      0.0534
    141  CG         1.3680    4.2210  -16.4360 C.ar  119  PHE119     -0.0203
    142  CD1        1.2640    4.3660  -17.8140 C.ar  119  PHE119     -0.0042
    143  CD2        2.6100    4.4050  -15.8430 C.ar  119  PHE119     -0.0042
    144  CE1        2.3870    4.6800  -18.5750 C.ar  119  PHE119     -0.0003
    145  CE2        3.7260    4.7430  -16.6010 C.ar  119  PHE119     -0.0003
    146  CZ         3.6130    4.8720  -17.9690 C.ar  119  PHE119     -0.0000
    147  N         -0.1660    8.4810  -19.4960 N.3   121  LEU121     -0.1245
    148  CA         0.5130    8.6130  -20.7900 C.3   121  LEU121      0.1561
    149  C          0.5680   10.1060  -21.1450 C.2   121  LEU121      0.2260
    150  O          0.8840   10.4880  -22.2550 O.2   121  LEU121     -0.2867
    151  CB        -0.2060    7.7620  -21.8470 C.3   121  LEU121      0.0270
    152  CG         0.0610    6.2460  -21.8450 C.3   121  LEU121      0.0019
    153  CD1       -0.7670    5.5150  -20.7840 C.3   121  LEU121      0.0001
    154  CD2       -0.2470    5.6320  -23.2150 C.3   121  LEU121      0.0001
    155  N          5.4970   11.3920  -21.2070 N.3   184  PHE184     -0.1241
    156  CA         5.6280   10.0090  -21.6650 C.3   184  PHE184      0.1605
    157  C          6.1270    9.9250  -23.1120 C.2   184  PHE184      0.2264
    158  O          5.6880   10.7050  -23.9970 O.2   184  PHE184     -0.2867
    159  CB         4.2410    9.3640  -21.5440 C.3   184  PHE184      0.0534
    160  CG         4.0930    7.9860  -22.1320 C.ar  184  PHE184     -0.0203
    161  CD1        4.5040    6.8770  -21.4180 C.ar  184  PHE184     -0.0042
    162  CD2        3.5770    7.8130  -23.4110 C.ar  184  PHE184     -0.0042
    163  CE1        4.3690    5.6080  -21.9590 C.ar  184  PHE184     -0.0003
    164  CE2        3.4610    6.5490  -23.9620 C.ar  184  PHE184     -0.0003
    165  CZ         3.8350    5.4480  -23.2210 C.ar  184  PHE184     -0.0000
    166  N          6.0000    7.8500  -25.8350 N.3   186  GLY186     -0.1225
    167  CA         5.3870    7.0540  -26.9030 C.3   186  GLY186      0.1811
    168  C          4.6770    7.9620  -27.8900 C.2   186  GLY186      0.2280
    169  O          4.0420    8.9310  -27.5080 O.2   186  GLY186     -0.2866
    170  N          2.4410    7.5610  -31.8120 N.3   188  ASP188     -0.1239
    171  CA         1.7860    6.6380  -32.7150 C.3   188  ASP188      0.1674
    172  C          1.6760    7.2670  -34.0990 C.2   188  ASP188      0.2266
    173  O          1.6390    8.4840  -34.2280 O.2   188  ASP188     -0.2867
    174  CB         0.3870    6.2610  -32.2220 C.3   188  ASP188      0.1410
    175  CG         0.3740    5.5950  -30.8540 C.2   188  ASP188      0.3668
    176  OD1        1.4700    5.2570  -30.3270 O.co2 188  ASP188     -0.2456
    177  OD2       -0.7240    5.4960  -30.2710 O.co2 188  ASP188     -0.2456
@<TRIPOS>BOND
     1   100    99    1
     2   100   101    1
     3   100   103    1
     4   101   102    2
     5   104   103    1
     6   103   105    1
     7   173   172    2
     8   172   171    1
     9    64    62   ar
    10    64    66   ar
    11   106   107    1
    12    62    61   ar
    13    71    70    2
    14    55    54    2
    15   171   174    1
    16   171   170    1
    17    52    53    1
    18   109   108    2
    19    67    66    1
    20   174   175    1
    21   107   108    1
    22   107   110    1
    23    66    65   ar
    24    54    56   am
    25    54    53    1
    26    68    69    1
    27    68    58   am
    28    72    73    1
    29    72    69    1
    30    72    74    1
    31    57    56    1
    32    57    60    1
    33    57    58    1
    34    70    69    1
    35    61    60    1
    36    61    63   ar
    37    58    59    2
    38   175   176   ar
    39   175   177   ar
    40    65    63   ar
    41   110   111    1
    42   112   111   ar
    43   112   114   ar
    44   111   113   ar
    45    98    97    1
    46   114   116   ar
    47    15    14    1
    48    15    16    2
    49    95    97   ar
    50    95    93   ar
    51    97    96   ar
    52    47    46    2
    53    46    45    1
    54    14    13    1
    55    14    17    1
    56    93    92   ar
    57     4     3    2
    58    96    94   ar
    59   113   115   ar
    60     3    13   am
    61     3     2    1
    62    92    94   ar
    63    92    91    1
    64   116   115   ar
    65   116   117    1
    66     2     1    1
    67     2     5    1
    68    91    88    1
    69   118   119    1
    70    45    48    1
    71    45    44    1
    72    17    18    1
    73     5     6    1
    74    48    49    1
    75   168   169    2
    76   168   167    1
    77   130   131    1
    78    50    49    2
    79   121   120    2
    80   119   120    1
    81   119   122    1
    82    88    89    1
    83    88    87    1
    84    18    19   ar
    85    18    20   ar
    86    19    21   ar
    87    89    90    2
    88    49    51   am
    89   167   166    1
    90   131   134    1
    91   131   132    1
    92   134   135    1
    93     6     7   ar
    94     6     8   ar
    95    35    33    1
    96   122   123    1
    97    87    77   am
    98     7     9   ar
    99    20    22   ar
   100    21    23   ar
   101    78    77    2
   102    77    76    1
   103     8    10   ar
   104    79    76    1
   105    79    80    1
   106   132   133    2
   107    33    34    1
   108    33    32    2
   109    82    80   ar
   110    82    84   ar
   111    22    23   ar
   112     9    11   ar
   113    23    24    1
   114   123   124   ar
   115   123   125   ar
   116    76    75    1
   117    80    81   ar
   118    31    32    1
   119    31    30    1
   120    84    85   ar
   121   124   126   ar
   122   125   127   ar
   123    10    11   ar
   124    11    12    1
   125   158   157    2
   126   164   162   ar
   127   164   165   ar
   128    26    25    1
   129    26    29    1
   130    26    27    1
   131    81    83   ar
   132   162   160   ar
   133    30    29    1
   134    85    83   ar
   135    85    86    1
   136   165   163   ar
   137   154   152    1
   138   126   128   ar
   139    28    27    2
   140   157   156    1
   141   127   128   ar
   142    27    36   am
   143   128   129    1
   144   150   149    2
   145   160   159    1
   146   160   161   ar
   147   163   161   ar
   148   151   152    1
   149   151   148    1
   150   152   153    1
   151    36    37    1
   152   156   159    1
   153   156   155    1
   154    38    39    2
   155    38    37    1
   156   149   148    1
   157    37    40    1
   158   148   147    1
   159    40    42    1
   160    40    41    1
   161    41    43    1
   162   144   146   ar
   163   144   142   ar
   164   146   145   ar
   165   142   141   ar
   166   139   138    2
   167   145   143   ar
   168   141   143   ar
   169   141   140    1
   170   138   137    1
   171   140   137    1
   172   137   136    1
