@<TRIPOS>MOLECULE
tmp/6a99B00.pdb
 102 99 0 0 0
SMALL
GASTEIGER

@<TRIPOS>ATOM
      1  N        -14.3980   -4.3580  -14.5960 N.3    23  TYR23      -0.1241
      2  CA       -14.1230   -4.2250  -13.2100 C.3    23  TYR23       0.1605
      3  C        -12.6160   -4.1090  -13.0110 C.2    23  TYR23       0.2264
      4  O        -11.8420   -4.6900  -13.8110 O.2    23  TYR23      -0.2867
      5  CB       -14.6580   -5.4570  -12.4830 C.3    23  TYR23       0.0534
      6  CG       -13.9310   -6.7430  -12.8000 C.ar   23  TYR23      -0.0201
      7  CD1      -12.8030   -7.1130  -12.0850 C.ar   23  TYR23      -0.0009
      8  CD2      -14.3890   -7.6150  -13.7700 C.ar   23  TYR23      -0.0009
      9  CE1      -12.1280   -8.2960  -12.3330 C.ar   23  TYR23       0.0417
     10  CE2      -13.7240   -8.8050  -14.0400 C.ar   23  TYR23       0.0417
     11  CZ       -12.5900   -9.1500  -13.3150 C.ar   23  TYR23       0.1957
     12  OH       -11.9160  -10.3200  -13.5370 O.3    23  TYR23      -0.2866
     13  N         -6.4980  -11.7590  -11.3780 N.3    46  ARG46      -0.1231
     14  CA        -7.9370  -12.0120  -11.5980 C.3    46  ARG46       0.1694
     15  C         -8.3900  -13.2300  -10.7730 C.2    46  ARG46       0.2591
     16  O         -9.5940  -13.4690  -10.6680 O.2    46  ARG46      -0.2718
     17  CB        -8.2550  -12.1610  -13.0990 C.3    46  ARG46       0.0321
     18  CG        -8.3210  -10.8320  -13.8470 C.3    46  ARG46       0.0489
     19  CD        -8.6540  -10.8920  -15.3340 C.3    46  ARG46       0.2205
     20  NE        -8.7930   -9.5570  -15.9310 N.pl3  46  ARG46      -0.0865
     21  CZ        -8.8610   -9.3010  -17.2420 C.cat  46  ARG46       0.5346
     22  NH1       -8.6990  -10.2750  -18.1240 N.pl3  46  ARG46       0.1354
     23  NH2       -9.0940   -8.0680  -17.6660 N.pl3  46  ARG46       0.1354
     24  N         -7.4380  -13.9670  -10.1790 N.am   47  ILE47      -0.1980
     25  CA        -7.7070  -15.2360   -9.4970 C.3    47  ILE47       0.1595
     26  C         -7.3720  -15.1620   -7.9900 C.2    47  ILE47       0.2287
     27  O         -7.7460  -16.0480   -7.2460 O.2    47  ILE47      -0.2864
     28  CB        -6.9740  -16.3740  -10.2600 C.3    47  ILE47       0.0276
     29  CG1       -7.8950  -17.5770  -10.4950 C.3    47  ILE47       0.0022
     30  CG2       -5.6440  -16.7850   -9.6190 C.3    47  ILE47       0.0022
     31  CD1       -9.1170  -17.2830  -11.3630 C.3    47  ILE47       0.0001
     32  N        -24.9110   -9.7510  -13.7540 N.3    62  TYR62      -0.1241
     33  CA       -24.7800  -10.1800  -12.3330 C.3    62  TYR62       0.1605
     34  C        -25.9280   -9.6710  -11.4430 C.2    62  TYR62       0.2264
     35  O        -26.1630  -10.2230  -10.3720 O.2    62  TYR62      -0.2867
     36  CB       -23.4140   -9.7200  -11.8200 C.3    62  TYR62       0.0534
     37  CG       -22.2730  -10.0560  -12.7530 C.ar   62  TYR62      -0.0201
     38  CD1      -22.1450  -11.3130  -13.3150 C.ar   62  TYR62      -0.0009
     39  CD2      -21.3270   -9.1090  -13.0950 C.ar   62  TYR62      -0.0009
     40  CE1      -21.1080  -11.6160  -14.1840 C.ar   62  TYR62       0.0417
     41  CE2      -20.2860   -9.3930  -13.9600 C.ar   62  TYR62       0.0417
     42  CZ       -20.1680  -10.6560  -14.5060 C.ar   62  TYR62       0.1957
     43  OH       -19.1230  -10.9360  -15.3390 O.3    62  TYR62      -0.2866
     44  N        -13.9380   -9.8870   -2.9050 N.3    77  TYR77      -0.1241
     45  CA       -13.9610  -11.3080   -3.2350 C.3    77  TYR77       0.1605
     46  C        -12.8110  -11.9510   -2.4710 C.2    77  TYR77       0.2264
     47  O        -11.6970  -11.4230   -2.4930 O.2    77  TYR77      -0.2867
     48  CB       -13.8590  -11.5890   -4.7490 C.3    77  TYR77       0.0534
     49  CG       -13.6120  -13.0470   -5.0270 C.ar   77  TYR77      -0.0201
     50  CD1      -14.6230  -13.9840   -4.8720 C.ar   77  TYR77      -0.0009
     51  CD2      -12.3470  -13.5180   -5.3360 C.ar   77  TYR77      -0.0009
     52  CE1      -14.3990  -15.3420   -5.0530 C.ar   77  TYR77       0.0417
     53  CE2      -12.1050  -14.8670   -5.5400 C.ar   77  TYR77       0.0417
     54  CZ       -13.1330  -15.7850   -5.3980 C.ar   77  TYR77       0.1957
     55  OH       -12.9000  -17.1230   -5.5920 O.3    77  TYR77      -0.2866
     56  N        -24.2050  -10.5940   -5.8430 N.3   112  SER112     -0.1217
     57  CA       -23.9870  -10.9030   -7.2750 C.3   112  SER112      0.1889
     58  C        -24.5560  -12.2960   -7.5630 C.2   112  SER112      0.2288
     59  O        -24.3270  -13.1940   -6.7940 O.2   112  SER112     -0.2866
     60  CB       -22.5300  -10.7940   -7.7320 C.3   112  SER112      0.2089
     61  OG       -21.5790  -10.9800   -6.7010 O.3   112  SER112     -0.2183
     62  N        -20.1560  -16.1620  -14.2760 N.3   116  PHE116     -0.1241
     63  CA       -19.0470  -15.5250  -15.0490 C.3   116  PHE116      0.1605
     64  C        -18.2630  -16.6090  -15.7870 C.2   116  PHE116      0.2264
     65  O        -17.6000  -17.4250  -15.1400 O.2   116  PHE116     -0.2867
     66  CB       -18.0890  -14.7400  -14.1510 C.3   116  PHE116      0.0534
     67  CG       -16.7810  -14.3590  -14.7990 C.ar  116  PHE116     -0.0203
     68  CD1      -16.6720  -13.2070  -15.5670 C.ar  116  PHE116     -0.0042
     69  CD2      -15.6440  -15.1420  -14.6340 C.ar  116  PHE116     -0.0042
     70  CE1      -15.4660  -12.8550  -16.1600 C.ar  116  PHE116     -0.0003
     71  CE2      -14.4360  -14.7820  -15.2240 C.ar  116  PHE116     -0.0003
     72  CZ       -14.3500  -13.6420  -15.9890 C.ar  116  PHE116     -0.0000
     73  N        -18.8860  -20.2300  -14.6040 N.3   119  PHE119     -0.1241
     74  CA       -18.7410  -20.4030  -13.1240 C.3   119  PHE119      0.1605
     75  C        -19.9000  -19.7310  -12.3830 C.2   119  PHE119      0.2264
     76  O        -20.0980  -18.5300  -12.5110 O.2   119  PHE119     -0.2867
     77  CB       -17.3910  -19.8440  -12.6760 C.3   119  PHE119      0.0534
     78  CG       -17.0570  -20.1250  -11.2360 C.ar  119  PHE119     -0.0203
     79  CD1      -17.5420  -19.3100  -10.2250 C.ar  119  PHE119     -0.0042
     80  CD2      -16.2590  -21.2020  -10.8910 C.ar  119  PHE119     -0.0042
     81  CE1      -17.2420  -19.5710   -8.8990 C.ar  119  PHE119     -0.0003
     82  CE2      -15.9610  -21.4630   -9.5650 C.ar  119  PHE119     -0.0003
     83  CZ       -16.4540  -20.6470   -8.5730 C.ar  119  PHE119     -0.0000
     84  N        -22.3960  -17.9230   -9.6070 N.3   121  LEU121     -0.1245
     85  CA       -22.2230  -16.9480   -8.5850 C.3   121  LEU121      0.1561
     86  C        -23.2460  -17.1420   -7.4470 C.2   121  LEU121      0.2260
     87  O        -23.2690  -16.3320   -6.5210 O.2   121  LEU121     -0.2867
     88  CB       -22.3520  -15.5750   -9.2530 C.3   121  LEU121      0.0270
     89  CG       -21.0600  -14.8690   -9.6590 C.3   121  LEU121      0.0019
     90  CD1      -19.9170  -15.8300   -9.9090 C.3   121  LEU121      0.0001
     91  CD2      -21.2890  -13.9960  -10.8700 C.3   121  LEU121      0.0001
     92  N        -20.7580  -18.7090   -3.4570 N.3   184  PHE184     -0.1241
     93  CA       -19.6530  -17.8900   -3.9410 C.3   184  PHE184      0.1605
     94  C        -19.3430  -16.7060   -3.0040 C.2   184  PHE184      0.2264
     95  O        -20.2270  -15.9580   -2.6150 O.2   184  PHE184     -0.2867
     96  CB       -20.0420  -17.4280   -5.3450 C.3   184  PHE184      0.0534
     97  CG       -19.1780  -16.3590   -5.9390 C.ar  184  PHE184     -0.0203
     98  CD1      -18.0110  -16.6860   -6.6010 C.ar  184  PHE184     -0.0042
     99  CD2      -19.5760  -15.0360   -5.8810 C.ar  184  PHE184     -0.0042
    100  CE1      -17.2320  -15.6940   -7.1760 C.ar  184  PHE184     -0.0003
    101  CE2      -18.7910  -14.0430   -6.4430 C.ar  184  PHE184     -0.0003
    102  CZ       -17.6150  -14.3720   -7.0770 C.ar  184  PHE184     -0.0000
@<TRIPOS>BOND
     1    22    21    1
     2    23    21    1
     3    21    20    2
     4    70    72   ar
     5    70    68   ar
     6    72    71   ar
     7    20    19    1
     8    64    65    2
     9    64    63    1
    10    68    67   ar
    11    43    42    1
    12    19    18    1
    13    71    69   ar
    14    63    62    1
    15    63    66    1
    16    67    69   ar
    17    67    66    1
    18    73    74    1
    19     1     2    1
    20    42    40   ar
    21    42    41   ar
    22    40    38   ar
    23    10     8   ar
    24    10    11   ar
    25    41    39   ar
    26    18    17    1
    27     4     3    2
    28     8     6   ar
    29    32    33    1
    30    12    11    1
    31    11     9   ar
    32    38    37   ar
    33     2     3    1
    34     2     5    1
    35    74    77    1
    36    74    75    1
    37    17    14    1
    38    39    37   ar
    39     6     5    1
    40     6     7   ar
    41    37    36    1
    42    77    78    1
    43    76    75    2
    44    33    36    1
    45    33    34    1
    46     9     7   ar
    47    14    13    1
    48    14    15    1
    49    34    35    2
    50    31    29    1
    51    78    80   ar
    52    78    79   ar
    53    80    82   ar
    54    91    89    1
    55    15    16    2
    56    15    24   am
    57    29    28    1
    58    28    30    1
    59    28    25    1
    60    79    81   ar
    61    24    25    1
    62    90    89    1
    63    89    88    1
    64    84    85    1
    65    82    83   ar
    66    25    26    1
    67    88    85    1
    68    81    83   ar
    69    85    86    1
    70    26    27    2
    71    60    57    1
    72    60    61    1
    73    58    57    1
    74    58    59    2
    75    86    87    2
    76    57    56    1
    77   100   102   ar
    78   100    98   ar
    79   102   101   ar
    80    98    97   ar
    81   101    99   ar
    82    97    99   ar
    83    97    96    1
    84    55    54    1
    85    53    54   ar
    86    53    51   ar
    87    54    52   ar
    88    96    93    1
    89    51    49   ar
    90    52    50   ar
    91    49    50   ar
    92    49    48    1
    93    48    45    1
    94    93    92    1
    95    93    94    1
    96    45    44    1
    97    45    46    1
    98    94    95    2
    99    47    46    2
