@<TRIPOS>MOLECULE
tmp/6a99B01.pdb
 172 166 0 0 0
SMALL
GASTEIGER

@<TRIPOS>ATOM
      1  N        -19.9390   -4.5040  -17.1290 N.3    21  ASP21      -0.1225
      2  CA       -19.3920   -5.6750  -16.4280 C.3    21  ASP21       0.1805
      3  C        -17.8540   -5.6380  -16.3490 C.2    21  ASP21       0.2598
      4  O        -17.2430   -6.6010  -15.8430 O.2    21  ASP21      -0.2718
      5  CB       -19.8890   -6.9910  -17.0410 C.3    21  ASP21       0.1424
      6  CG       -21.3700   -7.2340  -16.8430 C.2    21  ASP21       0.3668
      7  OD1      -21.9540   -6.6430  -15.9160 O.co2  21  ASP21      -0.2456
      8  OD2      -21.9210   -8.0190  -17.6030 O.co2  21  ASP21      -0.2456
      9  N        -17.2130   -4.5540  -16.8200 N.am   22  TYR22      -0.1962
     10  CA       -15.7860   -4.3910  -16.5890 C.3    22  TYR22       0.1771
     11  C        -15.5830   -4.0240  -15.1110 C.2    22  TYR22       0.2619
     12  O        -16.4720   -3.4480  -14.4620 O.2    22  TYR22      -0.2715
     13  CB       -15.1310   -3.3530  -17.5080 C.3    22  TYR22       0.0574
     14  CG       -13.6230   -3.3200  -17.3670 C.ar   22  TYR22      -0.0198
     15  CD1      -12.8510   -4.4080  -17.7440 C.ar   22  TYR22      -0.0009
     16  CD2      -12.9700   -2.2440  -16.7880 C.ar   22  TYR22      -0.0009
     17  CE1      -11.4780   -4.4200  -17.5800 C.ar   22  TYR22       0.0417
     18  CE2      -11.5940   -2.2370  -16.6150 C.ar   22  TYR22       0.0417
     19  CZ       -10.8460   -3.3260  -17.0220 C.ar   22  TYR22       0.1957
     20  OH        -9.4950   -3.3330  -16.8870 O.3    22  TYR22      -0.2866
     21  N        -14.3980   -4.3580  -14.5960 N.am   23  TYR23      -0.1974
     22  CA       -14.1230   -4.2250  -13.2100 C.3    23  TYR23       0.1639
     23  C        -12.6160   -4.1090  -13.0110 C.2    23  TYR23       0.2290
     24  O        -11.8420   -4.6900  -13.8110 O.2    23  TYR23      -0.2864
     25  CB       -14.6580   -5.4570  -12.4830 C.3    23  TYR23       0.0560
     26  CG       -13.9310   -6.7430  -12.8000 C.ar   23  TYR23      -0.0198
     27  CD1      -12.8030   -7.1130  -12.0850 C.ar   23  TYR23      -0.0009
     28  CD2      -14.3890   -7.6150  -13.7700 C.ar   23  TYR23      -0.0009
     29  CE1      -12.1280   -8.2960  -12.3330 C.ar   23  TYR23       0.0417
     30  CE2      -13.7240   -8.8050  -14.0400 C.ar   23  TYR23       0.0417
     31  CZ       -12.5900   -9.1500  -13.3150 C.ar   23  TYR23       0.1957
     32  OH       -11.9160  -10.3200  -13.5370 O.3    23  TYR23      -0.2866
     33  N         -6.4980  -11.7590  -11.3780 N.3    46  ARG46      -0.1245
     34  CA        -7.9370  -12.0120  -11.5980 C.3    46  ARG46       0.1563
     35  C         -8.3900  -13.2300  -10.7730 C.2    46  ARG46       0.2260
     36  O         -9.5940  -13.4690  -10.6680 O.2    46  ARG46      -0.2867
     37  CB        -8.2550  -12.1610  -13.0990 C.3    46  ARG46       0.0307
     38  CG        -8.3210  -10.8320  -13.8470 C.3    46  ARG46       0.0489
     39  CD        -8.6540  -10.8920  -15.3340 C.3    46  ARG46       0.2205
     40  NE        -8.7930   -9.5570  -15.9310 N.pl3  46  ARG46      -0.0865
     41  CZ        -8.8610   -9.3010  -17.2420 C.cat  46  ARG46       0.5346
     42  NH1       -8.6990  -10.2750  -18.1240 N.pl3  46  ARG46       0.1354
     43  NH2       -9.0940   -8.0680  -17.6660 N.pl3  46  ARG46       0.1354
     44  N         -9.4190  -10.2750   -3.9440 N.3    50  ASN50      -0.1240
     45  CA        -9.2740   -8.9540   -4.4640 C.3    50  ASN50       0.1653
     46  C        -10.5120   -8.1210   -4.1440 C.2    50  ASN50       0.2266
     47  O        -11.5230   -8.6240   -3.6660 O.2    50  ASN50      -0.2867
     48  CB        -8.9530   -8.9730   -5.9670 C.3    50  ASN50       0.1155
     49  CG        -9.9800   -9.7260   -6.7850 C.2    50  ASN50       0.2627
     50  OD1      -11.0900   -9.9690   -6.3020 O.2    50  ASN50      -0.2716
     51  ND2       -9.6210  -10.0770   -8.0170 N.am   50  ASN50      -0.0877
     52  N        -16.8310   -2.1010  -10.0660 N.3    54  GLY54      -0.1210
     53  CA       -17.4310   -2.9020  -11.0970 C.3    54  GLY54       0.1956
     54  C        -18.6030   -2.1700  -11.7100 C.2    54  GLY54       0.2612
     55  O        -19.5560   -1.8050  -10.9880 O.2    54  GLY54      -0.2717
     56  N        -18.5030   -1.9260  -13.0270 N.am   55  TYR55      -0.1962
     57  CA       -19.5410   -1.2760  -13.8150 C.3    55  TYR55       0.1771
     58  C        -20.7390   -2.2050  -13.7950 C.2    55  TYR55       0.2620
     59  O        -20.6170   -3.3470  -14.1340 O.2    55  TYR55      -0.2715
     60  CB       -19.1050   -1.0240  -15.2680 C.3    55  TYR55       0.0574
     61  CG       -19.9530   -0.0510  -16.0620 C.ar   55  TYR55      -0.0198
     62  CD1      -21.2980   -0.2880  -16.3300 C.ar   55  TYR55      -0.0009
     63  CD2      -19.3930    1.1000  -16.5970 C.ar   55  TYR55      -0.0009
     64  CE1      -22.0630    0.6030  -17.0740 C.ar   55  TYR55       0.0417
     65  CE2      -20.1430    2.0010  -17.3410 C.ar   55  TYR55       0.0417
     66  CZ       -21.4820    1.7530  -17.5790 C.ar   55  TYR55       0.1957
     67  OH       -22.2080    2.6500  -18.3000 O.3    55  TYR55      -0.2866
     68  N        -21.8700   -1.6590  -13.3690 N.am   56  THR56      -0.1951
     69  CA       -23.0930   -2.3600  -13.0880 C.3    56  THR56       0.1897
     70  C        -24.1970   -1.4330  -13.6000 C.2    56  THR56       0.2313
     71  O        -24.5990   -0.4720  -12.9060 O.2    56  THR56      -0.2863
     72  CB       -23.2240   -2.6780  -11.5860 C.3    56  THR56       0.1794
     73  OG1      -22.0400   -3.3380  -11.1120 O.3    56  THR56      -0.2208
     74  CG2      -24.4490   -3.5120  -11.2730 C.3    56  THR56       0.0378
     75  N        -26.2510   -5.4230  -16.8820 N.3    60  SER60      -0.1217
     76  CA       -25.3390   -6.2560  -16.0810 C.3    60  SER60       0.1889
     77  C        -25.8050   -7.7100  -16.1460 C.2    60  SER60       0.2288
     78  O        -27.0140   -7.9870  -16.0730 O.2    60  SER60      -0.2866
     79  CB       -25.2300   -5.7910  -14.6340 C.3    60  SER60       0.2089
     80  OG       -24.1340   -6.4250  -13.9640 O.3    60  SER60      -0.2183
     81  N        -24.9110   -9.7510  -13.7540 N.3    62  TYR62      -0.1227
     82  CA       -24.7800  -10.1800  -12.3330 C.3    62  TYR62       0.1736
     83  C        -25.9280   -9.6710  -11.4430 C.2    62  TYR62       0.2595
     84  O        -26.1630  -10.2230  -10.3720 O.2    62  TYR62      -0.2718
     85  CB       -23.4140   -9.7200  -11.8200 C.3    62  TYR62       0.0548
     86  CG       -22.2730  -10.0560  -12.7530 C.ar   62  TYR62      -0.0200
     87  CD1      -22.1450  -11.3130  -13.3150 C.ar   62  TYR62      -0.0009
     88  CD2      -21.3270   -9.1090  -13.0950 C.ar   62  TYR62      -0.0009
     89  CE1      -21.1080  -11.6160  -14.1840 C.ar   62  TYR62       0.0417
     90  CE2      -20.2860   -9.3930  -13.9600 C.ar   62  TYR62       0.0417
     91  CZ       -20.1680  -10.6560  -14.5060 C.ar   62  TYR62       0.1957
     92  OH       -19.1230  -10.9360  -15.3390 O.3    62  TYR62      -0.2866
     93  N        -26.6480   -8.6320  -11.8930 N.am   63  TYR63      -0.1976
     94  CA       -27.7620   -8.0150  -11.1550 C.3    63  TYR63       0.1639
     95  C        -28.9320   -7.7690  -12.1170 C.2    63  TYR63       0.2290
     96  O        -28.7090   -7.4700  -13.3040 O.2    63  TYR63      -0.2864
     97  CB       -27.3130   -6.7180  -10.4600 C.3    63  TYR63       0.0560
     98  CG       -26.3670   -6.9170   -9.3060 C.ar   63  TYR63      -0.0198
     99  CD1      -26.8270   -7.2010   -8.0310 C.ar   63  TYR63      -0.0009
    100  CD2      -24.9950   -6.8570   -9.4980 C.ar   63  TYR63      -0.0009
    101  CE1      -25.9420   -7.4080   -6.9850 C.ar   63  TYR63       0.0417
    102  CE2      -24.0970   -7.0640   -8.4690 C.ar   63  TYR63       0.0417
    103  CZ       -24.5740   -7.3340   -7.2010 C.ar   63  TYR63       0.1957
    104  OH       -23.6820   -7.5210   -6.1790 O.3    63  TYR63      -0.2866
    105  N        -20.4670   -0.2910   -8.5310 N.3    73  VAL73      -0.1245
    106  CA       -20.5040   -0.8360   -7.1410 C.3    73  VAL73       0.1561
    107  C        -19.0790   -1.2300   -6.7490 C.2    73  VAL73       0.2260
    108  O        -18.2490   -1.3940   -7.6100 O.2    73  VAL73      -0.2867
    109  CB       -21.4620   -2.0350   -7.0230 C.3    73  VAL73       0.0252
    110  CG1      -22.8130   -1.6740   -7.5860 C.3    73  VAL73       0.0019
    111  CG2      -20.9430   -3.2980   -7.7030 C.3    73  VAL73       0.0019
    112  N        -16.7850   -4.2560   -4.8460 N.3    75  TYR75      -0.1241
    113  CA       -16.8440   -5.6930   -4.5960 C.3    75  TYR75       0.1605
    114  C        -15.6540   -6.0780   -3.7140 C.2    75  TYR75       0.2264
    115  O        -14.6050   -5.4370   -3.7610 O.2    75  TYR75      -0.2867
    116  CB       -16.8890   -6.5110   -5.8890 C.3    75  TYR75       0.0534
    117  CG       -15.5590   -6.6610   -6.5810 C.ar   75  TYR75      -0.0201
    118  CD1      -14.6730   -7.6730   -6.2470 C.ar   75  TYR75      -0.0009
    119  CD2      -15.1800   -5.7750   -7.5710 C.ar   75  TYR75      -0.0009
    120  CE1      -13.4390   -7.7780   -6.8700 C.ar   75  TYR75       0.0417
    121  CE2      -13.9640   -5.8800   -8.2160 C.ar   75  TYR75       0.0417
    122  CZ       -13.0800   -6.8830   -7.8690 C.ar   75  TYR75       0.1957
    123  OH       -11.8730   -6.9500   -8.5160 O.3    75  TYR75      -0.2866
    124  N        -13.9380   -9.8870   -2.9050 N.3    77  TYR77      -0.1241
    125  CA       -13.9610  -11.3080   -3.2350 C.3    77  TYR77       0.1605
    126  C        -12.8110  -11.9510   -2.4710 C.2    77  TYR77       0.2264
    127  O        -11.6970  -11.4230   -2.4930 O.2    77  TYR77      -0.2867
    128  CB       -13.8590  -11.5890   -4.7490 C.3    77  TYR77       0.0534
    129  CG       -13.6120  -13.0470   -5.0270 C.ar   77  TYR77      -0.0201
    130  CD1      -14.6230  -13.9840   -4.8720 C.ar   77  TYR77      -0.0009
    131  CD2      -12.3470  -13.5180   -5.3360 C.ar   77  TYR77      -0.0009
    132  CE1      -14.3990  -15.3420   -5.0530 C.ar   77  TYR77       0.0417
    133  CE2      -12.1050  -14.8670   -5.5400 C.ar   77  TYR77       0.0417
    134  CZ       -13.1330  -15.7850   -5.3980 C.ar   77  TYR77       0.1957
    135  OH       -12.9000  -17.1230   -5.5920 O.3    77  TYR77      -0.2866
    136  N        -24.2050  -10.5940   -5.8430 N.3   112  SER112     -0.1217
    137  CA       -23.9870  -10.9030   -7.2750 C.3   112  SER112      0.1889
    138  C        -24.5560  -12.2960   -7.5630 C.2   112  SER112      0.2288
    139  O        -24.3270  -13.1940   -6.7940 O.2   112  SER112     -0.2866
    140  CB       -22.5300  -10.7940   -7.7320 C.3   112  SER112      0.2089
    141  OG       -21.5790  -10.9800   -6.7010 O.3   112  SER112     -0.2183
    142  N        -22.3960  -17.9230   -9.6070 N.3   121  LEU121     -0.1245
    143  CA       -22.2230  -16.9480   -8.5850 C.3   121  LEU121      0.1561
    144  C        -23.2460  -17.1420   -7.4470 C.2   121  LEU121      0.2260
    145  O        -23.2690  -16.3320   -6.5210 O.2   121  LEU121     -0.2867
    146  CB       -22.3520  -15.5750   -9.2530 C.3   121  LEU121      0.0270
    147  CG       -21.0600  -14.8690   -9.6590 C.3   121  LEU121      0.0019
    148  CD1      -19.9170  -15.8300   -9.9090 C.3   121  LEU121      0.0001
    149  CD2      -21.2890  -13.9960  -10.8700 C.3   121  LEU121      0.0001
    150  N        -20.7580  -18.7090   -3.4570 N.3   184  PHE184     -0.1241
    151  CA       -19.6530  -17.8900   -3.9410 C.3   184  PHE184      0.1605
    152  C        -19.3430  -16.7060   -3.0040 C.2   184  PHE184      0.2264
    153  O        -20.2270  -15.9580   -2.6150 O.2   184  PHE184     -0.2867
    154  CB       -20.0420  -17.4280   -5.3450 C.3   184  PHE184      0.0534
    155  CG       -19.1780  -16.3590   -5.9390 C.ar  184  PHE184     -0.0203
    156  CD1      -18.0110  -16.6860   -6.6010 C.ar  184  PHE184     -0.0042
    157  CD2      -19.5760  -15.0360   -5.8810 C.ar  184  PHE184     -0.0042
    158  CE1      -17.2320  -15.6940   -7.1760 C.ar  184  PHE184     -0.0003
    159  CE2      -18.7910  -14.0430   -6.4430 C.ar  184  PHE184     -0.0003
    160  CZ       -17.6150  -14.3720   -7.0770 C.ar  184  PHE184     -0.0000
    161  N        -18.2550  -13.6530   -2.8050 N.3   186  GLY186     -0.1225
    162  CA       -18.1900  -12.2760   -3.2080 C.3   186  GLY186      0.1811
    163  C        -19.3790  -11.5010   -2.6700 C.2   186  GLY186      0.2280
    164  O        -20.4990  -11.9820   -2.6890 O.2   186  GLY186     -0.2866
    165  N        -21.0070   -7.2610   -2.6420 N.3   188  ASP188     -0.1239
    166  CA       -20.8560   -5.9540   -3.2350 C.3   188  ASP188      0.1674
    167  C        -21.4160   -4.8630   -2.3160 C.2   188  ASP188      0.2266
    168  O        -22.3250   -5.0990   -1.5490 O.2   188  ASP188     -0.2867
    169  CB       -21.5510   -5.9520   -4.5880 C.3   188  ASP188      0.1410
    170  CG       -20.8950   -6.8760   -5.6020 C.2   188  ASP188      0.3668
    171  OD1      -19.8380   -7.4530   -5.2700 O.co2 188  ASP188     -0.2456
    172  OD2      -21.4420   -6.9980   -6.7300 O.co2 188  ASP188     -0.2456
@<TRIPOS>BOND
     1    67    66    1
     2    42    41    1
     3    15    17   ar
     4    15    14   ar
     5    43    41    1
     6     8     6   ar
     7    17    19   ar
     8    66    65   ar
     9    66    64   ar
    10    13    14    1
    11    13    10    1
    12    14    16   ar
    13    65    63   ar
    14    41    40    2
    15     1     2    1
    16    64    62   ar
    17     5     6    1
    18     5     2    1
    19    19    20    1
    20    19    18   ar
    21    75    76    1
    22     6     7   ar
    23     9    10    1
    24     9     3   am
    25    16    18   ar
    26    63    61   ar
    27    10    11    1
    28     2     3    1
    29     3     4    2
    30    62    61   ar
    31    77    76    1
    32    77    78    2
    33    76    79    1
    34    61    60    1
    35    40    39    1
    36    92    91    1
    37    39    38    1
    38    60    57    1
    39    11    21   am
    40    11    12    2
    41    79    80    1
    42    21    22    1
    43    91    89   ar
    44    91    90   ar
    45    89    87   ar
    46    59    58    2
    47    30    28   ar
    48    30    31   ar
    49    90    88   ar
    50    38    37    1
    51    57    58    1
    52    57    56    1
    53    24    23    2
    54    58    68   am
    55    28    26   ar
    56    81    82    1
    57    70    69    1
    58    70    71    2
    59    32    31    1
    60    68    69    1
    61    87    86   ar
    62    31    29   ar
    63    96    95    2
    64    22    23    1
    65    22    25    1
    66    37    34    1
    67    88    86   ar
    68    69    72    1
    69    56    54   am
    70    26    25    1
    71    26    27   ar
    72    86    85    1
    73    82    85    1
    74    82    83    1
    75    29    27   ar
    76    95    94    1
    77    93    83   am
    78    93    94    1
    79    54    53    1
    80    54    55    2
    81    34    33    1
    82    34    35    1
    83    72    74    1
    84    72    73    1
    85    83    84    2
    86    94    97    1
    87    53    52    1
    88   149   147    1
    89    35    36    2
    90    97    98    1
    91   148   147    1
    92   147   146    1
    93   142   143    1
    94   100    98   ar
    95   100   102   ar
    96    98    99   ar
    97   146   143    1
    98   143   144    1
    99   105   106    1
   100   123   122    1
   101   102   103   ar
   102   121   122   ar
   103   121   119   ar
   104    99   101   ar
   105    51    49   am
   106   122   120   ar
   107   140   137    1
   108   140   141    1
   109   111   109    1
   110   108   107    2
   111   110   109    1
   112   119   117   ar
   113   138   137    1
   114   138   139    2
   115   144   145    2
   116   137   136    1
   117   103   101   ar
   118   103   104    1
   119   158   160   ar
   120   158   156   ar
   121   106   109    1
   122   106   107    1
   123   160   159   ar
   124   120   118   ar
   125    49    50    2
   126    49    48    1
   127   172   170   ar
   128   156   155   ar
   129   117   118   ar
   130   117   116    1
   131   159   157   ar
   132    48    45    1
   133   155   157   ar
   134   155   154    1
   135   116   113    1
   136   170   171   ar
   137   170   169    1
   138   135   134    1
   139   133   134   ar
   140   133   131   ar
   141   134   132   ar
   142   154   151    1
   143   131   129   ar
   144   132   130   ar
   145   129   130   ar
   146   129   128    1
   147   112   113    1
   148   128   125    1
   149   113   114    1
   150   169   166    1
   151    45    46    1
   152    45    44    1
   153    46    47    2
   154   151   150    1
   155   151   152    1
   156   115   114    2
   157   125   124    1
   158   125   126    1
   159   166   165    1
   160   166   167    1
   161   162   161    1
   162   162   163    1
   163   152   153    2
   164   164   163    2
   165   127   126    2
   166   167   168    2
