@<TRIPOS>MOLECULE
tmp/6a9fB00.pdb
 177 171 0 0 0
SMALL
GASTEIGER

@<TRIPOS>ATOM
      1  N         28.1020    8.9100   18.9390 N.3    21  TYR21      -0.1227
      2  CA        26.7150    9.4010   18.8450 C.3    21  TYR21       0.1736
      3  C         26.5840   10.7560   18.1290 C.2    21  TYR21       0.2595
      4  O         25.4590   11.2010   17.9630 O.2    21  TYR21      -0.2718
      5  CB        26.0220    9.5110   20.2060 C.3    21  TYR21       0.0548
      6  CG        26.6450   10.4920   21.1610 C.ar   21  TYR21      -0.0200
      7  CD1       27.7520   10.1150   21.8990 C.ar   21  TYR21      -0.0009
      8  CD2       26.1330   11.7660   21.3400 C.ar   21  TYR21      -0.0009
      9  CE1       28.3550   10.9800   22.7930 C.ar   21  TYR21       0.0417
     10  CE2       26.7190   12.6440   22.2390 C.ar   21  TYR21       0.0417
     11  CZ        27.8350   12.2510   22.9630 C.ar   21  TYR21       0.1957
     12  OH        28.4490   13.0810   23.8560 O.3    21  TYR21      -0.2866
     13  N         27.6710   11.3890   17.6820 N.am   22  TYR22      -0.1976
     14  CA        27.5470   12.6110   16.8760 C.3    22  TYR22       0.1639
     15  C         28.7620   12.8060   15.9640 C.2    22  TYR22       0.2290
     16  O         29.8530   12.2980   16.2390 O.2    22  TYR22      -0.2864
     17  CB        27.3790   13.8620   17.7420 C.3    22  TYR22       0.0560
     18  CG        28.6250   14.2620   18.4880 C.ar   22  TYR22      -0.0198
     19  CD1       28.9750   13.6250   19.6710 C.ar   22  TYR22      -0.0009
     20  CD2       29.4660   15.2500   18.0060 C.ar   22  TYR22      -0.0009
     21  CE1       30.1260   13.9620   20.3630 C.ar   22  TYR22       0.0417
     22  CE2       30.6200   15.6030   18.6870 C.ar   22  TYR22       0.0417
     23  CZ        30.9470   14.9580   19.8670 C.ar   22  TYR22       0.1957
     24  OH        32.0650   15.2850   20.5730 O.3    22  TYR22      -0.2866
     25  N         30.7870   16.0770   13.5680 N.3    24  ILE24      -0.1245
     26  CA        30.9730   17.5030   13.3650 C.3    24  ILE24       0.1561
     27  C         31.2970   17.7830   11.8880 C.2    24  ILE24       0.2260
     28  O         31.8370   18.8060   11.5390 O.2    24  ILE24      -0.2867
     29  CB        32.0800   18.0210   14.2980 C.3    24  ILE24       0.0252
     30  CG1       33.4380   17.3850   13.9790 C.3    24  ILE24       0.0019
     31  CG2       31.6790   17.8130   15.7530 C.3    24  ILE24       0.0019
     32  CD1       34.6160   18.2770   14.3350 C.3    24  ILE24       0.0001
     33  N         35.4550   22.2050   18.9790 N.3    45  ARG45      -0.1245
     34  CA        34.3620   21.8910   19.8930 C.3    45  ARG45       0.1563
     35  C         33.4430   23.1170   19.9720 C.2    45  ARG45       0.2260
     36  O         32.2370   23.0020   19.7830 O.2    45  ARG45      -0.2867
     37  CB        34.9300   21.4700   21.2570 C.3    45  ARG45       0.0307
     38  CG        33.8930   21.1730   22.3360 C.3    45  ARG45       0.0489
     39  CD        34.4870   20.6910   23.6520 C.3    45  ARG45       0.2205
     40  NE        33.9090   21.3460   24.8230 N.pl3  45  ARG45      -0.0865
     41  CZ        34.4050   22.4350   25.4130 C.cat  45  ARG45       0.5346
     42  NH1       33.8760   22.8740   26.5430 N.pl3  45  ARG45       0.1354
     43  NH2       35.4300   23.0820   24.8860 N.pl3  45  ARG45       0.1354
     44  N         29.1790   24.7810   13.9550 N.3    49  ASN49      -0.1240
     45  CA        29.2960   23.3460   13.7120 C.3    49  ASN49       0.1653
     46  C         27.9710   22.8940   13.0890 C.2    49  ASN49       0.2266
     47  O         26.9640   23.5430   13.3160 O.2    49  ASN49      -0.2867
     48  CB        29.4610   22.5200   14.9910 C.3    49  ASN49       0.1155
     49  CG        30.8910   22.4410   15.4800 C.2    49  ASN49       0.2627
     50  OD1       31.7620   21.9580   14.7600 O.2    49  ASN49      -0.2716
     51  ND2       31.1460   22.8910   16.7000 N.am   49  ASN49      -0.0877
     52  N         23.4300   13.3250   14.5750 N.3    53  GLY53      -0.1210
     53  CA        23.4210   12.8890   15.9630 C.3    53  GLY53       0.1956
     54  C         22.4910   11.7160   16.1520 C.2    53  GLY53       0.2612
     55  O         21.3990   11.6920   15.6050 O.2    53  GLY53      -0.2717
     56  N         22.9670   10.7100   16.8900 N.am   54  TYR54      -0.1962
     57  CA        22.1460    9.5560   17.2350 C.3    54  TYR54       0.1771
     58  C         21.1700    9.9620   18.3490 C.2    54  TYR54       0.2620
     59  O         21.5870   10.4480   19.3650 O.2    54  TYR54      -0.2715
     60  CB        23.0220    8.3550   17.6260 C.3    54  TYR54       0.0574
     61  CG        22.1870    7.1950   18.1070 C.ar   54  TYR54      -0.0198
     62  CD1       21.3110    6.5560   17.2480 C.ar   54  TYR54      -0.0009
     63  CD2       22.1860    6.8070   19.4380 C.ar   54  TYR54      -0.0009
     64  CE1       20.4690    5.5500   17.6890 C.ar   54  TYR54       0.0417
     65  CE2       21.3630    5.7890   19.8940 C.ar   54  TYR54       0.0417
     66  CZ        20.4970    5.1620   19.0180 C.ar   54  TYR54       0.1957
     67  OH        19.6680    4.1740   19.4620 O.3    54  TYR54      -0.2866
     68  N         19.8710    9.7990   18.1000 N.am   55  THR55      -0.1951
     69  CA        18.7780   10.1610   18.9720 C.3    55  THR55       0.1897
     70  C         17.9050    8.9190   19.1950 C.2    55  THR55       0.2313
     71  O         16.9670    8.6650   18.4310 O.2    55  THR55      -0.2863
     72  CB        17.9770   11.3330   18.3780 C.3    55  THR55       0.1794
     73  OG1       18.8830   12.4250   18.1890 O.3    55  THR55      -0.2208
     74  CG2       16.8150   11.7870   19.2350 C.3    55  THR55       0.0378
     75  N         18.6460   14.6890   25.0470 N.3    61  TYR61      -0.1227
     76  CA        18.2240   15.9670   24.4180 C.3    61  TYR61       0.1736
     77  C         16.7420   16.0120   24.0450 C.2    61  TYR61       0.2595
     78  O         16.2340   17.0990   23.7110 O.2    61  TYR61      -0.2718
     79  CB        19.0560   16.2430   23.1650 C.3    61  TYR61       0.0548
     80  CG        20.5140   15.9690   23.3920 C.ar   61  TYR61      -0.0200
     81  CD1       21.1770   16.6160   24.4210 C.ar   61  TYR61      -0.0009
     82  CD2       21.1900   14.9960   22.6750 C.ar   61  TYR61      -0.0009
     83  CE1       22.5040   16.3450   24.6950 C.ar   61  TYR61       0.0417
     84  CE2       22.5230   14.7220   22.9350 C.ar   61  TYR61       0.0417
     85  CZ        23.1740   15.4000   23.9480 C.ar   61  TYR61       0.1957
     86  OH        24.4830   15.1650   24.2560 O.3    61  TYR61      -0.2866
     87  N         16.0730   14.8550   24.0020 N.am   62  TYR62      -0.1976
     88  CA        14.7150   14.7530   23.4130 C.3    62  TYR62       0.1639
     89  C         13.8580   13.8240   24.2590 C.2    62  TYR62       0.2290
     90  O         14.3560   12.8080   24.7820 O.2    62  TYR62      -0.2864
     91  CB        14.7630   14.2470   21.9640 C.3    62  TYR62       0.0560
     92  CG        15.2520   15.3050   21.0110 C.ar   62  TYR62      -0.0198
     93  CD1       14.4300   16.3720   20.7070 C.ar   62  TYR62      -0.0009
     94  CD2       16.5570   15.3350   20.5700 C.ar   62  TYR62      -0.0009
     95  CE1       14.8620   17.3990   19.8950 C.ar   62  TYR62       0.0417
     96  CE2       17.0200   16.3810   19.7830 C.ar   62  TYR62       0.0417
     97  CZ        16.1620   17.4040   19.4430 C.ar   62  TYR62       0.1957
     98  OH        16.5330   18.4410   18.6510 O.3    62  TYR62      -0.2866
     99  N         19.3100   12.4800   13.6630 N.3    72  VAL72      -0.1245
    100  CA        18.8930   13.8220   13.2690 C.3    72  VAL72       0.1561
    101  C         20.1090   14.6350   12.8230 C.2    72  VAL72       0.2260
    102  O         21.2420   14.3000   13.1890 O.2    72  VAL72      -0.2867
    103  CB        18.1340   14.5240   14.4020 C.3    72  VAL72       0.0252
    104  CG1       16.9390   13.6790   14.8660 C.3    72  VAL72       0.0019
    105  CG2       19.0070   14.9440   15.5700 C.3    72  VAL72       0.0019
    106  N         21.9620   18.4550   13.1900 N.3    74  TYR74      -0.1241
    107  CA        21.9550   19.6710   14.0080 C.3    74  TYR74       0.1605
    108  C         22.7040   20.7890   13.2860 C.2    74  TYR74       0.2264
    109  O         23.5710   20.5180   12.4500 O.2    74  TYR74      -0.2867
    110  CB        22.5820   19.4170   15.3770 C.3    74  TYR74       0.0534
    111  CG        24.0660   19.1710   15.3680 C.ar   74  TYR74      -0.0201
    112  CD1       24.9360   20.2380   15.4650 C.ar   74  TYR74      -0.0009
    113  CD2       24.6030   17.8960   15.2800 C.ar   74  TYR74      -0.0009
    114  CE1       26.3090   20.0460   15.4470 C.ar   74  TYR74       0.0417
    115  CE2       25.9770   17.6900   15.2630 C.ar   74  TYR74       0.0417
    116  CZ        26.8340   18.7700   15.3660 C.ar   74  TYR74       0.1957
    117  OH        28.2020   18.6630   15.3720 O.3    74  TYR74      -0.2866
    118  N         24.5830   24.2910   14.8070 N.3    76  TYR76      -0.1241
    119  CA        24.9670   25.1020   15.9350 C.3    76  TYR76       0.1605
    120  C         25.7820   26.3310   15.4960 C.2    76  TYR76       0.2264
    121  O         26.7930   26.2350   14.7720 O.2    76  TYR76      -0.2867
    122  CB        25.7700   24.2730   16.9440 C.3    76  TYR76       0.0534
    123  CG        26.3920   25.1440   18.0040 C.ar   76  TYR76      -0.0201
    124  CD1       25.6170   25.6930   19.0070 C.ar   76  TYR76      -0.0009
    125  CD2       27.7580   25.4260   18.0010 C.ar   76  TYR76      -0.0009
    126  CE1       26.1520   26.5390   19.9610 C.ar   76  TYR76       0.0417
    127  CE2       28.3180   26.2370   18.9700 C.ar   76  TYR76       0.0417
    128  CZ        27.5150   26.7960   19.9480 C.ar   76  TYR76       0.1957
    129  OH        28.0350   27.6080   20.9120 O.3    76  TYR76      -0.2866
    130  N         16.5370   20.9110   20.7480 N.3   111  SER111     -0.1217
    131  CA        17.2880   20.1100   21.6200 C.3   111  SER111      0.1889
    132  C         17.2510   20.6930   23.0320 C.2   111  SER111      0.2288
    133  O         17.3450   21.8980   23.2510 O.2   111  SER111     -0.2866
    134  CB        18.7100   19.9930   21.1230 C.3   111  SER111      0.2089
    135  OG        19.1630   21.2940   20.7970 O.3   111  SER111     -0.2183
    136  N         24.5640   18.8320   26.9180 N.3   115  PHE115     -0.1241
    137  CA        25.4990   18.1950   25.9560 C.3   115  PHE115      0.1605
    138  C         26.9090   18.5210   26.4390 C.2   115  PHE115      0.2264
    139  O         27.2080   19.6930   26.6850 O.2   115  PHE115     -0.2867
    140  CB        25.3620   18.7170   24.5150 C.3   115  PHE115      0.0534
    141  CG        26.2870   18.1000   23.4870 C.ar  115  PHE115     -0.0203
    142  CD1       25.9420   16.9270   22.8340 C.ar  115  PHE115     -0.0042
    143  CD2       27.4960   18.6850   23.1440 C.ar  115  PHE115     -0.0042
    144  CE1       26.7760   16.3420   21.8910 C.ar  115  PHE115     -0.0003
    145  CE2       28.3310   18.1060   22.1960 C.ar  115  PHE115     -0.0003
    146  CZ        27.9730   16.9350   21.5690 C.ar  115  PHE115     -0.0000
    147  N         21.2030   23.1110   27.0050 N.3   120  LEU120     -0.1245
    148  CA        20.7240   23.4150   25.6580 C.3   120  LEU120      0.1561
    149  C         19.3730   24.1200   25.7770 C.2   120  LEU120      0.2260
    150  O         18.6860   24.2320   24.7760 O.2   120  LEU120     -0.2867
    151  CB        20.5620   22.1400   24.8260 C.3   120  LEU120      0.0270
    152  CG        21.8310   21.3580   24.4860 C.3   120  LEU120      0.0019
    153  CD1       22.4210   20.7610   25.7360 C.3   120  LEU120      0.0001
    154  CD2       21.5340   20.2120   23.5250 C.3   120  LEU120      0.0001
    155  N         20.3380   28.7490   23.9730 N.3   183  PHE183     -0.1241
    156  CA        21.3030   27.9490   23.2420 C.3   183  PHE183      0.1605
    157  C         20.9580   27.9640   21.7500 C.2   183  PHE183      0.2264
    158  O         19.7940   27.7690   21.3340 O.2   183  PHE183     -0.2867
    159  CB        21.2300   26.5060   23.7710 C.3   183  PHE183      0.0534
    160  CG        21.9970   25.5110   22.9490 C.ar  183  PHE183     -0.0203
    161  CD1       23.3840   25.4770   23.0080 C.ar  183  PHE183     -0.0042
    162  CD2       21.3560   24.6440   22.0810 C.ar  183  PHE183     -0.0042
    163  CE1       24.0930   24.6010   22.2090 C.ar  183  PHE183     -0.0003
    164  CE2       22.0670   23.7640   21.2870 C.ar  183  PHE183     -0.0003
    165  CZ        23.4460   23.7700   21.3230 C.ar  183  PHE183     -0.0000
    166  N         21.4300   26.0810   18.9910 N.3   185  GLY185     -0.1225
    167  CA        21.3670   24.8780   18.1840 C.3   185  GLY185      0.1811
    168  C         19.9190   24.5150   17.8280 C.2   185  GLY185      0.2280
    169  O         19.0260   24.6790   18.6500 O.2   185  GLY185     -0.2866
    170  N         17.7500   21.4400   15.3350 N.3   187  ASP187     -0.1239
    171  CA        17.9180   20.1540   14.6820 C.3   187  ASP187      0.1674
    172  C         16.8120   19.9160   13.6470 C.2   187  ASP187      0.2266
    173  O         15.8190   20.5930   13.6810 O.2   187  ASP187     -0.2867
    174  CB        17.9010   19.0150   15.7030 C.3   187  ASP187      0.1410
    175  CG        18.9660   19.0730   16.7870 C.2   187  ASP187      0.3668
    176  OD1       19.9800   19.8120   16.6280 O.co2 187  ASP187     -0.2456
    177  OD2       18.7730   18.3570   17.8110 O.co2 187  ASP187     -0.2456
@<TRIPOS>BOND
     1    28    27    2
     2    27    26    1
     3   109   108    2
     4   101   102    2
     5   101   100    1
     6    46    47    2
     7    46    45    1
     8   106   107    1
     9   100    99    1
    10   100   103    1
    11   108   107    1
    12    26    25    1
    13    26    29    1
    14   172   173    2
    15   172   171    1
    16    45    44    1
    17    45    48    1
    18    30    29    1
    19    30    32    1
    20   107   110    1
    21    29    31    1
    22   103   104    1
    23   103   105    1
    24    52    53    1
    25   171   170    1
    26   171   174    1
    27    50    49    2
    28   121   120    2
    29   118   119    1
    30    48    49    1
    31   115   113   ar
    32   115   116   ar
    33   113   111   ar
    34   116   117    1
    35   116   114   ar
    36   111   110    1
    37   111   112   ar
    38   114   112   ar
    39    49    51   am
    40   120   119    1
    41    55    54    2
    42   174   175    1
    43   119   122    1
    44    53    54    1
    45    15    16    2
    46    15    14    1
    47    54    56   am
    48   176   175   ar
    49   175   177   ar
    50    14    13    1
    51    14    17    1
    52    56    57    1
    53   122   123    1
    54    57    60    1
    55    57    58    1
    56    62    64   ar
    57    62    61   ar
    58    60    61    1
    59    13     3   am
    60    64    66   ar
    61    17    18    1
    62   168   167    1
    63   168   169    2
    64     4     3    2
    65   125   123   ar
    66   125   127   ar
    67   123   124   ar
    68    20    18   ar
    69    20    22   ar
    70    68    58   am
    71    68    69    1
    72    61    63   ar
    73     3     2    1
    74   167   166    1
    75    73    72    1
    76    58    59    2
    77    72    69    1
    78    72    74    1
    79    71    70    2
    80    18    19   ar
    81    98    97    1
    82    22    23   ar
    83     2     1    1
    84     2     5    1
    85   127   128   ar
    86    69    70    1
    87    33    34    1
    88   124   126   ar
    89    66    67    1
    90    66    65   ar
    91    63    65   ar
    92    97    96   ar
    93    97    95   ar
    94    19    21   ar
    95    96    94   ar
    96    36    35    2
    97    23    21   ar
    98    23    24    1
    99    34    35    1
   100    34    37    1
   101    95    93   ar
   102   128   126   ar
   103   128   129    1
   104     5     6    1
   105    94    92   ar
   106    93    92   ar
   107   130   131    1
   108   135   134    1
   109    92    91    1
   110   134   131    1
   111     6     8   ar
   112     6     7   ar
   113    37    38    1
   114   164   165   ar
   115   164   162   ar
   116   165   163   ar
   117   158   157    2
   118     8    10   ar
   119   146   144   ar
   120   146   145   ar
   121   131   132    1
   122   157   156    1
   123   144   142   ar
   124     7     9   ar
   125    91    88    1
   126   162   160   ar
   127   145   143   ar
   128   163   161   ar
   129    10    11   ar
   130    38    39    1
   131    82    84   ar
   132    82    80   ar
   133     9    11   ar
   134   142   141   ar
   135    84    85   ar
   136   160   161   ar
   137   160   159    1
   138    11    12    1
   139   132   133    2
   140   143   141   ar
   141    79    80    1
   142    79    76    1
   143   156   159    1
   144   156   155    1
   145    80    81   ar
   146    88    87    1
   147    88    89    1
   148   141   140    1
   149   154   152    1
   150    39    40    1
   151    78    77    2
   152    85    86    1
   153    85    83   ar
   154    87    77   am
   155    77    76    1
   156    89    90    2
   157    76    75    1
   158    81    83   ar
   159   152   151    1
   160   152   153    1
   161   140   137    1
   162   150   149    2
   163    40    41    2
   164   151   148    1
   165    43    41    1
   166    41    42    1
   167   148   149    1
   168   148   147    1
   169   137   138    1
   170   137   136    1
   171   138   139    2
