@<TRIPOS>MOLECULE
tmp/6a9tA00.pdb
 126 122 0 0 0
SMALL
GASTEIGER

@<TRIPOS>ATOM
      1  N         -5.7440  -34.3110   -9.5900 N.3   214  TYR214     -0.1227
      2  CA        -4.8300  -35.3970   -9.9140 C.3   214  TYR214      0.1736
      3  C         -3.4660  -35.0560   -9.3320 C.2   214  TYR214      0.2595
      4  O         -3.2330  -33.9400   -8.8610 O.2   214  TYR214     -0.2718
      5  CB        -4.7460  -35.6230  -11.4300 C.3   214  TYR214      0.0548
      6  CG        -4.5620  -34.3470  -12.2250 C.ar  214  TYR214     -0.0200
      7  CD1       -5.6580  -33.6260  -12.6790 C.ar  214  TYR214     -0.0009
      8  CD2       -3.2940  -33.8590  -12.5130 C.ar  214  TYR214     -0.0009
      9  CE1       -5.5000  -32.4560  -13.3970 C.ar  214  TYR214      0.0417
     10  CE2       -3.1240  -32.6870  -13.2320 C.ar  214  TYR214      0.0417
     11  CZ        -4.2320  -31.9910  -13.6720 C.ar  214  TYR214      0.1957
     12  OH        -4.0680  -30.8270  -14.3870 O.3   214  TYR214     -0.2866
     13  N         -2.5670  -36.0350   -9.3620 N.am  215  ILE215     -0.1980
     14  CA        -1.1940  -35.8250   -8.9090 C.3   215  ILE215      0.1595
     15  C         -0.5240  -34.8560   -9.8760 C.2   215  ILE215      0.2287
     16  O         -0.4770  -35.1190  -11.0870 O.2   215  ILE215     -0.2864
     17  CB        -0.4240  -37.1500   -8.8030 C.3   215  ILE215      0.0276
     18  CG1       -1.0150  -38.0150   -7.6870 C.3   215  ILE215      0.0022
     19  CG2        1.0530  -36.8890   -8.5500 C.3   215  ILE215      0.0022
     20  CD1       -0.2950  -39.3280   -7.4830 C.3   215  ILE215      0.0001
     21  N          2.0440  -32.3700  -12.0690 N.3   217  VAL217     -0.1245
     22  CA         3.3400  -32.3820  -12.7340 C.3   217  VAL217      0.1561
     23  C          3.9320  -30.9860  -12.6250 C.2   217  VAL217      0.2260
     24  O          3.3050  -30.0060  -13.0440 O.2   217  VAL217     -0.2867
     25  CB         3.2160  -32.8120  -14.2040 C.3   217  VAL217      0.0252
     26  CG1        4.5670  -32.7120  -14.9060 C.3   217  VAL217      0.0019
     27  CG2        2.6630  -34.2200  -14.2980 C.3   217  VAL217      0.0019
     28  N          7.2130  -37.5750  -19.3940 N.3   227  ILE227     -0.1231
     29  CA         5.7850  -37.3000  -19.5220 C.3   227  ILE227      0.1692
     30  C          5.0640  -37.5200  -18.1960 C.2   227  ILE227      0.2592
     31  O          4.1140  -36.8000  -17.8650 O.2   227  ILE227     -0.2718
     32  CB         5.1850  -38.1600  -20.6510 C.3   227  ILE227      0.0266
     33  CG1        5.9070  -37.8850  -21.9680 C.3   227  ILE227      0.0019
     34  CG2        3.7040  -37.8840  -20.8080 C.3   227  ILE227      0.0020
     35  CD1        5.7400  -36.4630  -22.4670 C.3   227  ILE227      0.0001
     36  N          5.5080  -38.5020  -17.4110 N.am  228  HIS228     -0.1976
     37  CA         4.8670  -38.8570  -16.1490 C.3   228  HIS228      0.1656
     38  C          5.6800  -38.3980  -14.9400 C.2   228  HIS228      0.2291
     39  O          5.6500  -39.0360  -13.8860 O.2   228  HIS228     -0.2864
     40  CB         4.6200  -40.3640  -16.0870 C.3   228  HIS228      0.0771
     41  CG         3.8670  -40.9010  -17.2660 C.ar  228  HIS228      0.0820
     42  ND1        2.5530  -40.5730  -17.5220 N.ar  228  HIS228     -0.2267
     43  CD2        4.2420  -41.7480  -18.2540 C.ar  228  HIS228      0.1154
     44  CE1        2.1520  -41.1920  -18.6190 C.ar  228  HIS228      0.1986
     45  NE2        3.1580  -41.9110  -19.0820 N.ar  228  HIS228     -0.2212
     46  N          6.5190  -36.6760  -11.6570 N.3   230  THR230     -0.1218
     47  CA         5.7510  -36.1900  -10.5180 C.3   230  THR230      0.1862
     48  C          6.5900  -35.9030   -9.2790 C.2   230  THR230      0.2287
     49  O          6.0230  -35.5070   -8.2540 O.2   230  THR230     -0.2866
     50  CB         4.6490  -37.1930  -10.1320 C.3   230  THR230      0.1770
     51  OG1        5.2440  -38.4510   -9.7890 O.3   230  THR230     -0.2211
     52  CG2        3.6610  -37.3910  -11.2760 C.3   230  THR230      0.0375
     53  N          1.3980  -29.3550  -14.9780 N.3   245  ASP245     -0.1239
     54  CA         0.0890  -29.9550  -15.2050 C.3   245  ASP245      0.1674
     55  C         -0.5560  -30.1390  -13.8380 C.2   245  ASP245      0.2266
     56  O         -0.1810  -31.0470  -13.0880 O.2   245  ASP245     -0.2867
     57  CB         0.2100  -31.2850  -15.9520 C.3   245  ASP245      0.1410
     58  CG        -1.1150  -31.7580  -16.5260 C.2   245  ASP245      0.3668
     59  OD1       -2.1730  -31.2930  -16.0550 O.co2 245  ASP245     -0.2456
     60  OD2       -1.0980  -32.5980  -17.4510 O.co2 245  ASP245     -0.2456
     61  N          1.7540  -38.4540  -27.3460 N.3   331  HIS331     -0.1226
     62  CA         0.5500  -38.7850  -26.5980 C.3   331  HIS331      0.1752
     63  C         -0.6780  -38.2820  -27.3490 C.2   331  HIS331      0.2596
     64  O         -0.5780  -37.6400  -28.3990 O.2   331  HIS331     -0.2718
     65  CB         0.6020  -38.2120  -25.1760 C.3   331  HIS331      0.0759
     66  CG         0.8180  -36.7320  -25.1220 C.ar  331  HIS331      0.0818
     67  ND1       -0.1630  -35.8220  -25.4510 N.ar  331  HIS331     -0.2268
     68  CD2        1.9020  -36.0040  -24.7630 C.ar  331  HIS331      0.1154
     69  CE1        0.3080  -34.5970  -25.3020 C.ar  331  HIS331      0.1986
     70  NE2        1.5590  -34.6800  -24.8860 N.ar  331  HIS331     -0.2212
     71  N         -1.8480  -38.5860  -26.7940 N.am  332  TYR332     -0.1976
     72  CA        -3.1220  -38.2620  -27.4140 C.3   332  TYR332      0.1639
     73  C         -3.4320  -36.7740  -27.2600 C.2   332  TYR332      0.2290
     74  O         -2.8330  -36.0690  -26.4440 O.2   332  TYR332     -0.2864
     75  CB        -4.2380  -39.1090  -26.7980 C.3   332  TYR332      0.0560
     76  CG        -5.3100  -39.5500  -27.7710 C.ar  332  TYR332     -0.0198
     77  CD1       -5.0080  -40.3970  -28.8300 C.ar  332  TYR332     -0.0009
     78  CD2       -6.6270  -39.1390  -27.6160 C.ar  332  TYR332     -0.0009
     79  CE1       -5.9860  -40.8080  -29.7170 C.ar  332  TYR332      0.0417
     80  CE2       -7.6110  -39.5460  -28.4960 C.ar  332  TYR332      0.0417
     81  CZ        -7.2850  -40.3800  -29.5450 C.ar  332  TYR332      0.1957
     82  OH        -8.2630  -40.7870  -30.4230 O.3   332  TYR332     -0.2866
     83  N         -6.2010  -35.4550  -26.1750 N.3   334  GLY334     -0.1210
     84  CA        -6.9930  -35.1400  -25.0030 C.3   334  GLY334      0.1956
     85  C         -7.8770  -36.3070  -24.6160 C.2   334  GLY334      0.2611
     86  O         -7.6380  -37.4460  -25.0190 O.2   334  GLY334     -0.2717
     87  N         -8.9100  -35.9960  -23.8390 N.am  335  HIS335     -0.1975
     88  CA        -9.7440  -37.0150  -23.2180 C.3   335  HIS335      0.1656
     89  C        -10.9900  -36.3480  -22.6580 C.2   335  HIS335      0.2291
     90  O        -11.0020  -35.1420  -22.3960 O.2   335  HIS335     -0.2864
     91  CB        -8.9850  -37.7420  -22.1050 C.3   335  HIS335      0.0771
     92  CG        -8.3830  -36.8170  -21.0920 C.ar  335  HIS335      0.0820
     93  ND1       -9.1010  -36.3040  -20.0330 N.ar  335  HIS335     -0.2267
     94  CD2       -7.1380  -36.2930  -20.9920 C.ar  335  HIS335      0.1154
     95  CE1       -8.3210  -35.5150  -19.3170 C.ar  335  HIS335      0.1986
     96  NE2       -7.1250  -35.4910  -19.8770 N.ar  335  HIS335     -0.2212
     97  N         -9.5510  -38.7320  -16.4520 N.3   342  HIS342     -0.1241
     98  CA        -9.7580  -39.4370  -17.7140 C.3   342  HIS342      0.1621
     99  C        -11.1550  -40.0480  -17.6640 C.2   342  HIS342      0.2264
    100  O        -11.3510  -41.2410  -17.4190 O.2   342  HIS342     -0.2867
    101  CB        -8.6660  -40.4740  -17.9380 C.3   342  HIS342      0.0745
    102  CG        -7.3120  -39.8730  -18.1500 C.ar  342  HIS342      0.0817
    103  ND1       -6.1650  -40.6310  -18.2590 N.ar  342  HIS342     -0.2268
    104  CD2       -6.9220  -38.5820  -18.2760 C.ar  342  HIS342      0.1154
    105  CE1       -5.1280  -39.8320  -18.4410 C.ar  342  HIS342      0.1986
    106  NE2       -5.5600  -38.5840  -18.4550 N.ar  342  HIS342     -0.2212
    107  N         -4.7740  -30.8360  -25.4660 N.3   362  GLU362     -0.1245
    108  CA        -3.4630  -30.7290  -24.8230 C.3   362  GLU362      0.1567
    109  C         -2.3650  -31.3030  -25.7140 C.2   362  GLU362      0.2260
    110  O         -1.7350  -32.3100  -25.3790 O.2   362  GLU362     -0.2867
    111  CB        -3.4860  -31.4320  -23.4680 C.3   362  GLU362      0.0388
    112  CG        -4.1260  -32.8100  -23.4890 C.3   362  GLU362      0.1160
    113  CD        -4.0220  -33.5100  -22.1560 C.2   362  GLU362      0.3649
    114  OE1       -5.0160  -34.1300  -21.7280 O.co2 362  GLU362     -0.2457
    115  OE2       -2.9440  -33.4290  -21.5320 O.co2 362  GLU362     -0.2457
    116  N          3.6640  -28.3000  -22.9720 N.3   383  ARG383     -0.1245
    117  CA         2.2820  -28.7270  -23.1300 C.3   383  ARG383      0.1563
    118  C          1.3580  -27.5930  -22.7130 C.2   383  ARG383      0.2260
    119  O          1.6170  -26.8970  -21.7260 O.2   383  ARG383     -0.2867
    120  CB         1.9620  -29.9920  -22.3180 C.3   383  ARG383      0.0307
    121  CG         0.5360  -30.4900  -22.5390 C.3   383  ARG383      0.0489
    122  CD         0.3470  -31.9450  -22.1420 C.3   383  ARG383      0.2205
    123  NE         0.4330  -32.1480  -20.7010 N.pl3 383  ARG383     -0.0865
    124  CZ         1.4740  -32.7000  -20.0880 C.cat 383  ARG383      0.5346
    125  NH1        2.5210  -33.1090  -20.7920 N.pl3 383  ARG383      0.1354
    126  NH2        1.4660  -32.8490  -18.7710 N.pl3 383  ARG383      0.1354
@<TRIPOS>BOND
     1    82    81    1
     2    79    81   ar
     3    79    77   ar
     4    81    80   ar
     5    77    76   ar
     6    80    78   ar
     7    64    63    2
     8    76    78   ar
     9    76    75    1
    10    72    73    1
    11    72    75    1
    12    72    71    1
    13    63    71   am
    14    63    62    1
    15    61    62    1
    16    73    74    2
    17    62    65    1
    18    83    84    1
    19   109   110    2
    20   109   108    1
    21   107   108    1
    22    67    69   ar
    23    67    66   ar
    24    69    70   ar
    25    65    66    1
    26    66    68   ar
    27    86    85    2
    28    84    85    1
    29    70    68   ar
    30   108   111    1
    31    85    87   am
    32    87    88    1
    33   112   111    1
    34   112   113    1
    35    88    89    1
    36    88    91    1
    37   117   116    1
    38   117   118    1
    39   117   120    1
    40   118   119    2
    41    89    90    2
    42   121   120    1
    43   121   122    1
    44    35    33    1
    45   113   114   ar
    46   113   115   ar
    47   122   123    1
    48    91    92    1
    49    33    32    1
    50    92    94   ar
    51    92    93   ar
    52    94    96   ar
    53    34    32    1
    54   125   124    1
    55   123   124    2
    56    32    29    1
    57   124   126    1
    58    93    95   ar
    59    96    95   ar
    60    29    28    1
    61    29    30    1
    62    45    44   ar
    63    45    43   ar
    64    44    42   ar
    65   106   105   ar
    66   106   104   ar
    67   105   103   ar
    68   104   102   ar
    69   103   102   ar
    70    43    41   ar
    71    30    31    2
    72    30    36   am
    73   102   101    1
    74   101    98    1
    75    98    99    1
    76    98    97    1
    77    99   100    2
    78    42    41   ar
    79    60    58   ar
    80    36    37    1
    81    41    40    1
    82    58    59   ar
    83    58    57    1
    84    37    40    1
    85    37    38    1
    86    57    54    1
    87    54    53    1
    88    54    55    1
    89    38    39    2
    90    26    25    1
    91    12    11    1
    92    27    25    1
    93    25    22    1
    94    55    56    2
    95    11     9   ar
    96    11    10   ar
    97     9     7   ar
    98    10     8   ar
    99    24    23    2
   100    22    23    1
   101    22    21    1
   102     7     6   ar
   103     8     6   ar
   104     6     5    1
   105    46    47    1
   106     5     2    1
   107    52    50    1
   108    16    15    2
   109    47    50    1
   110    47    48    1
   111    50    51    1
   112     2     1    1
   113     2     3    1
   114    15    14    1
   115    13     3   am
   116    13    14    1
   117     3     4    2
   118    48    49    2
   119    14    17    1
   120    17    19    1
   121    17    18    1
   122    18    20    1
