@<TRIPOS>MOLECULE
tmp/6a9uA00.pdb
 168 162 0 0 0
SMALL
GASTEIGER

@<TRIPOS>ATOM
      1  N         -5.9300  -36.2630  -10.1680 N.3   203  TYR203     -0.1227
      2  CA        -5.0090  -37.3360  -10.5270 C.3   203  TYR203      0.1736
      3  C         -3.6280  -36.9710   -9.9960 C.2   203  TYR203      0.2595
      4  O         -3.3870  -35.8400   -9.5670 O.2   203  TYR203     -0.2718
      5  CB        -4.9720  -37.5690  -12.0460 C.3   203  TYR203      0.0548
      6  CG        -4.8200  -36.2970  -12.8650 C.ar  203  TYR203     -0.0200
      7  CD1       -3.5610  -35.7910  -13.1750 C.ar  203  TYR203     -0.0009
      8  CD2       -5.9350  -35.6080  -13.3330 C.ar  203  TYR203     -0.0009
      9  CE1       -3.4150  -34.6240  -13.9200 C.ar  203  TYR203      0.0417
     10  CE2       -5.8000  -34.4390  -14.0830 C.ar  203  TYR203      0.0417
     11  CZ        -4.5370  -33.9540  -14.3710 C.ar  203  TYR203      0.1957
     12  OH        -4.3980  -32.7980  -15.1060 O.3   203  TYR203     -0.2866
     13  N         -2.7240  -37.9430  -10.0320 N.am  204  ILE204     -0.1980
     14  CA        -1.3420  -37.7130   -9.5860 C.3   204  ILE204      0.1595
     15  C         -0.6080  -36.8730  -10.6320 C.2   204  ILE204      0.2287
     16  O         -0.6160  -37.2290  -11.8240 O.2   204  ILE204     -0.2864
     17  CB        -0.6370  -39.0500   -9.3450 C.3   204  ILE204      0.0276
     18  CG1       -1.3880  -39.8460   -8.2710 C.3   204  ILE204      0.0022
     19  CG2        0.8160  -38.8350   -8.9410 C.3   204  ILE204      0.0022
     20  CD1       -0.7840  -41.1950   -7.9580 C.3   204  ILE204      0.0001
     21  N          2.2410  -34.1790  -12.7640 N.3   206  VAL206     -0.1245
     22  CA         3.5390  -34.2140  -13.4370 C.3   206  VAL206      0.1561
     23  C          4.1850  -32.8340  -13.3400 C.2   206  VAL206      0.2260
     24  O          3.5740  -31.8310  -13.7290 O.2   206  VAL206     -0.2867
     25  CB         3.4000  -34.6310  -14.9140 C.3   206  VAL206      0.0252
     26  CG1        4.7570  -34.6060  -15.6090 C.3   206  VAL206      0.0019
     27  CG2        2.7580  -36.0050  -15.0370 C.3   206  VAL206      0.0019
     28  N          6.9490  -39.6610  -20.3580 N.3   216  ILE216     -0.1231
     29  CA         5.5230  -39.3580  -20.2980 C.3   216  ILE216      0.1692
     30  C          4.9250  -39.6400  -18.9230 C.2   216  ILE216      0.2592
     31  O          3.8990  -39.0480  -18.5670 O.2   216  ILE216     -0.2718
     32  CB         4.7760  -40.1420  -21.4000 C.3   216  ILE216      0.0266
     33  CG1        5.4600  -39.9470  -22.7570 C.3   216  ILE216      0.0019
     34  CG2        3.3200  -39.7060  -21.4970 C.3   216  ILE216      0.0020
     35  CD1        5.2170  -38.5920  -23.3910 C.3   216  ILE216      0.0001
     36  N          5.5490  -40.5060  -18.1210 N.am  217  HIS217     -0.1976
     37  CA         5.0020  -40.9040  -16.8280 C.3   217  HIS217      0.1656
     38  C          5.8870  -40.4720  -15.6580 C.2   217  HIS217      0.2291
     39  O          5.9620  -41.1700  -14.6440 O.2   217  HIS217     -0.2864
     40  CB         4.7730  -42.4150  -16.7890 C.3   217  HIS217      0.0771
     41  CG         3.6780  -42.8840  -17.6960 C.ar  217  HIS217      0.0820
     42  ND1        2.3430  -42.7770  -17.3690 N.ar  217  HIS217     -0.2267
     43  CD2        3.7210  -43.4680  -18.9180 C.ar  217  HIS217      0.1154
     44  CE1        1.6100  -43.2710  -18.3520 C.ar  217  HIS217      0.1986
     45  NE2        2.4220  -43.6970  -19.3030 N.ar  217  HIS217     -0.2212
     46  N          6.9550  -38.7360  -12.3370 N.3   219  THR219     -0.1218
     47  CA         6.1400  -38.4790  -11.1490 C.3   219  THR219      0.1862
     48  C          6.9410  -38.0770   -9.9080 C.2   219  THR219      0.2287
     49  O          6.3620  -37.4720   -8.9970 O.2   219  THR219     -0.2866
     50  CB         5.2810  -39.7270  -10.8520 C.3   219  THR219      0.1770
     51  OG1        4.1420  -39.7420  -11.7190 O.3   219  THR219     -0.2211
     52  CG2        4.7980  -39.8080   -9.4130 C.3   219  THR219      0.0375
     53  N          1.2860  -30.9590  -15.6170 N.3   234  ASP234     -0.1239
     54  CA        -0.0350  -31.5390  -15.8760 C.3   234  ASP234      0.1674
     55  C         -0.7290  -31.8020  -14.5400 C.2   234  ASP234      0.2266
     56  O         -0.3420  -32.7250  -13.8160 O.2   234  ASP234     -0.2867
     57  CB         0.0950  -32.8350  -16.6850 C.3   234  ASP234      0.1410
     58  CG        -1.2240  -33.2850  -17.3090 C.2   234  ASP234      0.3668
     59  OD1       -2.2940  -32.8080  -16.8720 O.co2 234  ASP234     -0.2456
     60  OD2       -1.1870  -34.1240  -18.2400 O.co2 234  ASP234     -0.2456
     61  N         -8.8100  -31.2700  -16.1490 N.3   245  ASP245     -0.1239
     62  CA        -7.5600  -31.7850  -16.7240 C.3   245  ASP245      0.1674
     63  C         -6.8520  -30.7540  -17.6140 C.2   245  ASP245      0.2266
     64  O         -7.3910  -30.3700  -18.6580 O.2   245  ASP245     -0.2867
     65  CB        -7.8650  -33.0640  -17.5190 C.3   245  ASP245      0.1410
     66  CG        -6.6190  -33.8610  -17.8780 C.2   245  ASP245      0.3668
     67  OD1       -5.4900  -33.4280  -17.5620 O.co2 245  ASP245     -0.2456
     68  OD2       -6.7840  -34.9390  -18.4870 O.co2 245  ASP245     -0.2456
     69  N          4.0900  -39.5530  -30.2740 N.3   319  PRO319     -0.2102
     70  CA         3.7460  -40.9750  -30.1670 C.3   319  PRO319      0.1504
     71  C          2.5530  -41.2920  -29.2760 C.2   319  PRO319      0.2576
     72  O          2.5320  -42.3600  -28.6570 O.2   319  PRO319     -0.2718
     73  CB         5.0280  -41.5670  -29.5760 C.3   319  PRO319      0.0282
     74  CG         5.4950  -40.4700  -28.6230 C.3   319  PRO319      0.0208
     75  CD         4.9730  -39.1370  -29.1700 C.3   319  PRO319      0.0893
     76  N          1.5610  -40.4070  -29.1850 N.am  320  HIS320     -0.1962
     77  CA         0.3910  -40.6950  -28.3650 C.3   320  HIS320      0.1787
     78  C         -0.8670  -40.1370  -29.0290 C.2   320  HIS320      0.2620
     79  O         -0.8040  -39.4250  -30.0350 O.2   320  HIS320     -0.2715
     80  CB         0.5810  -40.1890  -26.9140 C.3   320  HIS320      0.0785
     81  CG         0.7440  -38.7060  -26.7680 C.ar  320  HIS320      0.0821
     82  ND1       -0.2770  -37.8110  -27.0060 N.ar  320  HIS320     -0.2267
     83  CD2        1.8020  -37.9660  -26.3510 C.ar  320  HIS320      0.1154
     84  CE1        0.1530  -36.5830  -26.7700 C.ar  320  HIS320      0.1986
     85  NE2        1.4110  -36.6500  -26.3720 N.ar  320  HIS320     -0.2212
     86  N         -2.0230  -40.5060  -28.4670 N.am  321  TYR321     -0.1974
     87  CA        -3.3400  -40.1910  -29.0090 C.3   321  TYR321      0.1639
     88  C         -3.6910  -38.7210  -28.7670 C.2   321  TYR321      0.2290
     89  O         -2.9760  -37.9880  -28.0810 O.2   321  TYR321     -0.2864
     90  CB        -4.4010  -41.1070  -28.3930 C.3   321  TYR321      0.0560
     91  CG        -5.5230  -41.5260  -29.3300 C.ar  321  TYR321     -0.0198
     92  CD1       -5.2590  -42.2620  -30.4820 C.ar  321  TYR321     -0.0009
     93  CD2       -6.8470  -41.2070  -29.0500 C.ar  321  TYR321     -0.0009
     94  CE1       -6.2810  -42.6540  -31.3360 C.ar  321  TYR321      0.0417
     95  CE2       -7.8780  -41.5940  -29.8980 C.ar  321  TYR321      0.0417
     96  CZ        -7.5880  -42.3170  -31.0400 C.ar  321  TYR321      0.1957
     97  OH        -8.6090  -42.7040  -31.8830 O.3   321  TYR321     -0.2866
     98  N         -6.8000  -37.4100  -27.5040 N.3   323  GLY323     -0.1210
     99  CA        -7.6620  -37.0470  -26.3850 C.3   323  GLY323      0.1956
    100  C         -8.5310  -38.1930  -25.9100 C.2   323  GLY323      0.2611
    101  O         -8.2920  -39.3520  -26.2570 O.2   323  GLY323     -0.2717
    102  N         -9.5510  -37.8560  -25.1130 N.am  324  HIS324     -0.1975
    103  CA       -10.4170  -38.8480  -24.4740 C.3   324  HIS324      0.1656
    104  C        -11.6580  -38.1640  -23.8960 C.2   324  HIS324      0.2291
    105  O        -11.7000  -36.9400  -23.7370 O.2   324  HIS324     -0.2864
    106  CB        -9.6630  -39.6090  -23.3750 C.3   324  HIS324      0.0771
    107  CG        -9.0100  -38.7130  -22.3640 C.ar  324  HIS324      0.0820
    108  ND1       -9.6400  -38.3130  -21.2050 N.ar  324  HIS324     -0.2267
    109  CD2       -7.7890  -38.1270  -22.3490 C.ar  324  HIS324      0.1154
    110  CE1       -8.8330  -37.5240  -20.5170 C.ar  324  HIS324      0.1986
    111  NE2       -7.7030  -37.3950  -21.1900 N.ar  324  HIS324     -0.2212
    112  N        -11.4330  -39.8910  -14.9490 N.3   330  VAL330     -0.1231
    113  CA       -10.5640  -39.1060  -15.8260 C.3   330  VAL330      0.1692
    114  C        -10.6240  -39.6450  -17.2520 C.2   330  VAL330      0.2592
    115  O        -10.8180  -38.8900  -18.2130 O.2   330  VAL330     -0.2718
    116  CB        -9.1210  -39.0800  -15.2890 C.3   330  VAL330      0.0266
    117  CG1       -8.2320  -38.2590  -16.2120 C.3   330  VAL330      0.0020
    118  CG2       -9.0850  -38.5070  -13.8840 C.3   330  VAL330      0.0020
    119  N        -10.4550  -40.9590  -17.4120 N.am  331  HIS331     -0.1976
    120  CA       -10.7040  -41.6300  -18.6880 C.3   331  HIS331      0.1656
    121  C        -12.1240  -42.1910  -18.6410 C.2   331  HIS331      0.2291
    122  O        -12.3560  -43.3640  -18.3480 O.2   331  HIS331     -0.2864
    123  CB        -9.6600  -42.7140  -18.9430 C.3   331  HIS331      0.0771
    124  CG        -8.2910  -42.1750  -19.2270 C.ar  331  HIS331      0.0820
    125  ND1       -7.1560  -42.9560  -19.1720 N.ar  331  HIS331     -0.2267
    126  CD2       -7.8750  -40.9320  -19.5680 C.ar  331  HIS331      0.1154
    127  CE1       -6.1010  -42.2180  -19.4670 C.ar  331  HIS331      0.1986
    128  NE2       -6.5100  -40.9860  -19.7120 N.ar  331  HIS331     -0.2212
    129  N        -15.2050  -45.4210  -30.4570 N.3   338  ARG338     -0.1245
    130  CA       -14.4060  -44.3170  -30.9720 C.3   338  ARG338      0.1563
    131  C        -14.7420  -43.9480  -32.4150 C.2   338  ARG338      0.2260
    132  O        -14.2480  -42.9240  -32.9020 O.2   338  ARG338     -0.2867
    133  CB       -12.9160  -44.6630  -30.9000 C.3   338  ARG338      0.0307
    134  CG       -12.3160  -44.7080  -29.5100 C.3   338  ARG338      0.0489
    135  CD       -10.8160  -44.9730  -29.5960 C.3   338  ARG338      0.2205
    136  NE       -10.1690  -44.9680  -28.2860 N.pl3 338  ARG338     -0.0865
    137  CZ        -8.8610  -45.1120  -28.0990 C.cat 338  ARG338      0.5346
    138  NH1       -8.0530  -45.2730  -29.1390 N.pl3 338  ARG338      0.1354
    139  NH2       -8.3570  -45.0970  -26.8710 N.pl3 338  ARG338      0.1354
    140  N         -5.0240  -32.5690  -26.8320 N.3   351  GLU351     -0.1245
    141  CA        -3.7010  -32.4610  -26.1980 C.3   351  GLU351      0.1567
    142  C         -2.5900  -33.0660  -27.0580 C.2   351  GLU351      0.2260
    143  O         -2.0040  -34.0970  -26.7060 O.2   351  GLU351     -0.2867
    144  CB        -3.7210  -33.1230  -24.8190 C.3   351  GLU351      0.0388
    145  CG        -4.3610  -34.5180  -24.7840 C.3   351  GLU351      0.1160
    146  CD        -4.2540  -35.1860  -23.4190 C.2   351  GLU351      0.3649
    147  OE1       -5.2200  -35.8670  -23.0120 O.co2 351  GLU351     -0.2457
    148  OE2       -3.2050  -35.0300  -22.7520 O.co2 351  GLU351     -0.2457
    149  N          3.6470  -29.7970  -24.3680 N.3   372  ARG372     -0.1245
    150  CA         2.2670  -30.2600  -24.5060 C.3   372  ARG372      0.1563
    151  C          1.3090  -29.1780  -24.0060 C.2   372  ARG372      0.2260
    152  O          1.6090  -28.4840  -23.0300 O.2   372  ARG372     -0.2867
    153  CB         2.0370  -31.5740  -23.7410 C.3   372  ARG372      0.0307
    154  CG         0.6400  -32.1770  -23.9240 C.3   372  ARG372      0.0489
    155  CD         0.5840  -33.6560  -23.5430 C.3   372  ARG372      0.2205
    156  NE         0.4610  -33.8690  -22.1010 N.pl3 372  ARG372     -0.0865
    157  CZ         1.3420  -34.5400  -21.3600 C.cat 372  ARG372      0.5346
    158  NH1        2.4250  -35.0720  -21.9190 N.pl3 372  ARG372      0.1354
    159  NH2        1.1420  -34.6820  -20.0560 N.pl3 372  ARG372      0.1354
    160  N         -3.0940  -28.5140  -23.4400 N.3   374  GLU374     -0.1245
    161  CA        -4.3380  -29.2820  -23.3330 C.3   374  GLU374      0.1567
    162  C         -5.4630  -28.4420  -22.7240 C.2   374  GLU374      0.2260
    163  O         -5.2230  -27.6510  -21.8080 O.2   374  GLU374     -0.2867
    164  CB        -4.1000  -30.5590  -22.5010 C.3   374  GLU374      0.0388
    165  CG        -5.3110  -31.1480  -21.7450 C.3   374  GLU374      0.1160
    166  CD        -4.9870  -32.4830  -21.0590 C.2   374  GLU374      0.3649
    167  OE1       -5.7830  -33.4470  -21.1750 O.co2 374  GLU374     -0.2457
    168  OE2       -3.9180  -32.5740  -20.4150 O.co2 374  GLU374     -0.2457
@<TRIPOS>BOND
     1   132   131    2
     2   131   130    1
     3    97    96    1
     4    94    96   ar
     5    94    92   ar
     6    96    95   ar
     7   130   133    1
     8   130   129    1
     9   133   134    1
    10    92    91   ar
    11    69    70    1
    12    69    75    1
    13    70    73    1
    14    70    71    1
    15    79    78    2
    16    95    93   ar
    17   135   134    1
    18   135   136    1
    19    73    74    1
    20    91    93   ar
    21    91    90    1
    22    71    76   am
    23    71    72    2
    24    76    77    1
    25    75    74    1
    26   138   137    1
    27    78    86   am
    28    78    77    1
    29    87    88    1
    30    87    86    1
    31    87    90    1
    32    88    89    2
    33    77    80    1
    34   136   137    2
    35   137   139    1
    36    98    99    1
    37   142   143    2
    38   142   141    1
    39    82    84   ar
    40    82    81   ar
    41    80    81    1
    42   140   141    1
    43    84    85   ar
    44    81    83   ar
    45    99   100    1
    46    85    83   ar
    47   101   100    2
    48   141   144    1
    49   100   102   am
    50   102   103    1
    51   144   145    1
    52   145   146    1
    53   150   149    1
    54   150   151    1
    55   150   153    1
    56   103   104    1
    57   103   106    1
    58   151   152    2
    59   154   153    1
    60   154   155    1
    61   104   105    2
    62   155   156    1
    63   160   161    1
    64   146   147   ar
    65   146   148   ar
    66    35    33    1
    67   106   107    1
    68   161   162    1
    69   161   164    1
    70    33    32    1
    71   162   163    2
    72   164   165    1
    73   107   109   ar
    74   107   108   ar
    75   109   111   ar
    76   156   157    2
    77   158   157    1
    78   165   166    1
    79    34    32    1
    80    32    29    1
    81   157   159    1
    82   108   110   ar
    83   111   110   ar
    84   167   166   ar
    85   166   168   ar
    86    28    29    1
    87    29    30    1
    88   128   126   ar
    89   128   127   ar
    90   126   124   ar
    91   127   125   ar
    92    45    43   ar
    93    45    44   ar
    94   124   125   ar
    95   124   123    1
    96   123   120    1
    97    30    31    2
    98    30    36   am
    99    43    41   ar
   100   120   121    1
   101   120   119    1
   102    64    63    2
   103   121   122    2
   104    68    66   ar
   105    44    42   ar
   106    60    58   ar
   107   115   114    2
   108    36    37    1
   109    66    67   ar
   110    66    65    1
   111    41    42   ar
   112    41    40    1
   113    63    62    1
   114    65    62    1
   115   119   114   am
   116    58    59   ar
   117    58    57    1
   118   114   113    1
   119    37    40    1
   120    37    38    1
   121    62    61    1
   122    57    54    1
   123   117   116    1
   124    54    53    1
   125    54    55    1
   126   113   116    1
   127   113   112    1
   128    38    39    2
   129    26    25    1
   130   116   118    1
   131    12    11    1
   132    27    25    1
   133    25    22    1
   134    55    56    2
   135    11    10   ar
   136    11     9   ar
   137    10     8   ar
   138     9     7   ar
   139    24    23    2
   140    22    23    1
   141    22    21    1
   142     8     6   ar
   143     7     6   ar
   144     6     5    1
   145    46    47    1
   146     5     2    1
   147    16    15    2
   148    51    50    1
   149    47    50    1
   150    47    48    1
   151    50    52    1
   152    15    14    1
   153     2     1    1
   154     2     3    1
   155    13     3   am
   156    13    14    1
   157     3     4    2
   158    48    49    2
   159    14    17    1
   160    17    19    1
   161    17    18    1
   162    18    20    1
