@<TRIPOS>MOLECULE
tmp/6a9vA00.pdb
 99 96 0 0 0
SMALL
GASTEIGER

@<TRIPOS>ATOM
      1  N          2.1740  -32.5130  -12.1180 N.3   194  VAL194     -0.1245
      2  CA         3.4690  -32.5870  -12.7840 C.3   194  VAL194      0.1561
      3  C          4.0760  -31.1920  -12.7700 C.2   194  VAL194      0.2260
      4  O          3.4640  -30.2430  -13.2710 O.2   194  VAL194     -0.2867
      5  CB         3.3440  -33.1080  -14.2240 C.3   194  VAL194      0.0252
      6  CG1        4.7030  -33.1040  -14.9130 C.3   194  VAL194      0.0019
      7  CG2        2.7260  -34.4990  -14.2370 C.3   194  VAL194      0.0019
      8  N          7.3110  -37.8650  -19.5150 N.3   204  ILE204     -0.1231
      9  CA         5.8830  -37.5590  -19.5550 C.3   204  ILE204      0.1692
     10  C          5.2280  -37.8010  -18.2020 C.2   204  ILE204      0.2592
     11  O          4.2590  -37.1200  -17.8420 O.2   204  ILE204     -0.2718
     12  CB         5.2000  -38.3780  -20.6700 C.3   204  ILE204      0.0266
     13  CG1        5.9100  -38.1560  -22.0070 C.3   204  ILE204      0.0019
     14  CG2        3.7300  -38.0020  -20.7990 C.3   204  ILE204      0.0020
     15  CD1        5.8170  -36.7350  -22.5200 C.3   204  ILE204      0.0001
     16  N          5.7470  -38.7510  -17.4230 N.am  205  HIS205     -0.1976
     17  CA         5.1510  -39.1440  -16.1520 C.3   205  HIS205      0.1656
     18  C          5.9790  -38.6810  -14.9550 C.2   205  HIS205      0.2291
     19  O          6.0380  -39.3640  -13.9300 O.2   205  HIS205     -0.2864
     20  CB         4.9490  -40.6580  -16.1090 C.3   205  HIS205      0.0771
     21  CG         4.1470  -41.1900  -17.2550 C.ar  205  HIS205      0.0820
     22  ND1        2.8060  -40.9120  -17.4180 N.ar  205  HIS205     -0.2267
     23  CD2        4.4950  -41.9830  -18.2970 C.ar  205  HIS205      0.1154
     24  CE1        2.3640  -41.5100  -18.5100 C.ar  205  HIS205      0.1986
     25  NE2        3.3690  -42.1670  -19.0610 N.ar  205  HIS205     -0.2212
     26  N          1.3870  -29.5900  -15.0850 N.3   222  ASP222     -0.1239
     27  CA         0.0700  -30.1850  -15.2800 C.3   222  ASP222      0.1674
     28  C         -0.5550  -30.3520  -13.9000 C.2   222  ASP222      0.2266
     29  O         -0.1330  -31.2150  -13.1240 O.2   222  ASP222     -0.2867
     30  CB         0.1720  -31.5210  -16.0140 C.3   222  ASP222      0.1410
     31  CG        -1.1510  -31.9630  -16.6180 C.2   222  ASP222      0.3668
     32  OD1       -2.2140  -31.6510  -16.0400 O.co2 222  ASP222     -0.2456
     33  OD2       -1.1260  -32.6210  -17.6800 O.co2 222  ASP222     -0.2456
     34  N          1.7030  -38.7000  -27.5220 N.3   308  HIS308     -0.1226
     35  CA         0.4990  -39.0350  -26.7720 C.3   308  HIS308      0.1752
     36  C         -0.7220  -38.5050  -27.5140 C.2   308  HIS308      0.2596
     37  O         -0.6110  -37.8500  -28.5550 O.2   308  HIS308     -0.2718
     38  CB         0.5660  -38.5010  -25.3330 C.3   308  HIS308      0.0759
     39  CG         0.8290  -37.0310  -25.2380 C.ar  308  HIS308      0.0818
     40  ND1       -0.1040  -36.0820  -25.5950 N.ar  308  HIS308     -0.2268
     41  CD2        1.9190  -36.3470  -24.8160 C.ar  308  HIS308      0.1154
     42  CE1        0.4010  -34.8760  -25.4020 C.ar  308  HIS308      0.1986
     43  NE2        1.6280  -35.0090  -24.9300 N.ar  308  HIS308     -0.2212
     44  N         -1.8970  -38.8060  -26.9680 N.am  309  TYR309     -0.1976
     45  CA        -3.1660  -38.4740  -27.5940 C.3   309  TYR309      0.1639
     46  C         -3.4720  -36.9840  -27.4330 C.2   309  TYR309      0.2290
     47  O         -2.8330  -36.2690  -26.6570 O.2   309  TYR309     -0.2864
     48  CB        -4.2830  -39.3270  -26.9910 C.3   309  TYR309      0.0560
     49  CG        -5.3290  -39.7810  -27.9810 C.ar  309  TYR309     -0.0198
     50  CD1       -4.9920  -40.6050  -29.0470 C.ar  309  TYR309     -0.0009
     51  CD2       -6.6580  -39.4040  -27.8390 C.ar  309  TYR309     -0.0009
     52  CE1       -5.9450  -41.0280  -29.9520 C.ar  309  TYR309      0.0417
     53  CE2       -7.6200  -39.8240  -28.7380 C.ar  309  TYR309      0.0417
     54  CZ        -7.2580  -40.6360  -29.7920 C.ar  309  TYR309      0.1957
     55  OH        -8.2120  -41.0560  -30.6890 O.3   309  TYR309     -0.2866
     56  N         -6.2740  -35.6300  -26.2850 N.3   311  GLY311     -0.1210
     57  CA        -7.0230  -35.3100  -25.0880 C.3   311  GLY311      0.1956
     58  C         -7.8800  -36.4740  -24.6510 C.2   311  GLY311      0.2611
     59  O         -7.6660  -37.6150  -25.0650 O.2   311  GLY311     -0.2717
     60  N         -8.8670  -36.1650  -23.8130 N.am  312  HIS312     -0.1975
     61  CA        -9.6930  -37.1870  -23.1880 C.3   312  HIS312      0.1656
     62  C        -10.9640  -36.5440  -22.6550 C.2   312  HIS312      0.2291
     63  O        -11.0080  -35.3400  -22.3910 O.2   312  HIS312     -0.2864
     64  CB        -8.9370  -37.8880  -22.0560 C.3   312  HIS312      0.0771
     65  CG        -8.3230  -36.9430  -21.0700 C.ar  312  HIS312      0.0820
     66  ND1       -9.0240  -36.4150  -20.0070 N.ar  312  HIS312     -0.2267
     67  CD2       -7.0730  -36.4280  -20.9890 C.ar  312  HIS312      0.1154
     68  CE1       -8.2300  -35.6200  -19.3100 C.ar  312  HIS312      0.1986
     69  NE2       -7.0410  -35.6100  -19.8850 N.ar  312  HIS312     -0.2212
     70  N         -9.5220  -38.9990  -16.5900 N.3   319  HIS319     -0.1241
     71  CA        -9.8060  -39.6750  -17.8540 C.3   319  HIS319      0.1621
     72  C        -11.2130  -40.2540  -17.7450 C.2   319  HIS319      0.2264
     73  O        -11.4240  -41.4350  -17.4610 O.2   319  HIS319     -0.2867
     74  CB        -8.7580  -40.7400  -18.1460 C.3   319  HIS319      0.0745
     75  CG        -7.3700  -40.1950  -18.2810 C.ar  319  HIS319      0.0817
     76  ND1       -6.2740  -40.9980  -18.5200 N.ar  319  HIS319     -0.2268
     77  CD2       -6.8980  -38.9270  -18.2120 C.ar  319  HIS319      0.1154
     78  CE1       -5.1890  -40.2480  -18.5910 C.ar  319  HIS319      0.1986
     79  NE2       -5.5400  -38.9880  -18.4060 N.ar  319  HIS319     -0.2212
     80  N         -4.7890  -31.1370  -25.5310 N.3   339  GLU339     -0.1245
     81  CA        -3.4510  -31.0350  -24.9460 C.3   339  GLU339      0.1567
     82  C         -2.4030  -31.6170  -25.8850 C.2   339  GLU339      0.2260
     83  O         -1.8350  -32.6850  -25.6280 O.2   339  GLU339     -0.2867
     84  CB        -3.4110  -31.7300  -23.5830 C.3   339  GLU339      0.0388
     85  CG        -4.0710  -33.0980  -23.5520 C.3   339  GLU339      0.1160
     86  CD        -4.0140  -33.7360  -22.1820 C.2   339  GLU339      0.3649
     87  OE1       -5.0070  -34.3790  -21.7840 O.co2 339  GLU339     -0.2457
     88  OE2       -2.9810  -33.5840  -21.4990 O.co2 339  GLU339     -0.2457
     89  N          3.7520  -28.5040  -23.2300 N.3   360  ARG360     -0.1245
     90  CA         2.3750  -28.9530  -23.3810 C.3   360  ARG360      0.1563
     91  C          1.4320  -27.8540  -22.9160 C.2   360  ARG360      0.2260
     92  O          1.6800  -27.1980  -21.9010 O.2   360  ARG360     -0.2867
     93  CB         2.0990  -30.2490  -22.6000 C.3   360  ARG360      0.0307
     94  CG         0.6690  -30.7590  -22.7700 C.3   360  ARG360      0.0489
     95  CD         0.4830  -32.1870  -22.2780 C.3   360  ARG360      0.2205
     96  NE         0.5050  -32.2920  -20.8220 N.pl3 360  ARG360     -0.0865
     97  CZ         1.4820  -32.8700  -20.1310 C.cat 360  ARG360      0.5346
     98  NH1        2.5180  -33.4030  -20.7630 N.pl3 360  ARG360      0.1354
     99  NH2        1.4180  -32.9210  -18.8080 N.pl3 360  ARG360      0.1354
@<TRIPOS>BOND
     1    55    54    1
     2    52    54   ar
     3    52    50   ar
     4    54    53   ar
     5    50    49   ar
     6    53    51   ar
     7    37    36    2
     8    49    51   ar
     9    49    48    1
    10    45    46    1
    11    45    48    1
    12    45    44    1
    13    34    35    1
    14    36    44   am
    15    36    35    1
    16    46    47    2
    17    35    38    1
    18    56    57    1
    19    82    83    2
    20    82    81    1
    21    40    42   ar
    22    40    39   ar
    23    80    81    1
    24    42    43   ar
    25    38    39    1
    26    39    41   ar
    27    57    58    1
    28    59    58    2
    29    81    84    1
    30    43    41   ar
    31    58    60   am
    32    60    61    1
    33    84    85    1
    34    85    86    1
    35    90    89    1
    36    90    91    1
    37    90    93    1
    38    61    62    1
    39    61    64    1
    40    91    92    2
    41    94    93    1
    42    94    95    1
    43    62    63    2
    44    15    13    1
    45    95    96    1
    46    86    87   ar
    47    86    88   ar
    48    64    65    1
    49    13    12    1
    50    65    67   ar
    51    65    66   ar
    52    67    69   ar
    53    96    97    2
    54    14    12    1
    55    98    97    1
    56    12     9    1
    57    97    99    1
    58    66    68   ar
    59    69    68   ar
    60     9     8    1
    61     9    10    1
    62    25    24   ar
    63    25    23   ar
    64    78    76   ar
    65    78    79   ar
    66    76    75   ar
    67    24    22   ar
    68    79    77   ar
    69    23    21   ar
    70    75    77   ar
    71    75    74    1
    72    10    11    2
    73    10    16   am
    74    74    71    1
    75    71    72    1
    76    71    70    1
    77    72    73    2
    78    33    31   ar
    79    16    17    1
    80    22    21   ar
    81    21    20    1
    82    31    32   ar
    83    31    30    1
    84    17    20    1
    85    17    18    1
    86    30    27    1
    87    27    26    1
    88    27    28    1
    89    18    19    2
    90     6     5    1
    91     7     5    1
    92     5     2    1
    93    28    29    2
    94     4     3    2
    95     2     3    1
    96     2     1    1
