@<TRIPOS>MOLECULE
tmp/6aa4A00.pdb
 166 159 0 0 0
SMALL
GASTEIGER

@<TRIPOS>ATOM
      1  N         22.4770  -18.9230   10.1490 N.3     5  TYR5       -0.1227
      2  CA        22.2330  -19.0810   11.5750 C.3     5  TYR5        0.1736
      3  C         20.7410  -19.1970   11.8380 C.2     5  TYR5        0.2596
      4  O         19.9090  -18.8370   11.0010 O.2     5  TYR5       -0.2718
      5  CB        22.7480  -17.8840   12.3800 C.3     5  TYR5        0.0548
      6  CG        24.2350  -17.6660   12.3010 C.ar    5  TYR5       -0.0200
      7  CD1       24.8000  -17.0700   11.1860 C.ar    5  TYR5       -0.0009
      8  CD2       25.0730  -18.0380   13.3460 C.ar    5  TYR5       -0.0009
      9  CE1       26.1550  -16.8580   11.1040 C.ar    5  TYR5        0.0417
     10  CE2       26.4450  -17.8300   13.2690 C.ar    5  TYR5        0.0417
     11  CZ        26.9730  -17.2380   12.1390 C.ar    5  TYR5        0.1957
     12  OH        28.3290  -17.0100   12.0270 O.3     5  TYR5       -0.2866
     13  N         20.4100  -19.6820   13.0320 N.am    6  THR6       -0.1939
     14  CA        19.0340  -19.7180   13.4970 C.3     6  THR6        0.2028
     15  C         18.9100  -18.9780   14.8180 C.2     6  THR6        0.2642
     16  O         19.8800  -18.8420   15.5720 O.2     6  THR6       -0.2714
     17  CB        18.5510  -21.1470   13.7010 C.3     6  THR6        0.1808
     18  OG1       19.3500  -21.7740   14.7160 O.3     6  THR6       -0.2208
     19  CG2       18.6570  -21.9180   12.3980 C.3     6  THR6        0.0379
     20  N         17.7030  -18.4820   15.0790 N.am    7  LEU7       -0.1977
     21  CA        17.3700  -17.8760   16.3570 C.3     7  LEU7        0.1596
     22  C         15.9600  -18.3100   16.7170 C.2     7  LEU7        0.2287
     23  O         15.0410  -18.1370   15.9140 O.2     7  LEU7       -0.2864
     24  CB        17.4430  -16.3490   16.2540 C.3     7  LEU7        0.0297
     25  CG        17.2700  -15.6050   17.5720 C.3     7  LEU7        0.0022
     26  CD1       18.3760  -15.9860   18.5500 C.3     7  LEU7        0.0001
     27  CD2       17.2720  -14.1060   17.3160 C.3     7  LEU7        0.0001
     28  N         31.7160  -15.5370   23.7700 N.3    25  PHE25      -0.1241
     29  CA        31.1870  -14.4080   23.0220 C.3    25  PHE25       0.1605
     30  C         29.7900  -14.0500   23.5100 C.2    25  PHE25       0.2264
     31  O         28.9390  -14.9220   23.7100 O.2    25  PHE25      -0.2867
     32  CB        31.1370  -14.7640   21.5370 C.3    25  PHE25       0.0534
     33  CG        30.6270  -13.6570   20.6650 C.ar   25  PHE25      -0.0203
     34  CD1       31.4460  -12.5930   20.3280 C.ar   25  PHE25      -0.0042
     35  CD2       29.3330  -13.6840   20.1720 C.ar   25  PHE25      -0.0042
     36  CE1       30.9840  -11.5730   19.5230 C.ar   25  PHE25      -0.0003
     37  CE2       28.8660  -12.6670   19.3660 C.ar   25  PHE25      -0.0003
     38  CZ        29.6920  -11.6100   19.0410 C.ar   25  PHE25      -0.0000
     39  N         19.3670  -13.6200   25.2670 N.3    31  ASN31      -0.1225
     40  CA        19.0800  -13.7680   23.8440 C.3    31  ASN31       0.1785
     41  C         18.0890  -14.9080   23.6520 C.2    31  ASN31       0.2597
     42  O         17.8110  -15.6820   24.5700 O.2    31  ASN31      -0.2718
     43  CB        20.3610  -14.0290   23.0380 C.3    31  ASN31       0.1169
     44  CG        20.2430  -13.6000   21.5770 C.2    31  ASN31       0.2627
     45  OD1       19.1640  -13.2290   21.0960 O.2    31  ASN31      -0.2716
     46  ND2       21.3600  -13.6700   20.8540 N.am   31  ASN31      -0.0877
     47  N         17.5230  -14.9730   22.4540 N.am   32  GLY32      -0.1957
     48  CA        16.9040  -16.1950   21.9960 C.3    32  GLY32       0.1869
     49  C         17.9460  -17.2890   21.8630 C.2    32  GLY32       0.2309
     50  O         19.1460  -17.0800   22.0270 O.2    32  GLY32      -0.2863
     51  N         19.9800  -19.9390   19.6800 N.3    34  GLY34      -0.1210
     52  CA        20.3490  -20.1550   18.2990 C.3    34  GLY34       0.1956
     53  C         21.8360  -20.3540   18.1440 C.2    34  GLY34       0.2612
     54  O         22.5820  -20.4440   19.1200 O.2    34  GLY34      -0.2717
     55  N         22.2530  -20.4170   16.8870 N.am   35  GLY35      -0.1956
     56  CA        23.6500  -20.6250   16.5850 C.3    35  GLY35       0.1869
     57  C         23.8180  -20.9080   15.1080 C.2    35  GLY35       0.2309
     58  O         22.8770  -20.7830   14.3210 O.2    35  GLY35      -0.2863
     59  N         16.5720  -11.9770    9.6060 N.3    68  ILE68      -0.1245
     60  CA        17.4480  -10.8600    9.9250 C.3    68  ILE68       0.1561
     61  C         18.7670  -11.0540    9.1930 C.2    68  ILE68       0.2260
     62  O         19.3190  -12.1600    9.1710 O.2    68  ILE68      -0.2867
     63  CB        17.6910  -10.7300   11.4420 C.3    68  ILE68       0.0252
     64  CG1       16.3690  -10.6930   12.2090 C.3    68  ILE68       0.0019
     65  CG2       18.4940   -9.4800   11.7400 C.3    68  ILE68       0.0019
     66  CD1       16.5590  -10.5010   13.7150 C.3    68  ILE68       0.0001
     67  N         22.6210   -9.5170    9.3060 N.3    70  PHE70      -0.1241
     68  CA        23.5990   -8.7090   10.0230 C.3    70  PHE70       0.1605
     69  C         24.7760   -8.4310    9.0970 C.2    70  PHE70       0.2264
     70  O         25.2870   -9.3470    8.4470 O.2    70  PHE70      -0.2867
     71  CB        24.1280   -9.4410   11.2580 C.3    70  PHE70       0.0534
     72  CG        23.1230   -9.5950   12.3690 C.ar   70  PHE70      -0.0203
     73  CD1       22.1290   -8.6500   12.5710 C.ar   70  PHE70      -0.0042
     74  CD2       23.1860  -10.6880   13.2170 C.ar   70  PHE70      -0.0042
     75  CE1       21.2180   -8.7940   13.6090 C.ar   70  PHE70      -0.0003
     76  CE2       22.2790  -10.8440   14.2480 C.ar   70  PHE70      -0.0003
     77  CZ        21.2870   -9.8990   14.4420 C.ar   70  PHE70      -0.0000
     78  N         28.6420   -6.4210    9.3780 N.3    72  PHE72      -0.1241
     79  CA        29.6150   -5.8650   10.3090 C.3    72  PHE72       0.1605
     80  C         30.6830   -5.1210    9.5230 C.2    72  PHE72       0.2264
     81  O         31.2090   -5.6460    8.5360 O.2    72  PHE72      -0.2867
     82  CB        30.2640   -6.9750   11.1390 C.3    72  PHE72       0.0534
     83  CG        29.2960   -8.0140   11.6140 C.ar   72  PHE72      -0.0203
     84  CD1       28.4450   -7.7510   12.6710 C.ar   72  PHE72      -0.0042
     85  CD2       29.2300   -9.2520   10.9970 C.ar   72  PHE72      -0.0042
     86  CE1       27.5460   -8.7030   13.1060 C.ar   72  PHE72      -0.0003
     87  CE2       28.3340  -10.2090   11.4280 C.ar   72  PHE72      -0.0003
     88  CZ        27.4900   -9.9320   12.4870 C.ar   72  PHE72      -0.0000
     89  N         33.9580   -6.8290    8.1520 N.3    75  GLU75      -0.1245
     90  CA        33.6710   -8.2090    7.7790 C.3    75  GLU75       0.1567
     91  C         32.8670   -8.2170    6.4870 C.2    75  GLU75       0.2260
     92  O         31.7430   -7.6850    6.4620 O.2    75  GLU75      -0.2867
     93  CB        32.8940   -8.9160    8.8920 C.3    75  GLU75       0.0388
     94  CG        33.6140   -8.9540   10.2300 C.3    75  GLU75       0.1160
     95  CD        34.8410   -9.8490   10.2130 C.2    75  GLU75       0.3649
     96  OE1       34.9130  -10.7480    9.3460 O.co2  75  GLU75      -0.2457
     97  OE2       35.7340   -9.6510   11.0670 O.co2  75  GLU75      -0.2457
     98  N         25.6320  -12.2370    8.0950 N.3    79  MET79      -0.1245
     99  CA        24.9610  -13.3010    8.8270 C.3    79  MET79       0.1570
    100  C         23.5220  -13.3730    8.3330 C.2    79  MET79       0.2261
    101  O         22.8090  -12.3670    8.3430 O.2    79  MET79      -0.2867
    102  CB        24.9950  -13.0490   10.3370 C.3    79  MET79       0.0387
    103  CG        26.3710  -13.1820   10.9740 C.3    79  MET79       0.0595
    104  SD        26.3270  -13.0480   12.7830 S.3    79  MET79      -0.1393
    105  CE        25.0630  -14.2380   13.1880 C.3    79  MET79       0.0692
    106  N         20.1800  -14.8400    9.3190 N.3    81  VAL81      -0.1245
    107  CA        19.6180  -15.3510   10.5620 C.3    81  VAL81       0.1561
    108  C         18.1520  -15.6600   10.3110 C.2    81  VAL81       0.2260
    109  O         17.3470  -14.7480   10.0810 O.2    81  VAL81      -0.2867
    110  CB        19.7860  -14.3640   11.7260 C.3    81  VAL81       0.0252
    111  CG1       19.2190  -14.9640   13.0040 C.3    81  VAL81       0.0019
    112  CG2       21.2510  -13.9940   11.9130 C.3    81  VAL81       0.0019
    113  N         21.1230   -7.9030   22.9700 N.3   115  TRP115     -0.1241
    114  CA        21.7840   -7.3130   21.8160 C.3   115  TRP115      0.1605
    115  C         20.9550   -6.1370   21.3040 C.2   115  TRP115      0.2264
    116  O         19.7240   -6.1400   21.4180 O.2   115  TRP115     -0.2867
    117  CB        21.9840   -8.3480   20.7080 C.3   115  TRP115      0.0550
    118  CG        23.0180   -9.4010   21.0320 C.ar  115  TRP115      0.0003
    119  CD1       22.8050  -10.5960   21.6590 C.ar  115  TRP115      0.0946
    120  CD2       24.4210   -9.3500   20.7370 C.ar  115  TRP115      0.0152
    121  NE1       23.9870  -11.2880   21.7760 N.ar  115  TRP115     -0.2442
    122  CE2       24.9930  -10.5450   21.2160 C.ar  115  TRP115      0.0810
    123  CE3       25.2470   -8.4120   20.1110 C.ar  115  TRP115      0.0012
    124  CZ2       26.3540  -10.8220   21.0960 C.ar  115  TRP115      0.0191
    125  CZ3       26.5950   -8.6900   19.9910 C.ar  115  TRP115      0.0001
    126  CH2       27.1350   -9.8830   20.4820 C.ar  115  TRP115      0.0015
    127  N         19.9170   -4.9160   18.4650 N.3   117  ASP117     -0.1225
    128  CA        18.8520   -5.0500   17.4780 C.3   117  ASP117      0.1805
    129  C         17.5470   -5.5420   18.0950 C.2   117  ASP117      0.2597
    130  O         16.4820   -5.3000   17.5240 O.2   117  ASP117     -0.2718
    131  CB        19.2800   -5.9770   16.3390 C.3   117  ASP117      0.1424
    132  CG        19.7220   -7.3370   16.8360 C.2   117  ASP117      0.3668
    133  OD1       20.7350   -7.3980   17.5640 O.co2 117  ASP117     -0.2456
    134  OD2       19.0720   -8.3440   16.4890 O.co2 117  ASP117     -0.2456
    135  N         17.6050   -6.2200   19.2440 N.am  118  ASP118     -0.1974
    136  CA        16.3960   -6.8050   19.8240 C.3   118  ASP118      0.1709
    137  C         15.3270   -5.7520   20.1030 C.2   118  ASP118      0.2293
    138  O         14.1330   -6.0230   19.9470 O.2   118  ASP118     -0.2864
    139  CB        16.7420   -7.5860   21.0900 C.3   118  ASP118      0.1436
    140  CG        17.4650   -8.8810   20.7900 C.2   118  ASP118      0.3671
    141  OD1       17.9500   -9.0460   19.6520 O.co2 118  ASP118     -0.2456
    142  OD2       17.5510   -9.7340   21.6890 O.co2 118  ASP118     -0.2456
    143  N         26.2660   -3.2370   11.7950 N.3   137  PHE137     -0.1241
    144  CA        26.8520   -3.1100   13.1210 C.3   137  PHE137      0.1605
    145  C         28.2590   -2.5310   13.0360 C.2   137  PHE137      0.2264
    146  O         28.9800   -2.7410   12.0590 O.2   137  PHE137     -0.2867
    147  CB        26.9300   -4.4780   13.8060 C.3   137  PHE137      0.0534
    148  CG        25.6870   -4.8570   14.5680 C.ar  137  PHE137     -0.0203
    149  CD1       24.6070   -5.4320   13.9200 C.ar  137  PHE137     -0.0042
    150  CD2       25.6080   -4.6490   15.9360 C.ar  137  PHE137     -0.0042
    151  CE1       23.4640   -5.7850   14.6240 C.ar  137  PHE137     -0.0003
    152  CE2       24.4690   -5.0000   16.6440 C.ar  137  PHE137     -0.0003
    153  CZ        23.3960   -5.5680   15.9850 C.ar  137  PHE137     -0.0000
    154  N         31.1780   -2.9940   15.7670 N.3   139  GLY139     -0.1210
    155  CA        31.3440   -3.6310   17.0560 C.3   139  GLY139      0.1956
    156  C         30.0670   -4.3290   17.5290 C.2   139  GLY139      0.2611
    157  O         29.1120   -4.5430   16.7870 O.2   139  GLY139     -0.2717
    158  N         30.0990   -4.7170   18.8040 N.am  140  GLN140     -0.1979
    159  CA        28.9620   -5.4070   19.4070 C.3   140  GLN140      0.1601
    160  C         27.8570   -4.4650   19.8870 C.2   140  GLN140      0.2287
    161  O         26.6860   -4.8650   19.9240 O.2   140  GLN140     -0.2864
    162  CB        29.4440   -6.3390   20.5180 C.3   140  GLN140      0.0394
    163  CG        30.2710   -7.5040   19.9920 C.3   140  GLN140      0.0908
    164  CD        31.0520   -8.2250   21.0750 C.2   140  GLN140      0.2608
    165  OE1       32.2310   -8.5340   20.8980 O.2   140  GLN140     -0.2717
    166  NE2       30.3980   -8.5040   22.1990 N.am  140  GLN140     -0.0878
@<TRIPOS>BOND
     1    92    91    2
     2    91    90    1
     3    90    89    1
     4    90    93    1
     5    98    99    1
     6   100   101    2
     7   100    99    1
     8    70    69    2
     9    81    80    2
    10    99   102    1
    11    93    94    1
    12    69    68    1
    13    62    61    2
    14    61    60    1
    15    67    68    1
    16   106   107    1
    17    96    95   ar
    18    78    79    1
    19    80    79    1
    20    59    60    1
    21    60    63    1
    22    68    71    1
    23   109   108    2
    24     1     2    1
    25    95    94    1
    26    95    97   ar
    27    79    82    1
    28   108   107    1
    29   102   103    1
    30   107   110    1
    31   103   104    1
    32    85    87   ar
    33    85    83   ar
    34     4     3    2
    35     9     7   ar
    36     9    11   ar
    37    82    83    1
    38     7     6   ar
    39    71    72    1
    40    87    88   ar
    41    63    65    1
    42    63    64    1
    43     2     3    1
    44     2     5    1
    45    83    84   ar
    46   110   112    1
    47   110   111    1
    48   143   144    1
    49     3    13   am
    50    12    11    1
    51   146   145    2
    52    11    10   ar
    53    64    66    1
    54     6     5    1
    55     6     8   ar
    56    72    73   ar
    57    72    74   ar
    58    19    17    1
    59    88    86   ar
    60    73    75   ar
    61    84    86   ar
    62   104   105    1
    63    13    14    1
    64   145   144    1
    65   144   147    1
    66    74    76   ar
    67    10     8   ar
    68    14    17    1
    69    14    15    1
    70    75    77   ar
    71    17    18    1
    72   147   148    1
    73   149   148   ar
    74   149   151   ar
    75    76    77   ar
    76    58    57    2
    77   148   150   ar
    78   151   153   ar
    79    15    20   am
    80    15    16    2
    81    20    21    1
    82    57    56    1
    83   154   155    1
    84    23    22    2
    85   150   152   ar
    86   153   152   ar
    87    24    21    1
    88    24    25    1
    89   131   132    1
    90   131   128    1
    91    21    22    1
    92   134   132   ar
    93    56    55    1
    94   157   156    2
    95   132   133   ar
    96    55    53   am
    97   155   156    1
    98    27    25    1
    99   128   129    1
   100   128   127    1
   101   130   129    2
   102   156   158   am
   103    25    26    1
   104   129   135   am
   105    53    52    1
   106    53    54    2
   107    52    51    1
   108   158   159    1
   109    38    37   ar
   110    38    36   ar
   111   135   136    1
   112    37    35   ar
   113   159   160    1
   114   159   162    1
   115    36    34   ar
   116   141   140   ar
   117   136   137    1
   118   136   139    1
   119   160   161    2
   120   138   137    2
   121   125   123   ar
   122   125   126   ar
   123   163   162    1
   124   163   164    1
   125   123   120   ar
   126    35    33   ar
   127    34    33   ar
   128   126   124   ar
   129    33    32    1
   130   117   118    1
   131   117   114    1
   132   120   118   ar
   133   120   122   ar
   134   140   139    1
   135   140   142   ar
   136    46    44   am
   137   165   164    2
   138   118   119   ar
   139   164   166   am
   140   124   122   ar
   141    45    44    2
   142   122   121   ar
   143   115   116    2
   144   115   114    1
   145    32    29    1
   146    44    43    1
   147   119   121   ar
   148   114   113    1
   149    49    48    1
   150    49    50    2
   151    48    47    1
   152    47    41   am
   153    29    30    1
   154    29    28    1
   155    43    40    1
   156    30    31    2
   157    41    40    1
   158    41    42    2
   159    40    39    1
