@<TRIPOS>MOLECULE
tmp/6aa5A00.pdb
 173 166 0 0 0
SMALL
GASTEIGER

@<TRIPOS>ATOM
      1  N         22.4650  -18.9800   10.1120 N.3     5  TYR5       -0.1227
      2  CA        22.2370  -19.1040   11.5480 C.3     5  TYR5        0.1736
      3  C         20.7470  -19.2230   11.8350 C.2     5  TYR5        0.2596
      4  O         19.9030  -18.8770   11.0080 O.2     5  TYR5       -0.2718
      5  CB        22.7500  -17.8770   12.3180 C.3     5  TYR5        0.0548
      6  CG        24.2360  -17.6470   12.2000 C.ar    5  TYR5       -0.0200
      7  CD1       24.7700  -17.0520   11.0710 C.ar    5  TYR5       -0.0009
      8  CD2       25.1030  -18.0170   13.2220 C.ar    5  TYR5       -0.0009
      9  CE1       26.1220  -16.8360   10.9560 C.ar    5  TYR5        0.0417
     10  CE2       26.4670  -17.8090   13.1100 C.ar    5  TYR5        0.0417
     11  CZ        26.9690  -17.2150   11.9720 C.ar    5  TYR5        0.1957
     12  OH        28.3220  -16.9950   11.8370 O.3     5  TYR5       -0.2866
     13  N         20.4310  -19.6870   13.0470 N.am    6  THR6       -0.1939
     14  CA        19.0560  -19.7490   13.5190 C.3     6  THR6        0.2028
     15  C         18.9440  -19.0450   14.8610 C.2     6  THR6        0.2642
     16  O         19.9190  -18.9340   15.6090 O.2     6  THR6       -0.2714
     17  CB        18.5770  -21.1970   13.6800 C.3     6  THR6        0.1808
     18  OG1       19.4330  -21.8800   14.6070 O.3     6  THR6       -0.2208
     19  CG2       18.6040  -21.9110   12.3390 C.3     6  THR6        0.0379
     20  N         17.7430  -18.5490   15.1470 N.am    7  LEU7       -0.1977
     21  CA        17.4200  -17.9680   16.4430 C.3     7  LEU7        0.1596
     22  C         16.0090  -18.4040   16.8020 C.2     7  LEU7        0.2287
     23  O         15.0910  -18.2320   15.9960 O.2     7  LEU7       -0.2864
     24  CB        17.4900  -16.4380   16.3720 C.3     7  LEU7        0.0297
     25  CG        17.3260  -15.7120   17.7040 C.3     7  LEU7        0.0022
     26  CD1       18.4720  -16.0570   18.6370 C.3     7  LEU7        0.0001
     27  CD2       17.2390  -14.2020   17.4720 C.3     7  LEU7        0.0001
     28  N         31.9250  -15.6280   23.8870 N.3    25  PHE25      -0.1241
     29  CA        31.4000  -14.5280   23.0930 C.3    25  PHE25       0.1605
     30  C         29.9960  -14.1570   23.5500 C.2    25  PHE25       0.2264
     31  O         29.1200  -15.0180   23.6660 O.2    25  PHE25      -0.2867
     32  CB        31.3730  -14.9250   21.6210 C.3    25  PHE25       0.0534
     33  CG        30.9160  -13.8260   20.7180 C.ar   25  PHE25      -0.0203
     34  CD1       31.7850  -12.8090   20.3590 C.ar   25  PHE25      -0.0042
     35  CD2       29.6190  -13.8020   20.2340 C.ar   25  PHE25      -0.0042
     36  CE1       31.3730  -11.7900   19.5330 C.ar   25  PHE25      -0.0003
     37  CE2       29.2000  -12.7840   19.4070 C.ar   25  PHE25      -0.0003
     38  CZ        30.0790  -11.7750   19.0560 C.ar   25  PHE25      -0.0000
     39  N         19.4990  -13.6740   25.2970 N.3    31  ASN31      -0.1225
     40  CA        19.2090  -13.8180   23.8760 C.3    31  ASN31       0.1785
     41  C         18.2080  -14.9500   23.6950 C.2    31  ASN31       0.2597
     42  O         17.9310  -15.7200   24.6180 O.2    31  ASN31      -0.2718
     43  CB        20.4840  -14.0890   23.0680 C.3    31  ASN31       0.1169
     44  CG        20.3520  -13.6820   21.6050 C.2    31  ASN31       0.2627
     45  OD1       19.2630  -13.3620   21.1330 O.2    31  ASN31      -0.2716
     46  ND2       21.4670  -13.7100   20.8790 N.am   31  ASN31      -0.0877
     47  N         17.6410  -15.0190   22.5000 N.am   32  GLY32      -0.1957
     48  CA        17.0080  -16.2400   22.0660 C.3    32  GLY32       0.1869
     49  C         18.0470  -17.3420   21.9390 C.2    32  GLY32       0.2309
     50  O         19.2420  -17.1560   22.1690 O.2    32  GLY32      -0.2863
     51  N         20.0700  -19.9180   19.7130 N.3    34  GLY34      -0.1210
     52  CA        20.4430  -20.1540   18.3330 C.3    34  GLY34       0.1956
     53  C         21.9340  -20.3390   18.1750 C.2    34  GLY34       0.2612
     54  O         22.6910  -20.3790   19.1480 O.2    34  GLY34      -0.2717
     55  N         22.3390  -20.4590   16.9170 N.am   35  GLY35      -0.1956
     56  CA        23.7380  -20.6120   16.5810 C.3    35  GLY35       0.1869
     57  C         23.8760  -20.8980   15.1010 C.2    35  GLY35       0.2309
     58  O         22.9120  -20.8000   14.3410 O.2    35  GLY35      -0.2863
     59  N         16.5540  -12.0430    9.6900 N.3    68  ILE68      -0.1245
     60  CA        17.4320  -10.9330   10.0400 C.3    68  ILE68       0.1561
     61  C         18.7430  -11.1030    9.2910 C.2    68  ILE68       0.2260
     62  O         19.2920  -12.2080    9.2270 O.2    68  ILE68      -0.2867
     63  CB        17.6910  -10.8530   11.5580 C.3    68  ILE68       0.0252
     64  CG1       16.3810  -10.7090   12.3330 C.3    68  ILE68       0.0019
     65  CG2       18.5960   -9.6830   11.8700 C.3    68  ILE68       0.0019
     66  CD1       16.5930  -10.6380   13.8400 C.3    68  ILE68       0.0001
     67  N         22.5830   -9.5540    9.4040 N.3    70  PHE70      -0.1241
     68  CA        23.5720   -8.7480   10.1080 C.3    70  PHE70       0.1605
     69  C         24.7390   -8.4410    9.1800 C.2    70  PHE70       0.2264
     70  O         25.2160   -9.3160    8.4520 O.2    70  PHE70      -0.2867
     71  CB        24.1130   -9.4700   11.3450 C.3    70  PHE70       0.0534
     72  CG        23.1080   -9.6280   12.4520 C.ar   70  PHE70      -0.0203
     73  CD1       22.1620   -8.6470   12.6960 C.ar   70  PHE70      -0.0042
     74  CD2       23.1190  -10.7580   13.2540 C.ar   70  PHE70      -0.0042
     75  CE1       21.2420   -8.7870   13.7240 C.ar   70  PHE70      -0.0003
     76  CE2       22.1980  -10.9110   14.2780 C.ar   70  PHE70      -0.0003
     77  CZ        21.2520   -9.9260   14.5090 C.ar   70  PHE70      -0.0000
     78  N         28.6070   -6.4440    9.4830 N.3    72  PHE72      -0.1227
     79  CA        29.5940   -5.8820   10.3950 C.3    72  PHE72       0.1736
     80  C         30.6230   -5.1350    9.5660 C.2    72  PHE72       0.2595
     81  O         31.2180   -5.7130    8.6510 O.2    72  PHE72      -0.2718
     82  CB        30.2640   -6.9920   11.2060 C.3    72  PHE72       0.0547
     83  CG        29.3260   -8.0920   11.6110 C.ar   72  PHE72      -0.0202
     84  CD1       28.4120   -7.9000   12.6330 C.ar   72  PHE72      -0.0042
     85  CD2       29.3540   -9.3160   10.9650 C.ar   72  PHE72      -0.0042
     86  CE1       27.5420   -8.9120   13.0030 C.ar   72  PHE72      -0.0003
     87  CE2       28.4930  -10.3310   11.3320 C.ar   72  PHE72      -0.0003
     88  CZ        27.5860  -10.1290   12.3550 C.ar   72  PHE72      -0.0000
     89  N         30.8260   -3.8510    9.8810 N.am   73  VAL73      -0.1980
     90  CA        31.7360   -3.0290    9.0900 C.3    73  VAL73       0.1595
     91  C         33.1260   -3.6480    9.0610 C.2    73  VAL73       0.2287
     92  O         33.6370   -4.1350   10.0790 O.2    73  VAL73      -0.2864
     93  CB        31.7670   -1.5820    9.6060 C.3    73  VAL73       0.0276
     94  CG1       30.6430   -0.7850    8.9820 C.3    73  VAL73       0.0022
     95  CG2       31.6730   -1.5530   11.1230 C.3    73  VAL73       0.0022
     96  N         33.8100   -6.4030    7.5780 N.3    75  GLU75      -0.1245
     97  CA        33.6560   -7.8260    7.3090 C.3    75  GLU75       0.1567
     98  C         32.7730   -8.0210    6.0870 C.2    75  GLU75       0.2260
     99  O         31.6260   -7.5500    6.0790 O.2    75  GLU75      -0.2867
    100  CB        33.0470   -8.5310    8.5200 C.3    75  GLU75       0.0388
    101  CG        33.8750   -8.4220    9.7920 C.3    75  GLU75       0.1160
    102  CD        35.1800   -9.1960    9.7140 C.2    75  GLU75       0.3649
    103  OE1       35.3200  -10.0500    8.8110 O.co2  75  GLU75      -0.2457
    104  OE2       36.0670   -8.9520   10.5610 O.co2  75  GLU75      -0.2457
    105  N         25.6180  -12.2640    8.1310 N.3    79  MET79      -0.1245
    106  CA        24.9410  -13.3300    8.8570 C.3    79  MET79       0.1570
    107  C         23.5000  -13.3980    8.3700 C.2    79  MET79       0.2261
    108  O         22.7760  -12.3990    8.4270 O.2    79  MET79      -0.2867
    109  CB        24.9700  -13.0810   10.3690 C.3    79  MET79       0.0387
    110  CG        26.3160  -13.3540   11.0350 C.3    79  MET79       0.0595
    111  SD        26.2010  -13.3380   12.8460 S.3    79  MET79      -0.1393
    112  CE        24.6710  -14.2140   13.0810 C.3    79  MET79       0.0692
    113  N         20.2010  -14.9070    9.3650 N.3    81  VAL81      -0.1245
    114  CA        19.6440  -15.4550   10.5990 C.3    81  VAL81       0.1561
    115  C         18.1800  -15.7750   10.3480 C.2    81  VAL81       0.2260
    116  O         17.3770  -14.8740   10.0700 O.2    81  VAL81      -0.2867
    117  CB        19.8010  -14.4790   11.7760 C.3    81  VAL81       0.0252
    118  CG1       19.2660  -15.1100   13.0640 C.3    81  VAL81       0.0019
    119  CG2       21.2600  -14.0720   11.9400 C.3    81  VAL81       0.0019
    120  N         21.2540   -7.9800   22.9400 N.3   115  TRP115     -0.1241
    121  CA        21.9020   -7.3630   21.7930 C.3   115  TRP115      0.1605
    122  C         21.0650   -6.1760   21.3130 C.2   115  TRP115      0.2264
    123  O         19.8370   -6.1840   21.4360 O.2   115  TRP115     -0.2867
    124  CB        22.1100   -8.3740   20.6630 C.3   115  TRP115      0.0550
    125  CG        23.1430   -9.4260   20.9780 C.ar  115  TRP115      0.0003
    126  CD1       22.9300  -10.6240   21.5980 C.ar  115  TRP115      0.0946
    127  CD2       24.5490   -9.3690   20.6930 C.ar  115  TRP115      0.0152
    128  NE1       24.1130  -11.3160   21.7140 N.ar  115  TRP115     -0.2442
    129  CE2       25.1210  -10.5660   21.1670 C.ar  115  TRP115      0.0810
    130  CE3       25.3780   -8.4210   20.0850 C.ar  115  TRP115      0.0012
    131  CZ2       26.4830  -10.8410   21.0500 C.ar  115  TRP115      0.0191
    132  CZ3       26.7330   -8.6970   19.9720 C.ar  115  TRP115      0.0001
    133  CH2       27.2700   -9.8940   20.4520 C.ar  115  TRP115      0.0015
    134  N         19.9250   -4.9680   18.5660 N.3   117  ASP117     -0.1225
    135  CA        18.8610   -5.0700   17.5710 C.3   117  ASP117      0.1805
    136  C         17.5440   -5.5580   18.1650 C.2   117  ASP117      0.2597
    137  O         16.4880   -5.3160   17.5720 O.2   117  ASP117     -0.2718
    138  CB        19.2780   -5.9760   16.4120 C.3   117  ASP117      0.1424
    139  CG        19.6470   -7.3710   16.8710 C.2   117  ASP117      0.3668
    140  OD1       20.6320   -7.5000   17.6300 O.co2 117  ASP117     -0.2456
    141  OD2       18.9640   -8.3360   16.4640 O.co2 117  ASP117     -0.2456
    142  N         17.5760   -6.2290   19.3200 N.am  118  ASP118     -0.1974
    143  CA        16.3540   -6.8320   19.8510 C.3   118  ASP118      0.1709
    144  C         15.2770   -5.7910   20.1330 C.2   118  ASP118      0.2293
    145  O         14.0860   -6.0700   19.9620 O.2   118  ASP118     -0.2864
    146  CB        16.6510   -7.6570   21.1000 C.3   118  ASP118      0.1436
    147  CG        17.4140   -8.9280   20.7900 C.2   118  ASP118      0.3671
    148  OD1       17.6780   -9.2080   19.5960 O.co2 118  ASP118     -0.2456
    149  OD2       17.7360   -9.6550   21.7460 O.co2 118  ASP118     -0.2456
    150  N         26.2790   -3.3970   12.0780 N.3   137  PHE137     -0.1241
    151  CA        26.9060   -3.2480   13.3850 C.3   137  PHE137      0.1605
    152  C         28.3240   -2.7030   13.2520 C.2   137  PHE137      0.2264
    153  O         29.0420   -3.0240   12.3010 O.2   137  PHE137     -0.2867
    154  CB        26.9810   -4.6020   14.0940 C.3   137  PHE137      0.0534
    155  CG        25.7190   -4.9940   14.8050 C.ar  137  PHE137     -0.0203
    156  CD1       24.6860   -5.6150   14.1240 C.ar  137  PHE137     -0.0042
    157  CD2       25.5750   -4.7600   16.1620 C.ar  137  PHE137     -0.0042
    158  CE1       23.5270   -5.9840   14.7840 C.ar  137  PHE137     -0.0003
    159  CE2       24.4220   -5.1290   16.8250 C.ar  137  PHE137     -0.0003
    160  CZ        23.3950   -5.7390   16.1340 C.ar  137  PHE137     -0.0000
    161  N         31.2420   -3.1270   15.9100 N.3   139  GLY139     -0.1210
    162  CA        31.4330   -3.7790   17.1880 C.3   139  GLY139      0.1956
    163  C         30.1460   -4.4280   17.6850 C.2   139  GLY139      0.2611
    164  O         29.1880   -4.6440   16.9470 O.2   139  GLY139     -0.2717
    165  N         30.1620   -4.7800   18.9710 N.am  140  GLN140     -0.1979
    166  CA        29.0140   -5.4530   19.5730 C.3   140  GLN140      0.1601
    167  C         27.9010   -4.5000   20.0120 C.2   140  GLN140      0.2287
    168  O         26.7310   -4.9010   20.0440 O.2   140  GLN140     -0.2864
    169  CB        29.4680   -6.3600   20.7190 C.3   140  GLN140      0.0394
    170  CG        30.3800   -7.5000   20.2640 C.3   140  GLN140      0.0908
    171  CD        30.9300   -8.3260   21.4140 C.2   140  GLN140      0.2608
    172  OE1       30.2920   -8.4690   22.4600 O.2   140  GLN140     -0.2717
    173  NE2       32.1240   -8.8730   21.2260 N.am  140  GLN140     -0.0878
@<TRIPOS>BOND
     1    99    98    2
     2    98    97    1
     3    97    96    1
     4    97   100    1
     5   105   106    1
     6   107   108    2
     7   107   106    1
     8    70    69    2
     9   100   101    1
    10    81    80    2
    11   103   102   ar
    12   106   109    1
    13    94    93    1
    14    91    90    1
    15    91    92    2
    16    90    93    1
    17    90    89    1
    18    69    68    1
    19    62    61    2
    20    61    60    1
    21   113   114    1
    22    67    68    1
    23    78    79    1
    24    80    89   am
    25    80    79    1
    26    93    95    1
    27    59    60    1
    28   102   101    1
    29   102   104   ar
    30    60    63    1
    31   116   115    2
    32    68    71    1
    33     1     2    1
    34   115   114    1
    35   109   110    1
    36    79    82    1
    37   114   117    1
    38     9     7   ar
    39     9    11   ar
    40    85    87   ar
    41    85    83   ar
    42     4     3    2
    43   110   111    1
    44     7     6   ar
    45    82    83    1
    46    87    88   ar
    47    71    72    1
    48     2     3    1
    49     2     5    1
    50    63    65    1
    51    63    64    1
    52    83    84   ar
    53   117   119    1
    54   117   118    1
    55     3    13   am
    56    12    11    1
    57    11    10   ar
    58   150   151    1
    59     6     5    1
    60     6     8   ar
    61   153   152    2
    62    64    66    1
    63    19    17    1
    64    88    86   ar
    65    72    73   ar
    66    72    74   ar
    67    84    86   ar
    68    73    75   ar
    69   111   112    1
    70    13    14    1
    71    10     8   ar
    72   152   151    1
    73    74    76   ar
    74   151   154    1
    75    14    17    1
    76    14    15    1
    77    17    18    1
    78    75    77   ar
    79   154   155    1
    80   156   158   ar
    81   156   155   ar
    82    76    77   ar
    83    58    57    2
    84   158   160   ar
    85   155   157   ar
    86    15    20   am
    87    15    16    2
    88    57    56    1
    89    20    21    1
    90   161   162    1
    91    23    22    2
    92   160   159   ar
    93   157   159   ar
    94    24    21    1
    95    24    25    1
    96   138   139    1
    97   138   135    1
    98    21    22    1
    99   141   139   ar
   100    56    55    1
   101   139   140   ar
   102    55    53   am
   103   164   163    2
   104   162   163    1
   105    27    25    1
   106   135   136    1
   107   135   134    1
   108   137   136    2
   109   163   165   am
   110    25    26    1
   111   136   142   am
   112    53    52    1
   113    53    54    2
   114    52    51    1
   115   165   166    1
   116    38    37   ar
   117    38    36   ar
   118   142   143    1
   119    37    35   ar
   120    36    34   ar
   121   166   167    1
   122   166   169    1
   123   148   147   ar
   124   143   144    1
   125   143   146    1
   126   145   144    2
   127   132   130   ar
   128   132   133   ar
   129   167   168    2
   130   130   127   ar
   131    35    33   ar
   132   170   169    1
   133   170   171    1
   134    34    33   ar
   135   133   131   ar
   136   124   125    1
   137   124   121    1
   138   127   125   ar
   139   127   129   ar
   140    33    32    1
   141   147   146    1
   142   147   149   ar
   143    46    44   am
   144   125   126   ar
   145   131   129   ar
   146    45    44    2
   147   129   128   ar
   148   173   171   am
   149   122   123    2
   150   122   121    1
   151   171   172    2
   152   126   128   ar
   153    44    43    1
   154    32    29    1
   155   121   120    1
   156    49    48    1
   157    49    50    2
   158    48    47    1
   159    47    41   am
   160    43    40    1
   161    29    30    1
   162    29    28    1
   163    30    31    2
   164    41    40    1
   165    41    42    2
   166    40    39    1
