@<TRIPOS>MOLECULE
tmp/6aaeB12.pdb
 87 84 0 0 0
SMALL
GASTEIGER

@<TRIPOS>ATOM
      1  N        -54.4930   14.1870    9.0380 N.3    43  ALA43      -0.1231
      2  CA       -54.3800   12.7520    9.3090 C.3    43  ALA43       0.1694
      3  C        -54.8590   11.8730    8.1550 C.2    43  ALA43       0.2591
      4  O        -54.2310   10.8710    7.8070 O.2    43  ALA43      -0.2718
      5  CB       -55.1580   12.4080   10.5710 C.3    43  ALA43       0.0304
      6  N        -56.0010   12.2310    7.5860 N.am   44  ARG44      -0.1980
      7  CA       -56.6050   11.4620    6.5060 C.3    44  ARG44       0.1597
      8  C        -57.1010   12.4000    5.4200 C.2    44  ARG44       0.2287
      9  O        -57.6880   13.4320    5.7190 O.2    44  ARG44      -0.2864
     10  CB       -57.7790   10.6210    7.0080 C.3    44  ARG44       0.0334
     11  CG       -57.4060    9.3830    7.7790 C.3    44  ARG44       0.0492
     12  CD       -58.3930    8.2600    7.4880 C.3    44  ARG44       0.2205
     13  NE       -59.7700    8.7370    7.3700 N.pl3  44  ARG44      -0.0865
     14  CZ       -60.5440    9.0570    8.4040 C.cat  44  ARG44       0.5346
     15  NH1      -61.7900    9.4690    8.1970 N.pl3  44  ARG44       0.1354
     16  NH2      -60.0710    8.9670    9.6440 N.pl3  44  ARG44       0.1354
     17  N        -59.5810   14.9760    7.2550 N.3    63  VAL63      -0.1231
     18  CA       -59.7590   14.7720    8.6910 C.3    63  VAL63       0.1678
     19  C        -58.4480   15.0980    9.3910 C.2    63  VAL63       0.2434
     20  O        -57.4300   14.4540    9.1400 O.2    63  VAL63      -0.2733
     21  CB       -60.2120   13.3300    9.0190 C.3    63  VAL63       0.0265
     22  CG1      -60.4550   13.1840   10.5130 C.3    63  VAL63       0.0020
     23  CG2      -61.4760   12.9890    8.2650 C.3    63  VAL63       0.0020
     24  N        -58.4540   16.1380   10.2390 N.am   64  PRO64      -0.2718
     25  CA       -57.2270   16.5990   10.8870 C.3    64  PRO64       0.1535
     26  C        -56.7890   15.7050   12.0320 C.2    64  PRO64       0.2598
     27  O        -57.5760   14.9140   12.5570 O.2    64  PRO64      -0.2715
     28  CB       -57.6080   17.9880   11.4060 C.3    64  PRO64       0.0310
     29  CG       -59.0730   17.8840   11.6570 C.3    64  PRO64       0.0237
     30  CD       -59.6090   16.9930   10.5730 C.3    64  PRO64       0.0939
     31  N        -55.5280   15.8690   12.4170 N.am   65  GLU65      -0.1978
     32  CA       -54.8880   15.0360   13.4260 C.3    65  GLU65       0.1602
     33  C        -55.7010   14.8580   14.7120 C.2    65  GLU65       0.2287
     34  O        -55.9740   13.7340   15.1330 O.2    65  GLU65      -0.2864
     35  CB       -53.5160   15.6230   13.7640 C.3    65  GLU65       0.0415
     36  CG       -52.6070   15.8090   12.5540 C.3    65  GLU65       0.1163
     37  CD       -51.9150   14.5260   12.1290 C.2    65  GLU65       0.3649
     38  OE1      -52.2050   13.4570   12.7200 O.co2  65  GLU65      -0.2457
     39  OE2      -51.0800   14.5900   11.1980 O.co2  65  GLU65      -0.2457
     40  N        -58.8620   15.5920   15.5460 N.3    67  ALA67      -0.1231
     41  CA       -60.3130   15.6470   15.4480 C.3    67  ALA67       0.1694
     42  C        -60.9410   14.6170   16.3840 C.2    67  ALA67       0.2592
     43  O        -60.3070   13.6200   16.7240 O.2    67  ALA67      -0.2718
     44  CB       -60.7570   15.4050   14.0100 C.3    67  ALA67       0.0304
     45  N        -62.1820   14.8690   16.7940 N.am   68  ASP68      -0.1960
     46  CA       -62.9750   13.9070   17.5670 C.3    68  ASP68       0.1840
     47  C        -63.1330   12.5810   16.8340 C.2    68  ASP68       0.2621
     48  O        -62.9660   12.5260   15.6230 O.2    68  ASP68      -0.2715
     49  CB       -64.3590   14.4820   17.8760 C.3    68  ASP68       0.1450
     50  CG       -64.2930   15.7300   18.7300 C.2    68  ASP68       0.3671
     51  OD1      -63.4550   15.7690   19.6590 O.co2  68  ASP68      -0.2456
     52  OD2      -65.0780   16.6690   18.4730 O.co2  68  ASP68      -0.2456
     53  N        -63.4700   11.5160   17.5590 N.am   69  GLU69      -0.1977
     54  CA       -63.6690   10.2120   16.9280 C.3    69  GLU69       0.1602
     55  C        -64.7840   10.2810   15.8880 C.2    69  GLU69       0.2287
     56  O        -64.7770    9.5560   14.8990 O.2    69  GLU69      -0.2864
     57  CB       -63.9840    9.1340   17.9760 C.3    69  GLU69       0.0415
     58  CG       -65.4580    9.0080   18.3510 C.3    69  GLU69       0.1163
     59  CD       -65.7550    7.7860   19.2060 C.2    69  GLU69       0.3649
     60  OE1      -64.8460    7.3250   19.9300 O.co2  69  GLU69      -0.2457
     61  OE2      -66.9000    7.2850   19.1530 O.co2  69  GLU69      -0.2457
     62  N        -66.0000   13.4140   14.0790 N.3    71  PRO71      -0.2116
     63  CA       -65.7450   14.8620   14.0430 C.3    71  PRO71       0.1372
     64  C        -66.8780   15.6760   13.4490 C.2    71  PRO71       0.2244
     65  O        -67.6840   15.1660   12.6750 O.2    71  PRO71      -0.2868
     66  CB       -64.4940   14.9760   13.1660 C.3    71  PRO71       0.0268
     67  CG       -64.5040   13.7950   12.3250 C.3    71  PRO71       0.0207
     68  CD       -65.1450   12.6820   13.1300 C.3    71  PRO71       0.0892
     69  N        -69.4420    8.7870    5.9710 N.3   139  LEU139     -0.1231
     70  CA       -68.2740    9.6620    6.0430 C.3   139  LEU139      0.1693
     71  C        -67.5180    9.4980    7.3610 C.2   139  LEU139      0.2593
     72  O        -66.3330    9.8200    7.4590 O.2   139  LEU139     -0.2718
     73  CB       -68.6940   11.1260    5.8850 C.3   139  LEU139      0.0284
     74  CG       -69.2680   11.5340    4.5270 C.3   139  LEU139      0.0019
     75  CD1      -69.7230   12.9930    4.5790 C.3   139  LEU139      0.0001
     76  CD2      -68.2040   11.3430    3.4540 C.3   139  LEU139      0.0001
     77  N        -68.2230    9.0300    8.3820 N.am  140  GLY140     -0.1942
     78  CA       -67.6330    8.8950    9.6990 C.3   140  GLY140      0.2014
     79  C        -67.6420   10.1900   10.4890 C.2   140  GLY140      0.2638
     80  O        -66.7730   10.4130   11.3350 O.2   140  GLY140     -0.2714
     81  N        -68.6260   11.0390   10.2170 N.am  141  VAL141     -0.1977
     82  CA       -68.7180   12.3420   10.8740 C.3   141  VAL141      0.1596
     83  C        -70.0130   12.5020   11.6610 C.2   141  VAL141      0.2287
     84  O        -70.9400   11.6910   11.5570 O.2   141  VAL141     -0.2864
     85  CB       -68.6130   13.4990    9.8480 C.3   141  VAL141      0.0276
     86  CG1      -67.2790   13.4100    9.0870 C.3   141  VAL141      0.0022
     87  CG2      -69.8000   13.4730    8.8980 C.3   141  VAL141      0.0022
@<TRIPOS>BOND
     1    76    74    1
     2    74    75    1
     3    74    73    1
     4     8     9    2
     5     8     7    1
     6    73    70    1
     7    69    70    1
     8    70    71    1
     9     7    10    1
    10     7     6    1
    11    10    11    1
    12    17    18    1
    13    71    72    2
    14    71    77   am
    15    13    12    1
    16    13    14    2
    17    12    11    1
    18     6     3   am
    19     4     3    2
    20     3     2    1
    21    15    14    1
    22    23    21    1
    23    77    78    1
    24    14    16    1
    25    18    21    1
    26    18    19    1
    27    87    85    1
    28    21    22    1
    29     1     2    1
    30    86    85    1
    31    20    19    2
    32     2     5    1
    33    19    24   am
    34    78    79    1
    35    85    82    1
    36    81    79   am
    37    81    82    1
    38    24    30    1
    39    24    25    1
    40    79    80    2
    41    30    29    1
    42    82    83    1
    43    25    28    1
    44    25    26    1
    45    39    37   ar
    46    28    29    1
    47    84    83    2
    48    26    31   am
    49    26    27    2
    50    37    36    1
    51    37    38   ar
    52    67    68    1
    53    67    66    1
    54    31    32    1
    55    36    35    1
    56    65    64    2
    57    68    62    1
    58    66    63    1
    59    32    35    1
    60    32    33    1
    61    64    63    1
    62    44    41    1
    63    63    62    1
    64    33    34    2
    65    56    55    2
    66    41    40    1
    67    41    42    1
    68    48    47    2
    69    55    54    1
    70    42    43    2
    71    42    45   am
    72    45    46    1
    73    47    53   am
    74    47    46    1
    75    54    53    1
    76    54    57    1
    77    46    49    1
    78    49    50    1
    79    57    58    1
    80    58    59    1
    81    52    50   ar
    82    50    51   ar
    83    61    59   ar
    84    59    60   ar
