@<TRIPOS>MOLECULE
tmp/6aaeA01.pdb
 82 77 0 0 0
SMALL
GASTEIGER

@<TRIPOS>ATOM
      1  N        -53.4290    9.8730  -10.0710 N.3    44  ARG44      -0.1245
      2  CA       -53.8270    9.2740   -8.8150 C.3    44  ARG44       0.1563
      3  C        -52.7380    9.4420   -7.7830 C.2    44  ARG44       0.2260
      4  O        -51.5600    9.2770   -8.0870 O.2    44  ARG44      -0.2867
      5  CB       -54.1440    7.7890   -9.0090 C.3    44  ARG44       0.0307
      6  CG       -54.8540    7.1550   -7.8310 C.3    44  ARG44       0.0489
      7  CD       -55.3230    5.7310   -8.1340 C.3    44  ARG44       0.2205
      8  NE       -54.3280    4.9110   -8.8320 N.pl3  44  ARG44      -0.0865
      9  CZ       -54.3370    4.6660  -10.1430 C.cat  44  ARG44       0.5346
     10  NH1      -53.3940    3.9030  -10.6890 N.pl3  44  ARG44       0.1354
     11  NH2      -55.2870    5.1880  -10.9130 N.pl3  44  ARG44       0.1354
     12  N        -52.1800    8.0030   -3.8210 N.3    46  GLU46      -0.1245
     13  CA       -52.6980    7.0830   -2.8190 C.3    46  GLU46       0.1567
     14  C        -51.8260    7.1010   -1.5720 C.2    46  GLU46       0.2260
     15  O        -50.6150    6.9160   -1.6540 O.2    46  GLU46      -0.2867
     16  CB       -52.7550    5.6560   -3.3600 C.3    46  GLU46       0.0388
     17  CG       -53.5170    5.4670   -4.6460 C.3    46  GLU46       0.1160
     18  CD       -53.4560    4.0250   -5.1210 C.2    46  GLU46       0.3649
     19  OE1      -53.2460    3.1340   -4.2630 O.co2  46  GLU46      -0.2457
     20  OE2      -53.6040    3.7830   -6.3430 O.co2  46  GLU46      -0.2457
     21  N        -50.4830    5.2700    1.4810 N.3    48  ILE48      -0.1231
     22  CA       -50.2750    3.8550    1.7500 C.3    48  ILE48       0.1692
     23  C        -49.5590    3.6830    3.0770 C.2    48  ILE48       0.2591
     24  O        -48.6230    4.4150    3.3740 O.2    48  ILE48      -0.2718
     25  CB       -49.4700    3.2110    0.6100 C.3    48  ILE48       0.0266
     26  CG1      -50.3620    3.0830   -0.6280 C.3    48  ILE48       0.0019
     27  CG2      -48.9010    1.8550    1.0230 C.3    48  ILE48       0.0020
     28  CD1      -49.5990    2.7310   -1.8780 C.3    48  ILE48       0.0001
     29  N        -50.0070    2.7400    3.8940 N.am   49  ALA49      -0.1980
     30  CA       -49.2570    2.4180    5.0980 C.3    49  ALA49       0.1597
     31  C        -48.4170    1.1710    4.8520 C.2    49  ALA49       0.2287
     32  O        -48.9460    0.1180    4.5170 O.2    49  ALA49      -0.2864
     33  CB       -50.1890    2.2190    6.2720 C.3    49  ALA49       0.0319
     34  N        -48.0860    7.0000   -3.0740 N.3    61  LEU61      -0.1245
     35  CA       -47.8970    6.5250   -4.4350 C.3    61  LEU61       0.1561
     36  C        -48.4970    7.5310   -5.4010 C.2    61  LEU61       0.2260
     37  O        -49.6590    7.9240   -5.2620 O.2    61  LEU61      -0.2867
     38  CB       -48.5430    5.1420   -4.6270 C.3    61  LEU61       0.0270
     39  CG       -48.4120    4.5370   -6.0240 C.3    61  LEU61       0.0019
     40  CD1      -46.9650    4.1470   -6.3230 C.3    61  LEU61       0.0001
     41  CD2      -49.3300    3.3120   -6.1820 C.3    61  LEU61       0.0001
     42  N        -39.9830   -4.0300    0.0840 N.3   131  TRP131     -0.1241
     43  CA       -41.4300   -4.1220    0.2170 C.3   131  TRP131      0.1605
     44  C        -42.1300   -3.7760   -1.0870 C.2   131  TRP131      0.2264
     45  O        -43.0690   -4.4640   -1.4950 O.2   131  TRP131     -0.2867
     46  CB       -41.9310   -3.2050    1.3340 C.3   131  TRP131      0.0550
     47  CG       -43.4080   -3.3220    1.5670 C.ar  131  TRP131      0.0003
     48  CD1      -44.0290   -4.1640    2.4440 C.ar  131  TRP131      0.0946
     49  CD2      -44.4500   -2.5890    0.9060 C.ar  131  TRP131      0.0152
     50  NE1      -45.3940   -4.0010    2.3700 N.ar  131  TRP131     -0.2442
     51  CE2      -45.6790   -3.0360    1.4410 C.ar  131  TRP131      0.0810
     52  CE3      -44.4660   -1.6000   -0.0820 C.ar  131  TRP131      0.0012
     53  CZ2      -46.9100   -2.5270    1.0180 C.ar  131  TRP131      0.0191
     54  CZ3      -45.6800   -1.0960   -0.5020 C.ar  131  TRP131      0.0001
     55  CH2      -46.8900   -1.5580    0.0490 C.ar  131  TRP131      0.0015
     56  N        -44.4380   -6.2680   -3.3060 N.3   135  ASN135     -0.1240
     57  CA       -45.8430   -5.9040   -3.3500 C.3   135  ASN135      0.1653
     58  C        -46.1680   -5.0800   -4.5990 C.2   135  ASN135      0.2266
     59  O        -47.1530   -4.3270   -4.6390 O.2   135  ASN135     -0.2867
     60  CB       -46.2110   -5.1420   -2.0760 C.3   135  ASN135      0.1155
     61  CG       -46.1910   -6.0340   -0.8510 C.2   135  ASN135      0.2627
     62  OD1      -47.2010   -6.6600   -0.5280 O.2   135  ASN135     -0.2716
     63  ND2      -45.0390   -6.1190   -0.1720 N.am  135  ASN135     -0.0877
     64  N        -49.5700   -5.5310   -6.1390 N.3   138  THR138     -0.1203
     65  CA       -50.5710   -4.8680   -5.3170 C.3   138  THR138      0.1994
     66  C        -50.6070   -3.3640   -5.5660 C.2   138  THR138      0.2618
     67  O        -51.6800   -2.7550   -5.6070 O.2   138  THR138     -0.2717
     68  CB       -50.3210   -5.1240   -3.8380 C.3   138  THR138      0.1784
     69  OG1      -50.4960   -6.5230   -3.5870 O.3   138  THR138     -0.2211
     70  CG2      -51.3040   -4.3240   -2.9850 C.3   138  THR138      0.0376
     71  N        -49.4270   -2.7820   -5.7430 N.am  139  LEU139     -0.1965
     72  CA       -49.3010   -1.3540   -6.0340 C.3   139  LEU139      0.1728
     73  C        -49.7630   -1.0070   -7.4530 C.2   139  LEU139      0.2616
     74  O        -50.0910    0.1420   -7.7430 O.2   139  LEU139     -0.2715
     75  CB       -47.8510   -0.9070   -5.8390 C.3   139  LEU139      0.0311
     76  CG       -47.3270   -0.9730   -4.4030 C.3   139  LEU139      0.0022
     77  CD1      -45.8340   -0.6720   -4.3800 C.3   139  LEU139      0.0001
     78  CD2      -48.0760   -0.0080   -3.5230 C.3   139  LEU139      0.0001
     79  N        -49.7830   -2.0020   -8.3310 N.am  140  GLY140     -0.1955
     80  CA       -50.1370   -1.7840   -9.7180 C.3   140  GLY140      0.1869
     81  C        -48.9590   -1.3220  -10.5690 C.2   140  GLY140      0.2309
     82  O        -49.1480   -0.6630  -11.5870 O.2   140  GLY140     -0.2863
@<TRIPOS>BOND
     1    82    81    2
     2    11     9    1
     3    10     9    1
     4    81    80    1
     5     9     8    2
     6     1     2    1
     7    80    79    1
     8     5     2    1
     9     5     6    1
    10     8     7    1
    11     2     3    1
    12    79    73   am
    13     7     6    1
    14     4     3    2
    15    74    73    2
    16    73    72    1
    17    20    18   ar
    18    40    39    1
    19    41    39    1
    20    64    65    1
    21    72    75    1
    22    72    71    1
    23    39    38    1
    24    75    76    1
    25    71    66   am
    26    67    66    2
    27    66    65    1
    28    36    37    2
    29    36    35    1
    30    65    68    1
    31    18    17    1
    32    18    19   ar
    33    17    16    1
    34    59    58    2
    35    38    35    1
    36    58    57    1
    37    35    34    1
    38    76    77    1
    39    76    78    1
    40    68    69    1
    41    68    70    1
    42    12    13    1
    43    16    13    1
    44    57    56    1
    45    57    60    1
    46    13    14    1
    47    60    61    1
    48    28    26    1
    49    15    14    2
    50    45    44    2
    51    44    43    1
    52    61    62    2
    53    61    63   am
    54    26    25    1
    55    54    52   ar
    56    54    55   ar
    57    52    49   ar
    58    55    53   ar
    59    42    43    1
    60    43    46    1
    61    25    27    1
    62    25    22    1
    63    49    51   ar
    64    49    47   ar
    65    53    51   ar
    66    46    47    1
    67    51    50   ar
    68    21    22    1
    69    47    48   ar
    70    22    23    1
    71    50    48   ar
    72    23    24    2
    73    23    29   am
    74    29    30    1
    75    32    31    2
    76    31    30    1
    77    30    33    1
