@<TRIPOS>MOLECULE
tmp/6aaeB02.pdb
 77 75 0 0 0
SMALL
GASTEIGER

@<TRIPOS>ATOM
      1  N        -76.6700   28.3890    3.0860 N.3   162  ALA162     -0.1245
      2  CA       -77.2030   28.6540    4.4250 C.3   162  ALA162      0.1562
      3  C        -78.6530   29.1350    4.3240 C.2   162  ALA162      0.2260
      4  O        -79.5080   28.7580    5.1350 O.2   162  ALA162     -0.2867
      5  CB       -76.3540   29.6830    5.1550 C.3   162  ALA162      0.0290
      6  N        -80.8350   26.1230    3.1940 N.3   165  ALA165     -0.1231
      7  CA       -81.0520   25.2090    4.3180 C.3   165  ALA165      0.1694
      8  C        -82.1080   25.7420    5.2940 C.2   165  ALA165      0.2591
      9  O        -82.9510   24.9860    5.7920 O.2   165  ALA165     -0.2718
     10  CB       -79.7340   24.9490    5.0480 C.3   165  ALA165      0.0304
     11  N        -82.0530   27.0360    5.5830 N.am  166  ARG166     -0.1980
     12  CA       -83.0910   27.6420    6.4120 C.3   166  ARG166      0.1597
     13  C        -84.4530   27.5010    5.7220 C.2   166  ARG166      0.2287
     14  O        -85.4240   27.0240    6.3220 O.2   166  ARG166     -0.2864
     15  CB       -82.7840   29.1230    6.6860 C.3   166  ARG166      0.0334
     16  CG       -83.8130   29.8060    7.6060 C.3   166  ARG166      0.0492
     17  CD       -83.7430   31.3310    7.5000 C.3   166  ARG166      0.2205
     18  NE       -84.0470   31.7900    6.1420 N.pl3 166  ARG166     -0.0865
     19  CZ       -83.9630   33.0520    5.7400 C.cat 166  ARG166      0.5346
     20  NH1      -83.5810   34.0050    6.5850 N.pl3 166  ARG166      0.1354
     21  NH2      -84.2560   33.3650    4.4870 N.pl3 166  ARG166      0.1354
     22  N        -85.9670   23.8580    5.3210 N.3   169  ASN169     -0.1225
     23  CA       -85.8890   23.0300    6.5220 C.3   169  ASN169      0.1785
     24  C        -84.8500   21.9290    6.2970 C.2   169  ASN169      0.2598
     25  O        -85.0710   20.7490    6.5980 O.2   169  ASN169     -0.2718
     26  CB       -87.2690   22.4440    6.8740 C.3   169  ASN169      0.1169
     27  CG       -87.2700   21.6970    8.2030 C.2   169  ASN169      0.2627
     28  OD1      -86.4320   21.9480    9.0730 O.2   169  ASN169     -0.2716
     29  ND2      -88.2050   20.7610    8.3560 N.am  169  ASN169     -0.0877
     30  N        -83.7210   22.3430    5.7270 N.am  170  GLY170     -0.1943
     31  CA       -82.6350   21.4530    5.3600 C.3   170  GLY170      0.1998
     32  C        -81.8170   21.1870    6.5930 C.2   170  GLY170      0.2481
     33  O        -82.2720   21.4740    7.6970 O.2   170  GLY170     -0.2729
     34  N        -80.5990   20.6560    6.4210 N.am  171  PRO171     -0.2715
     35  CA       -79.8080   20.3100    7.6010 C.3   171  PRO171      0.1536
     36  C        -79.5640   21.5220    8.4780 C.2   171  PRO171      0.2598
     37  O        -79.3160   22.6160    7.9630 O.2   171  PRO171     -0.2715
     38  CB       -78.4910   19.7950    7.0100 C.3   171  PRO171      0.0310
     39  CG       -78.8360   19.3960    5.6010 C.3   171  PRO171      0.0237
     40  CD       -79.8760   20.3820    5.1690 C.3   171  PRO171      0.0939
     41  N        -79.6420   21.3400    9.7900 N.am  172  ALA172     -0.1964
     42  CA       -79.3110   22.4220   10.6920 C.3   172  ALA172      0.1728
     43  C        -77.8390   22.7630   10.5260 C.2   172  ALA172      0.2616
     44  O        -77.0000   21.8610   10.4180 O.2   172  ALA172     -0.2715
     45  CB       -79.6270   22.0390   12.1450 C.3   172  ALA172      0.0334
     46  N        -77.5360   24.0570   10.4740 N.am  173  LEU173     -0.1977
     47  CA       -76.1510   24.5040   10.3570 C.3   173  LEU173      0.1596
     48  C        -75.7260   25.2610   11.5990 C.2   173  LEU173      0.2287
     49  O        -76.4830   26.0940   12.0960 O.2   173  LEU173     -0.2864
     50  CB       -75.9690   25.3920    9.1280 C.3   173  LEU173      0.0297
     51  CG       -76.1520   24.6780    7.7980 C.3   173  LEU173      0.0022
     52  CD1      -76.2610   25.6670    6.6450 C.3   173  LEU173      0.0001
     53  CD2      -75.0120   23.6830    7.5620 C.3   173  LEU173      0.0001
     54  N        -82.4440   34.2280   11.3790 N.3   236  GLY236     -0.1210
     55  CA       -82.4600   32.7990   11.6400 C.3   236  GLY236      0.1956
     56  C        -81.4450   31.9870   10.8490 C.2   236  GLY236      0.2612
     57  O        -81.4860   30.7580   10.8600 O.2   236  GLY236     -0.2717
     58  N        -80.5410   32.6680   10.1580 N.am  237  LEU237     -0.1965
     59  CA       -79.4650   31.9790    9.4300 C.3   237  LEU237      0.1728
     60  C        -78.3660   31.5240   10.3870 C.2   237  LEU237      0.2616
     61  O        -78.2520   32.0400   11.5030 O.2   237  LEU237     -0.2715
     62  CB       -78.8700   32.8840    8.3450 C.3   237  LEU237      0.0311
     63  CG       -79.7900   33.2160    7.1630 C.3   237  LEU237      0.0022
     64  CD1      -79.1330   34.2030    6.2120 C.3   237  LEU237      0.0001
     65  CD2      -80.2160   31.9600    6.4290 C.3   237  LEU237      0.0001
     66  N        -77.5620   30.5580    9.9420 N.am  238  ALA238     -0.1964
     67  CA       -76.4070   30.1080   10.7150 C.3   238  ALA238      0.1713
     68  C        -75.5060   31.2570   11.1510 C.2   238  ALA238      0.2458
     69  O        -75.2330   32.1690   10.3750 O.2   238  ALA238     -0.2730
     70  CB       -75.5980   29.1030    9.9140 C.3   238  ALA238      0.0333
     71  N        -75.0230   31.2050   12.4050 N.am  239  PRO239     -0.2727
     72  CA       -73.9920   32.1380   12.8590 C.3   239  PRO239      0.1402
     73  C        -72.8520   32.2240   11.8380 C.2   239  PRO239      0.2269
     74  O        -72.4790   31.1990   11.2670 O.2   239  PRO239     -0.2865
     75  CB       -73.5130   31.5140   14.1770 C.3   239  PRO239      0.0296
     76  CG       -74.6840   30.7250   14.6610 C.3   239  PRO239      0.0237
     77  CD       -75.4000   30.2280   13.4460 C.3   239  PRO239      0.0939
@<TRIPOS>BOND
     1     1     2    1
     2     6     7    1
     3     7    10    1
     4     7     8    1
     5     3     2    1
     6     3     4    2
     7     2     5    1
     8    21    19    1
     9    40    39    1
    10    40    34    1
    11     8    11   am
    12     8     9    2
    13    22    23    1
    14    31    30    1
    15    31    32    1
    16    11    12    1
    17    39    38    1
    18    13    14    2
    19    13    12    1
    20    30    24   am
    21    19    18    2
    22    19    20    1
    23    18    17    1
    24    64    63    1
    25    24    23    1
    26    24    25    2
    27    12    15    1
    28    34    32   am
    29    34    35    1
    30    65    63    1
    31    23    26    1
    32    32    33    2
    33    52    51    1
    34    15    16    1
    35    26    27    1
    36    38    35    1
    37    63    62    1
    38    17    16    1
    39    53    51    1
    40    35    36    1
    41    51    50    1
    42    37    36    2
    43    27    29   am
    44    27    28    2
    45    62    59    1
    46    36    41   am
    47    50    47    1
    48    59    58    1
    49    59    60    1
    50    41    42    1
    51    70    67    1
    52    66    60   am
    53    66    67    1
    54    58    56   am
    55    47    46    1
    56    47    48    1
    57    69    68    2
    58    60    61    2
    59    44    43    2
    60    46    43   am
    61    43    42    1
    62    42    45    1
    63    67    68    1
    64    56    57    2
    65    56    55    1
    66    68    71   am
    67    74    73    2
    68    54    55    1
    69    48    49    2
    70    73    72    1
    71    71    72    1
    72    71    77    1
    73    72    75    1
    74    77    76    1
    75    75    76    1
