@<TRIPOS>MOLECULE
tmp/6aaeB04.pdb
 123 118 0 0 0
SMALL
GASTEIGER

@<TRIPOS>ATOM
      1  N        -63.5460   28.7370   -4.2500 N.3    79  GLY79      -0.1210
      2  CA       -63.7580   29.9200   -5.0600 C.3    79  GLY79       0.1956
      3  C        -63.3070   29.7050   -6.4970 C.2    79  GLY79       0.2612
      4  O        -62.8160   28.6310   -6.8760 O.2    79  GLY79      -0.2717
      5  N        -63.4860   30.7530   -7.2860 N.am   80  GLY80      -0.1942
      6  CA       -63.1910   30.7000   -8.7100 C.3    80  GLY80       0.2014
      7  C        -64.2880   31.3390   -9.5440 C.2    80  GLY80       0.2639
      8  O        -64.4740   30.9970  -10.7170 O.2    80  GLY80      -0.2714
      9  N        -65.0440   32.2460   -8.9470 N.am   81  GLY81      -0.1954
     10  CA       -66.0000   33.0300   -9.7300 C.3    81  GLY81       0.1869
     11  C        -67.0980   32.2190  -10.4020 C.2    81  GLY81       0.2309
     12  O        -67.6610   32.6480  -11.4090 O.2    81  GLY81      -0.2863
     13  N        -64.2050   28.7440  -12.4840 N.3    84  ILE84      -0.1245
     14  CA       -62.9070   28.0630  -12.3960 C.3    84  ILE84       0.1561
     15  C        -62.6810   27.4880  -10.9980 C.2    84  ILE84       0.2260
     16  O        -63.5480   27.5920  -10.1460 O.2    84  ILE84      -0.2867
     17  CB       -61.7280   28.9910  -12.7730 C.3    84  ILE84       0.0252
     18  CG1      -61.4880   30.0830  -11.7370 C.3    84  ILE84       0.0019
     19  CG2      -61.9910   29.6820  -14.1410 C.3    84  ILE84       0.0019
     20  CD1      -60.4600   31.1260  -12.1580 C.3    84  ILE84       0.0001
     21  N        -57.7590   24.3020   -4.3360 N.3    90  HIS90      -0.1241
     22  CA       -58.1150   24.7400   -2.9950 C.3    90  HIS90       0.1621
     23  C        -57.7360   23.7300   -1.9230 C.2    90  HIS90       0.2264
     24  O        -58.1280   23.8630   -0.7730 O.2    90  HIS90      -0.2867
     25  CB       -59.6000   25.0670   -2.9470 C.3    90  HIS90       0.0745
     26  CG       -59.8880   26.4160   -3.4910 C.ar   90  HIS90       0.0817
     27  ND1      -59.7060   26.7310   -4.8250 N.ar   90  HIS90      -0.2268
     28  CD2      -60.2300   27.5660   -2.8700 C.ar   90  HIS90       0.1154
     29  CE1      -59.9830   28.0090   -5.0060 C.ar   90  HIS90       0.1986
     30  NE2      -60.3120   28.5380   -3.8370 N.ar   90  HIS90      -0.2212
     31  N        -64.6010   30.3880   -0.0730 N.3   151  ASP151     -0.1225
     32  CA       -63.9100   31.6330   -0.3640 C.3   151  ASP151      0.1805
     33  C        -64.4180   32.2110   -1.6660 C.2   151  ASP151      0.2598
     34  O        -64.6470   31.4670   -2.6170 O.2   151  ASP151     -0.2718
     35  CB       -62.3970   31.4190   -0.4570 C.3   151  ASP151      0.1424
     36  CG       -62.0140   30.4470   -1.5540 C.2   151  ASP151      0.3668
     37  OD1      -62.4330   29.2720   -1.4710 O.co2 151  ASP151     -0.2456
     38  OD2      -61.3020   30.8580   -2.5010 O.co2 151  ASP151     -0.2456
     39  N        -64.5910   33.5270   -1.6880 N.am  152  SER152     -0.1952
     40  CA       -64.9350   34.2470   -2.9170 C.3   152  SER152      0.1924
     41  C        -66.2870   33.7490   -3.4640 C.2   152  SER152      0.2314
     42  O        -67.2910   33.8390   -2.7610 O.2   152  SER152     -0.2863
     43  CB       -63.7780   34.1100   -3.9170 C.3   152  SER152      0.2116
     44  OG       -63.9050   35.0360   -4.9930 O.3   152  SER152     -0.2180
     45  N        -63.8730   36.4050    2.1420 N.3   180  TYR180     -0.1241
     46  CA       -64.0580   37.4230    1.0830 C.3   180  TYR180      0.1605
     47  C        -65.0960   37.0240    0.0190 C.2   180  TYR180      0.2264
     48  O        -64.7650   36.8430   -1.1600 O.2   180  TYR180     -0.2867
     49  CB       -62.7030   37.8030    0.4230 C.3   180  TYR180      0.0534
     50  CG       -61.6310   36.7330    0.3720 C.ar  180  TYR180     -0.0201
     51  CD1      -61.6730   35.7180   -0.5870 C.ar  180  TYR180     -0.0009
     52  CD2      -60.5670   36.7430    1.2720 C.ar  180  TYR180     -0.0009
     53  CE1      -60.6800   34.7360   -0.6350 C.ar  180  TYR180      0.0417
     54  CE2      -59.5710   35.7670    1.2350 C.ar  180  TYR180      0.0417
     55  CZ       -59.6370   34.7610    0.2780 C.ar  180  TYR180      0.1957
     56  OH       -58.6700   33.7790    0.2320 O.3   180  TYR180     -0.2866
     57  N        -54.7090   41.4600   -8.1050 N.3   201  TYR201     -0.1227
     58  CA       -55.0680   40.0670   -8.4330 C.3   201  TYR201      0.1736
     59  C        -56.4950   39.8910   -8.9910 C.2   201  TYR201      0.2595
     60  O        -56.6600   39.2550  -10.0300 O.2   201  TYR201     -0.2718
     61  CB       -54.8430   39.1610   -7.2110 C.3   201  TYR201      0.0548
     62  CG       -55.1490   37.6970   -7.4510 C.ar  201  TYR201     -0.0200
     63  CD1      -54.5200   36.9930   -8.4750 C.ar  201  TYR201     -0.0009
     64  CD2      -56.0490   37.0150   -6.6390 C.ar  201  TYR201     -0.0009
     65  CE1      -54.7950   35.6510   -8.6920 C.ar  201  TYR201      0.0417
     66  CE2      -56.3300   35.6770   -6.8470 C.ar  201  TYR201      0.0417
     67  CZ       -55.7010   35.0030   -7.8720 C.ar  201  TYR201      0.1957
     68  OH       -55.9870   33.6740   -8.0770 O.3   201  TYR201     -0.2866
     69  N        -57.5140   40.4340   -8.3250 N.am  202  LEU202     -0.1980
     70  CA       -58.8810   40.4210   -8.8560 C.3   202  LEU202      0.1596
     71  C        -59.2850   41.8020   -9.3800 C.2   202  LEU202      0.2287
     72  O        -59.0810   42.8110   -8.7120 O.2   202  LEU202     -0.2864
     73  CB       -59.8830   39.9660   -7.7870 C.3   202  LEU202      0.0297
     74  CG       -61.3750   39.9150   -8.1600 C.3   202  LEU202      0.0022
     75  CD1      -61.6670   38.8460   -9.2120 C.3   202  LEU202      0.0001
     76  CD2      -62.2200   39.6710   -6.9090 C.3   202  LEU202      0.0001
     77  N        -64.6330   40.3700  -12.3330 N.3   207  MET207     -0.1245
     78  CA       -65.9340   40.0670  -11.7370 C.3   207  MET207      0.1570
     79  C        -67.0910   40.1880  -12.7280 C.2   207  MET207      0.2261
     80  O        -68.0270   39.4080  -12.6640 O.2   207  MET207     -0.2867
     81  CB       -66.2170   40.9620  -10.5200 C.3   207  MET207      0.0387
     82  CG       -65.4170   40.5990   -9.2690 C.3   207  MET207      0.0595
     83  SD       -65.4600   38.8150   -8.8740 S.3   207  MET207     -0.1393
     84  CE       -67.2070   38.4960   -8.7760 C.3   207  MET207      0.0692
     85  N        -67.0340   36.8870  -14.6340 N.3   210  PHE210     -0.1241
     86  CA       -67.5850   35.8010  -13.8260 C.3   210  PHE210      0.1605
     87  C        -69.1140   35.9060  -13.7260 C.2   210  PHE210      0.2264
     88  O        -69.8280   34.9250  -13.9540 O.2   210  PHE210     -0.2867
     89  CB       -66.9790   35.8270  -12.4170 C.3   210  PHE210      0.0534
     90  CG       -65.5510   35.3610  -12.3250 C.ar  210  PHE210     -0.0203
     91  CD1      -65.1340   34.1750  -12.9030 C.ar  210  PHE210     -0.0042
     92  CD2      -64.6360   36.0820  -11.5800 C.ar  210  PHE210     -0.0042
     93  CE1      -63.8120   33.7460  -12.7640 C.ar  210  PHE210     -0.0003
     94  CE2      -63.3220   35.6590  -11.4420 C.ar  210  PHE210     -0.0003
     95  CZ       -62.9190   34.4810  -12.0280 C.ar  210  PHE210     -0.0000
     96  N        -57.6520   40.1140   -2.2330 N.3   278  HIS278     -0.1226
     97  CA       -58.4900   38.9660   -2.5350 C.3   278  HIS278      0.1752
     98  C        -57.6550   37.6900   -2.6430 C.2   278  HIS278      0.2596
     99  O        -56.5900   37.6840   -3.2490 O.2   278  HIS278     -0.2718
    100  CB       -59.2450   39.1940   -3.8350 C.3   278  HIS278      0.0759
    101  CG       -60.3090   38.1790   -4.0870 C.ar  278  HIS278      0.0818
    102  ND1      -61.5200   38.2080   -3.4320 N.ar  278  HIS278     -0.2268
    103  CD2      -60.3390   37.0980   -4.9000 C.ar  278  HIS278      0.1154
    104  CE1      -62.2580   37.1900   -3.8430 C.ar  278  HIS278      0.1986
    105  NE2      -61.5660   36.5080   -4.7370 N.ar  278  HIS278     -0.2212
    106  N        -58.1370   36.6000   -2.0580 N.am  279  GLY279     -0.1957
    107  CA       -57.4670   35.3370   -2.2270 C.3   279  GLY279      0.1869
    108  C        -56.4410   35.0160   -1.1600 C.2   279  GLY279      0.2309
    109  O        -55.8100   33.9670   -1.2260 O.2   279  GLY279     -0.2863
    110  N        -55.4540   31.6180    0.6100 N.3   282  SER282     -0.1202
    111  CA       -54.7600   30.5830   -0.1390 C.3   282  SER282      0.2020
    112  C        -53.2780   30.8900   -0.2760 C.2   282  SER282      0.2618
    113  O        -52.5130   30.0880   -0.8180 O.2   282  SER282     -0.2717
    114  CB       -55.4140   30.4220   -1.5060 C.3   282  SER282      0.2103
    115  OG       -56.7820   30.0540   -1.3340 O.3   282  SER282     -0.2182
    116  N        -52.8650   32.0420    0.2330 N.am  283  MET283     -0.1979
    117  CA       -51.5010   32.5170    0.0260 C.3   283  MET283      0.1605
    118  C        -50.6230   32.3930    1.2670 C.2   283  MET283      0.2287
    119  O        -49.6040   33.0800    1.3780 O.2   283  MET283     -0.2864
    120  CB       -51.5210   33.9820   -0.4280 C.3   283  MET283      0.0413
    121  CG       -52.2740   34.1960   -1.7280 C.3   283  MET283      0.0598
    122  SD       -52.5690   35.9430   -2.0820 S.3   283  MET283     -0.1393
    123  CE       -53.6100   35.7450   -3.5320 C.3   283  MET283      0.0692
@<TRIPOS>BOND
     1    85    86    1
     2    19    17    1
     3    88    87    2
     4    86    87    1
     5    86    89    1
     6    91    93   ar
     7    91    90   ar
     8    17    14    1
     9    17    18    1
    10    93    95   ar
    11    79    80    2
    12    79    78    1
    13    13    14    1
    14    89    90    1
    15    14    15    1
    16    77    78    1
    17    90    92   ar
    18    20    18    1
    19    95    94   ar
    20    78    81    1
    21    92    94   ar
    22    12    11    2
    23    15    16    2
    24     8     7    2
    25    81    82    1
    26    11    10    1
    27    60    59    2
    28    10     9    1
    29     7     9   am
    30     7     6    1
    31    71    70    1
    32    71    72    2
    33    82    83    1
    34    75    74    1
    35    59    58    1
    36    59    69   am
    37    83    84    1
    38    70    69    1
    39    70    73    1
    40     6     5    1
    41    65    63   ar
    42    65    67   ar
    43    63    62   ar
    44    58    57    1
    45    58    61    1
    46    74    73    1
    47    74    76    1
    48    68    67    1
    49    67    66   ar
    50    62    61    1
    51    62    64   ar
    52     5     3   am
    53     4     3    2
    54    66    64   ar
    55     3     2    1
    56     2     1    1
    57    29    27   ar
    58    29    30   ar
    59    44    43    1
    60   103   105   ar
    61   103   101   ar
    62    27    26   ar
    63   105   104   ar
    64    21    22    1
    65   101   100    1
    66   101   102   ar
    67    43    40    1
    68   104   102   ar
    69    30    28   ar
    70   100    97    1
    71   123   122    1
    72    26    25    1
    73    26    28   ar
    74    41    40    1
    75    41    42    2
    76    99    98    2
    77    22    25    1
    78    22    23    1
    79    40    39    1
    80    98    97    1
    81    98   106   am
    82    34    33    2
    83    97    96    1
    84    38    36   ar
    85   107   106    1
    86   107   108    1
    87   122   121    1
    88    23    24    2
    89   121   120    1
    90    39    33   am
    91    33    32    1
    92    36    37   ar
    93    36    35    1
    94   114   115    1
    95   114   111    1
    96   109   108    2
    97    48    47    2
    98   113   112    2
    99    53    51   ar
   100    53    55   ar
   101    51    50   ar
   102    35    32    1
   103   120   117    1
   104    32    31    1
   105   112   111    1
   106   112   116   am
   107   111   110    1
   108    47    46    1
   109   117   116    1
   110   117   118    1
   111    56    55    1
   112    55    54   ar
   113    50    49    1
   114    50    52   ar
   115    49    46    1
   116    46    45    1
   117    54    52   ar
   118   118   119    2
