@<TRIPOS>MOLECULE
tmp/6aaeB06.pdb
 107 100 0 0 0
SMALL
GASTEIGER

@<TRIPOS>ATOM
      1  N        -56.1020   15.9600   15.3300 N.3    66  ASP66      -0.1225
      2  CA       -56.7160   15.8630   16.6520 C.3    66  ASP66       0.1805
      3  C        -58.2340   16.0380   16.6250 C.2    66  ASP66       0.2598
      4  O        -58.8300   16.5500   17.5670 O.2    66  ASP66      -0.2718
      5  CB       -56.0780   16.8840   17.5920 C.3    66  ASP66       0.1424
      6  CG       -54.5950   16.6190   17.8150 C.2    66  ASP66       0.3668
      7  OD1      -54.2590   15.6250   18.5000 O.co2  66  ASP66      -0.2456
      8  OD2      -53.7650   17.3990   17.2980 O.co2  66  ASP66      -0.2456
      9  N        -58.8620   15.5920   15.5460 N.am   67  ALA67      -0.1966
     10  CA       -60.3130   15.6470   15.4480 C.3    67  ALA67       0.1728
     11  C        -60.9410   14.6170   16.3840 C.2    67  ALA67       0.2616
     12  O        -60.3070   13.6200   16.7240 O.2    67  ALA67      -0.2715
     13  CB       -60.7570   15.4050   14.0100 C.3    67  ALA67       0.0334
     14  N        -62.1820   14.8690   16.7940 N.am   68  ASP68      -0.1971
     15  CA       -62.9750   13.9070   17.5670 C.3    68  ASP68       0.1709
     16  C        -63.1330   12.5810   16.8340 C.2    68  ASP68       0.2293
     17  O        -62.9660   12.5260   15.6230 O.2    68  ASP68      -0.2864
     18  CB       -64.3590   14.4820   17.8760 C.3    68  ASP68       0.1436
     19  CG       -64.2930   15.7300   18.7300 C.2    68  ASP68       0.3671
     20  OD1      -63.4550   15.7690   19.6590 O.co2  68  ASP68      -0.2456
     21  OD2      -65.0780   16.6690   18.4730 O.co2  68  ASP68      -0.2456
     22  N        -66.9400   16.9410   13.8430 N.3    72  ALA72      -0.1245
     23  CA       -67.8500   17.8840   13.2170 C.3    72  ALA72       0.1562
     24  C        -67.3840   18.0460   11.7830 C.2    72  ALA72       0.2260
     25  O        -66.2290   17.7540   11.4810 O.2    72  ALA72      -0.2867
     26  CB       -67.8440   19.2090   13.9340 C.3    72  ALA72       0.0290
     27  N        -56.9130   21.7880    9.7910 N.3    99  GLN99      -0.1231
     28  CA       -55.8620   21.7500   10.8080 C.3    99  GLN99       0.1698
     29  C        -56.1240   22.7480   11.9370 C.2    99  GLN99       0.2592
     30  O        -56.0040   22.4170   13.1190 O.2    99  GLN99      -0.2718
     31  CB       -54.5140   22.0310   10.1480 C.3    99  GLN99       0.0381
     32  CG       -53.3090   21.9690   11.0710 C.3    99  GLN99       0.0905
     33  CD       -52.0210   22.2780   10.3240 C.2    99  GLN99       0.2608
     34  OE1      -51.8140   23.4010    9.8620 O.2    99  GLN99      -0.2717
     35  NE2      -51.1570   21.2820   10.1880 N.am   99  GLN99      -0.0878
     36  N        -56.5180   23.9640   11.5820 N.am  100  LYS100     -0.1966
     37  CA       -56.7120   24.9840   12.6050 C.3   100  LYS100      0.1728
     38  C        -58.0810   24.9340   13.2770 C.2   100  LYS100      0.2617
     39  O        -58.2880   25.6160   14.2800 O.2   100  LYS100     -0.2715
     40  CB       -56.4890   26.3870   12.0230 C.3   100  LYS100      0.0311
     41  CG       -55.0490   26.6380   11.5660 C.3   100  LYS100      0.0038
     42  CD       -54.0580   26.3330   12.6780 C.3   100  LYS100      0.0206
     43  CE       -52.6330   26.5960   12.2300 C.3   100  LYS100      0.1093
     44  NZ       -51.6270   26.1520   13.2550 N.3   100  LYS100     -0.1314
     45  N        -59.0190   24.1620   12.7380 N.am  101  SER101     -0.1936
     46  CA       -60.3470   24.0600   13.3500 C.3   101  SER101      0.2055
     47  C        -60.5590   22.7730   14.1430 C.2   101  SER101      0.2644
     48  O        -61.4200   22.7220   15.0230 O.2   101  SER101     -0.2714
     49  CB       -61.4490   24.1490   12.2940 C.3   101  SER101      0.2130
     50  OG       -61.4810   22.9680   11.5020 O.3   101  SER101     -0.2179
     51  N        -59.8150   21.7230   13.8100 N.am  102  GLY102     -0.1939
     52  CA       -60.0500   20.4310   14.4300 C.3   102  GLY102      0.2014
     53  C        -61.2970   19.7460   13.8990 C.2   102  GLY102      0.2639
     54  O        -61.7480   18.7410   14.4510 O.2   102  GLY102     -0.2714
     55  N        -61.8600   20.2910   12.8200 N.am  103  CYS103     -0.1967
     56  CA       -63.0540   19.7270   12.2150 C.3   103  CYS103      0.1712
     57  C        -62.7290   19.0690   10.8940 C.2   103  CYS103      0.2296
     58  O        -61.7610   19.4660   10.2440 O.2   103  CYS103     -0.2864
     59  CB       -64.1070   20.8050   11.9680 C.3   103  CYS103      0.0983
     60  SG       -64.5590   21.7320   13.4400 S.3   103  CYS103     -0.0798
     61  N        -73.4560   18.1490   13.7860 N.3   145  ARG145     -0.1245
     62  CA       -72.5660   19.2860   13.9270 C.3   145  ARG145      0.1563
     63  C        -72.0250   19.6670   12.5500 C.2   145  ARG145      0.2260
     64  O        -70.9280   19.2610   12.1780 O.2   145  ARG145     -0.2867
     65  CB       -71.4330   18.9690   14.8990 C.3   145  ARG145      0.0307
     66  CG       -71.9090   18.7290   16.3370 C.3   145  ARG145      0.0489
     67  CD       -70.7250   18.6410   17.2930 C.3   145  ARG145      0.2205
     68  NE       -69.9330   17.4290   17.0810 N.pl3 145  ARG145     -0.0865
     69  CZ       -68.6240   17.3340   17.2950 C.cat 145  ARG145      0.5346
     70  NH1      -67.9340   18.3870   17.7040 N.pl3 145  ARG145      0.1354
     71  NH2      -67.9950   16.1850   17.0900 N.pl3 145  ARG145      0.1354
     72  N        -61.1030   29.0970   14.1370 N.3   299  SER299     -0.1217
     73  CA       -61.4130   29.1130   15.5650 C.3   299  SER299      0.1889
     74  C        -62.8940   29.3710   15.8190 C.2   299  SER299      0.2288
     75  O        -63.4960   28.7660   16.7030 O.2   299  SER299     -0.2866
     76  CB       -60.5790   30.1790   16.2820 C.3   299  SER299      0.2089
     77  OG       -60.8790   30.2030   17.6700 O.3   299  SER299     -0.2183
     78  N        -64.5750   26.1110   15.2000 N.3   302  LYS302     -0.1245
     79  CA       -64.3570   25.2000   16.3220 C.3   302  LYS302      0.1561
     80  C        -65.2970   25.5160   17.4740 C.2   302  LYS302      0.2260
     81  O        -65.8250   24.6180   18.1330 O.2   302  LYS302     -0.2867
     82  CB       -62.9060   25.2890   16.7990 C.3   302  LYS302      0.0271
     83  CG       -62.5730   24.3560   17.9480 C.3   302  LYS302      0.0035
     84  CD       -61.0890   24.3660   18.2820 C.3   302  LYS302      0.0206
     85  CE       -60.7770   23.2230   19.2470 C.3   302  LYS302      0.1093
     86  NZ       -59.3690   23.1980   19.7260 N.3   302  LYS302     -0.1314
     87  N        -68.9880   24.5850   16.4480 N.3   305  LEU305     -0.1231
     88  CA       -69.1340   23.1470   16.2340 C.3   305  LEU305      0.1693
     89  C        -68.6830   22.3320   17.4330 C.2   305  LEU305      0.2592
     90  O        -68.4270   21.1380   17.3010 O.2   305  LEU305     -0.2718
     91  CB       -68.3260   22.6950   15.0160 C.3   305  LEU305      0.0284
     92  CG       -68.8300   23.1800   13.6580 C.3   305  LEU305      0.0019
     93  CD1      -67.7720   22.9210   12.6070 C.3   305  LEU305      0.0001
     94  CD2      -70.1100   22.4660   13.3060 C.3   305  LEU305      0.0001
     95  N        -68.5840   22.9750   18.5910 N.am  306  ALA306     -0.1966
     96  CA       -68.0020   22.3490   19.7750 C.3   306  ALA306      0.1728
     97  C        -68.6960   21.0580   20.1890 C.2   306  ALA306      0.2616
     98  O        -69.9030   20.9020   20.0530 O.2   306  ALA306     -0.2715
     99  CB       -68.0110   23.3240   20.9370 C.3   306  ALA306      0.0334
    100  N        -67.8870   20.1440   20.7040 N.am  307  LEU307     -0.1977
    101  CA       -68.3310   18.8620   21.2210 C.3   307  LEU307      0.1596
    102  C        -69.2060   19.0260   22.4700 C.2   307  LEU307      0.2287
    103  O        -69.0280   19.9730   23.2460 O.2   307  LEU307     -0.2864
    104  CB       -67.0970   18.0040   21.5360 C.3   307  LEU307      0.0297
    105  CG       -67.2110   16.5160   21.8570 C.3   307  LEU307      0.0022
    106  CD1      -67.9730   15.7810   20.7740 C.3   307  LEU307      0.0001
    107  CD2      -65.8140   15.9300   22.0250 C.3   307  LEU307      0.0001
@<TRIPOS>BOND
     1    27    28    1
     2    34    33    2
     3    31    28    1
     4    31    32    1
     5    35    33   am
     6    58    57    2
     7    33    32    1
     8    28    29    1
     9    57    56    1
    10    25    24    2
    11    50    49    1
    12    41    40    1
    13    41    42    1
    14    36    29   am
    15    36    37    1
    16    24    23    1
    17    29    30    2
    18    59    56    1
    19    59    60    1
    20    40    37    1
    21    64    63    2
    22    56    55    1
    23    43    42    1
    24    43    44    1
    25    49    46    1
    26    63    62    1
    27    37    38    1
    28    93    92    1
    29    45    38   am
    30    45    46    1
    31    55    53   am
    32    23    22    1
    33    23    26    1
    34    38    39    2
    35    94    92    1
    36    46    47    1
    37    92    91    1
    38    61    62    1
    39    51    47   am
    40    51    52    1
    41    53    52    1
    42    53    54    2
    43    62    65    1
    44    13    10    1
    45    72    73    1
    46    47    48    2
    47    65    66    1
    48    91    88    1
    49    78    79    1
    50     1     2    1
    51    10     9    1
    52    10    11    1
    53     9     3   am
    54    73    74    1
    55    73    76    1
    56    17    16    2
    57    74    75    2
    58    88    87    1
    59    88    89    1
    60    76    77    1
    61    79    82    1
    62    79    80    1
    63    66    67    1
    64    11    12    2
    65    11    14   am
    66     3     2    1
    67     3     4    2
    68     2     5    1
    69    14    15    1
    70    82    83    1
    71    16    15    1
    72    68    67    1
    73    68    69    2
    74    71    69    1
    75    69    70    1
    76     8     6   ar
    77    90    89    2
    78    89    95   am
    79    80    81    2
    80    15    18    1
    81     5     6    1
    82     6     7   ar
    83    18    19    1
    84    83    84    1
    85    84    85    1
    86    21    19   ar
    87    95    96    1
    88    19    20   ar
    89    85    86    1
    90    96    97    1
    91    96    99    1
    92    98    97    2
    93    97   100   am
    94   100   101    1
    95   106   105    1
    96   101   104    1
    97   101   102    1
    98   104   105    1
    99   105   107    1
   100   102   103    2
