@<TRIPOS>MOLECULE
tmp/6aahB00.pdb
 161 151 0 0 0
SMALL
GASTEIGER

@<TRIPOS>ATOM
      1  N        -17.9780  -53.2850  -16.0520 N.3    15  ARG15      -0.1245
      2  CA       -18.9550  -53.0140  -17.1100 C.3    15  ARG15       0.1563
      3  C        -18.7100  -51.6630  -17.7780 C.2    15  ARG15       0.2260
      4  O        -17.9620  -50.8350  -17.2620 O.2    15  ARG15      -0.2867
      5  CB       -20.3940  -53.0490  -16.5720 C.3    15  ARG15       0.0307
      6  CG       -20.7230  -51.9720  -15.5480 C.3    15  ARG15       0.0489
      7  CD       -22.2180  -51.8560  -15.2830 C.3    15  ARG15       0.2205
      8  NE       -22.5140  -50.7070  -14.4200 N.pl3  15  ARG15      -0.0865
      9  CZ       -22.5220  -50.7440  -13.0890 C.cat  15  ARG15       0.5346
     10  NH1      -22.2660  -51.8760  -12.4460 N.pl3  15  ARG15       0.1354
     11  NH2      -22.7970  -49.6440  -12.3970 N.pl3  15  ARG15       0.1354
     12  N        -19.5730  -47.8820  -18.8830 N.3    17  LEU17      -0.1231
     13  CA       -20.3220  -46.7010  -18.4290 C.3    17  LEU17       0.1693
     14  C        -20.7890  -45.7860  -19.5880 C.2    17  LEU17       0.2592
     15  O        -21.8560  -45.1600  -19.5010 O.2    17  LEU17      -0.2718
     16  CB       -19.4870  -45.9310  -17.3990 C.3    17  LEU17       0.0284
     17  CG       -19.1370  -46.7510  -16.1370 C.3    17  LEU17       0.0019
     18  CD1      -18.1490  -45.9890  -15.2510 C.3    17  LEU17       0.0001
     19  CD2      -20.3940  -47.0930  -15.3520 C.3    17  LEU17       0.0001
     20  N        -20.0050  -45.7010  -20.6570 N.am   18  GLY18      -0.1957
     21  CA       -20.4240  -44.9720  -21.8750 C.3    18  GLY18       0.1869
     22  C        -19.2760  -44.8860  -22.8490 C.2    18  GLY18       0.2309
     23  O        -18.1340  -45.0090  -22.4330 O.2    18  GLY18      -0.2863
     24  N        -15.5500  -45.0660  -21.4160 N.3    25  VAL25      -0.1245
     25  CA       -15.4140  -45.1020  -19.9640 C.3    25  VAL25       0.1561
     26  C        -16.0300  -46.4240  -19.4080 C.2    25  VAL25       0.2260
     27  O        -17.1900  -46.7170  -19.6540 O.2    25  VAL25      -0.2867
     28  CB       -16.0640  -43.8780  -19.3130 C.3    25  VAL25       0.0252
     29  CG1      -15.9310  -43.9250  -17.7960 C.3    25  VAL25       0.0019
     30  CG2      -15.3990  -42.5970  -19.8330 C.3    25  VAL25       0.0019
     31  N        -13.6500  -45.3070  -12.2770 N.3    42  ALA42      -0.1245
     32  CA       -14.0370  -45.0530  -13.6510 C.3    42  ALA42       0.1562
     33  C        -12.7370  -44.9530  -14.4560 C.2    42  ALA42       0.2260
     34  O        -11.7920  -44.2840  -14.0440 O.2    42  ALA42      -0.2867
     35  CB       -14.8510  -43.7660  -13.7470 C.3    42  ALA42       0.0290
     36  N        -11.1010  -44.3260  -18.2960 N.3    44  LYS44      -0.1245
     37  CA       -11.2580  -43.8470  -19.6670 C.3    44  LYS44       0.1561
     38  C        -10.1010  -44.3510  -20.5120 C.2    44  LYS44       0.2260
     39  O         -8.9430  -44.1580  -20.1490 O.2    44  LYS44      -0.2867
     40  CB       -11.3130  -42.3160  -19.6970 C.3    44  LYS44       0.0271
     41  CG       -11.4390  -41.7090  -21.0870 C.3    44  LYS44       0.0035
     42  CD       -12.4580  -40.5820  -21.0670 C.3    44  LYS44       0.0206
     43  CE       -12.2270  -39.5570  -22.1530 C.3    44  LYS44       0.1093
     44  NZ       -13.0060  -38.3170  -21.8580 N.3    44  LYS44      -0.1314
     45  N        -15.1880  -33.4940  -11.6600 N.3    70  VAL70      -0.1245
     46  CA       -14.8400  -34.8790  -11.3040 C.3    70  VAL70       0.1561
     47  C        -13.3450  -35.0410  -10.9550 C.2    70  VAL70       0.2260
     48  O        -12.4800  -34.4380  -11.5900 O.2    70  VAL70      -0.2867
     49  CB       -15.2580  -35.8700  -12.4090 C.3    70  VAL70       0.0252
     50  CG1      -14.3710  -35.7590  -13.6360 C.3    70  VAL70       0.0019
     51  CG2      -15.2830  -37.3090  -11.8760 C.3    70  VAL70       0.0019
     52  N        -10.4210  -42.1920  -12.8730 N.3    88  MET88      -0.1230
     53  CA       -11.2120  -41.1840  -12.1830 C.3    88  MET88       0.1702
     54  C        -12.0530  -41.8060  -11.0680 C.2    88  MET88       0.2592
     55  O        -12.2710  -43.0460  -11.0110 O.2    88  MET88      -0.2718
     56  CB       -12.1200  -40.4740  -13.1910 C.3    88  MET88       0.0401
     57  CG       -11.3880  -39.6540  -14.2650 C.3    88  MET88       0.0596
     58  SD       -12.4210  -39.1720  -15.6470 S.3    88  MET88      -0.1393
     59  CE       -12.5720  -40.7720  -16.4750 C.3    88  MET88       0.0692
     60  N        -12.5530  -40.9470  -10.1830 N.am   89  GLU89      -0.1966
     61  CA       -13.5380  -41.3890   -9.1910 C.3    89  GLU89       0.1733
     62  C        -14.8100  -41.8640   -9.8710 C.2    89  GLU89       0.2616
     63  O        -15.2000  -41.3300  -10.9180 O.2    89  GLU89      -0.2715
     64  CB       -13.8640  -40.3040   -8.1870 C.3    89  GLU89       0.0429
     65  CG       -14.5020  -39.0660   -8.8050 C.3    89  GLU89       0.1163
     66  CD       -14.9800  -38.0780   -7.7720 C.2    89  GLU89       0.3649
     67  OE1      -15.1930  -38.4700   -6.6040 O.co2  89  GLU89      -0.2457
     68  OE2      -15.1310  -36.8800   -8.1440 O.co2  89  GLU89      -0.2457
     69  N        -15.4120  -42.9070   -9.3010 N.am   90  PHE90      -0.1960
     70  CA       -16.6610  -43.4730   -9.7570 C.3    90  PHE90       0.1771
     71  C        -17.8320  -42.9090   -8.9540 C.2    90  PHE90       0.2619
     72  O        -17.8580  -43.0010   -7.7450 O.2    90  PHE90      -0.2715
     73  CB       -16.6390  -45.0270   -9.6410 C.3    90  PHE90       0.0574
     74  CG       -17.9420  -45.6640  -10.0050 C.ar   90  PHE90      -0.0200
     75  CD1      -18.4840  -45.4640  -11.2750 C.ar   90  PHE90      -0.0042
     76  CD2      -18.6300  -46.4640   -9.0930 C.ar   90  PHE90      -0.0042
     77  CE1      -19.6880  -46.0250  -11.6360 C.ar   90  PHE90      -0.0003
     78  CE2      -19.8430  -47.0390   -9.4450 C.ar   90  PHE90      -0.0003
     79  CZ       -20.3760  -46.8120  -10.7190 C.ar   90  PHE90      -0.0000
     80  N        -18.7850  -42.3190   -9.6650 N.am   91  LEU91      -0.1964
     81  CA       -20.0350  -41.8070   -9.1700 C.3    91  LEU91       0.1713
     82  C        -21.1690  -42.7250   -9.6480 C.2    91  LEU91       0.2458
     83  O        -21.6140  -42.6160  -10.8060 O.2    91  LEU91      -0.2730
     84  CB       -20.2440  -40.3650   -9.6700 C.3    91  LEU91       0.0310
     85  CG       -19.5200  -39.3210   -8.8450 C.3    91  LEU91       0.0022
     86  CD1      -18.0250  -39.5320   -8.8710 C.3    91  LEU91       0.0001
     87  CD2      -19.8790  -37.9200   -9.3470 C.3    91  LEU91       0.0001
     88  N        -21.6450  -43.6390   -8.7580 N.am   92  PRO92      -0.2727
     89  CA       -22.7070  -44.6070   -9.0870 C.3    92  PRO92       0.1402
     90  C        -23.9440  -44.0520   -9.7160 C.2    92  PRO92       0.2269
     91  O        -24.4890  -44.6830  -10.6010 O.2    92  PRO92      -0.2865
     92  CB       -23.0690  -45.2160   -7.7160 C.3    92  PRO92       0.0296
     93  CG       -21.8230  -45.1170   -6.9300 C.3    92  PRO92       0.0237
     94  CD       -21.1420  -43.8460   -7.3760 C.3    92  PRO92       0.0939
     95  N        -24.4430  -41.7690  -11.8780 N.3    94  GLY94      -0.1210
     96  CA       -24.3190  -41.5460  -13.3250 C.3    94  GLY94       0.1956
     97  C        -24.5640  -40.1280  -13.7340 C.2    94  GLY94       0.2612
     98  O        -24.6590  -39.2390  -12.8820 O.2    94  GLY94      -0.2717
     99  N        -24.6800  -39.9190  -15.0430 N.am   95  SER95      -0.1952
    100  CA       -24.8870  -38.5760  -15.5630 C.3    95  SER95       0.1924
    101  C        -26.3300  -38.1220  -15.3690 C.2    95  SER95       0.2314
    102  O        -27.2210  -38.9290  -15.0900 O.2    95  SER95      -0.2863
    103  CB       -24.5310  -38.5140  -17.0470 C.3    95  SER95       0.2116
    104  OG       -25.5660  -39.0370  -17.8370 O.3    95  SER95      -0.2180
    105  N        -28.3050  -37.4740  -17.7440 N.3    97  LYS97      -0.1231
    106  CA       -29.0390  -38.2510  -18.7360 C.3    97  LYS97       0.1693
    107  C        -29.6540  -39.5180  -18.1490 C.2    97  LYS97       0.2591
    108  O        -30.8190  -39.8050  -18.4110 O.2    97  LYS97      -0.2718
    109  CB       -28.1450  -38.5650  -19.9590 C.3    97  LYS97       0.0285
    110  CG       -28.8320  -39.3420  -21.0580 C.3    97  LYS97       0.0035
    111  CD       -27.8700  -39.6010  -22.2100 C.3    97  LYS97       0.0206
    112  CE       -27.6400  -41.1000  -22.4420 C.3    97  LYS97       0.1093
    113  NZ       -26.7860  -41.6650  -21.4130 N.3    97  LYS97      -0.1314
    114  N        -28.8850  -40.2490  -17.3390 N.am   98  GLU98      -0.1979
    115  CA       -29.3550  -41.4390  -16.6510 C.3    98  GLU98       0.1602
    116  C        -30.2060  -41.0810  -15.4430 C.2    98  GLU98       0.2287
    117  O        -31.2640  -41.6690  -15.2320 O.2    98  GLU98      -0.2864
    118  CB       -28.1560  -42.2980  -16.1950 C.3    98  GLU98       0.0415
    119  CG       -28.5310  -43.6630  -15.6290 C.3    98  GLU98       0.1163
    120  CD       -27.3430  -44.4480  -15.0850 C.2    98  GLU98       0.3649
    121  OE1      -26.1940  -44.0190  -15.2730 O.co2  98  GLU98      -0.2457
    122  OE2      -27.5640  -45.4970  -14.4510 O.co2  98  GLU98      -0.2457
    123  N        -25.2650  -34.9560  -20.5090 N.3   139  ARG139     -0.1231
    124  CA       -24.6690  -36.2990  -20.4870 C.3   139  ARG139      0.1694
    125  C        -23.2770  -36.3400  -19.8440 C.2   139  ARG139      0.2592
    126  O        -22.8550  -37.3900  -19.3690 O.2   139  ARG139     -0.2718
    127  CB       -24.5740  -36.8650  -21.9050 C.3   139  ARG139      0.0321
    128  CG       -23.5880  -36.1430  -22.8090 C.3   139  ARG139      0.0489
    129  CD       -23.4690  -36.8310  -24.1650 C.3   139  ARG139      0.2205
    130  NE       -22.5570  -37.9730  -24.1640 N.pl3 139  ARG139     -0.0865
    131  CZ       -22.9360  -39.2410  -24.0190 C.cat 139  ARG139      0.5346
    132  NH1      -24.2170  -39.5400  -23.8410 N.pl3 139  ARG139      0.1354
    133  NH2      -22.0330  -40.2130  -24.0420 N.pl3 139  ARG139      0.1354
    134  N        -22.5730  -35.2050  -19.8540 N.am  140  ASN140     -0.1974
    135  CA       -21.2430  -35.0770  -19.2450 C.3   140  ASN140      0.1688
    136  C        -21.2240  -34.4490  -17.8450 C.2   140  ASN140      0.2292
    137  O        -20.1480  -34.1440  -17.3380 O.2   140  ASN140     -0.2864
    138  CB       -20.3220  -34.2650  -20.1670 C.3   140  ASN140      0.1181
    139  CG       -20.0240  -34.9810  -21.4620 C.2   140  ASN140      0.2629
    140  OD1      -19.8940  -36.2150  -21.5000 O.2   140  ASN140     -0.2716
    141  ND2      -19.9130  -34.2200  -22.5340 N.am  140  ASN140     -0.0877
    142  N        -22.0350  -35.4370  -14.0970 N.3   142  LEU142     -0.1245
    143  CA       -22.2560  -36.5460  -13.1840 C.3   142  LEU142      0.1561
    144  C        -22.9600  -36.1070  -11.9000 C.2   142  LEU142      0.2260
    145  O        -22.8030  -34.9600  -11.4350 O.2   142  LEU142     -0.2867
    146  CB       -20.9180  -37.2040  -12.8380 C.3   142  LEU142      0.0270
    147  CG       -20.2340  -37.8760  -14.0180 C.3   142  LEU142      0.0019
    148  CD1      -18.7950  -38.2470  -13.6650 C.3   142  LEU142      0.0001
    149  CD2      -21.0020  -39.1400  -14.4060 C.3   142  LEU142      0.0001
    150  N        -17.9950  -34.0810  -15.5880 N.3   152  GLY152     -0.1210
    151  CA       -17.3480  -35.3850  -15.6120 C.3   152  GLY152      0.1956
    152  C        -16.5810  -35.9030  -16.8140 C.2   152  GLY152      0.2611
    153  O        -16.2120  -37.0770  -16.8130 O.2   152  GLY152     -0.2717
    154  N        -16.3310  -35.0550  -17.8160 N.am  153  ASP153     -0.1973
    155  CA       -15.6290  -35.4570  -19.0540 C.3   153  ASP153      0.1709
    156  C        -14.9330  -34.2140  -19.5730 C.2   153  ASP153      0.2293
    157  O        -15.5550  -33.1330  -19.6000 O.2   153  ASP153     -0.2864
    158  CB       -16.6280  -35.9550  -20.1040 C.3   153  ASP153      0.1436
    159  CG       -16.0170  -36.1250  -21.4940 C.2   153  ASP153      0.3671
    160  OD1      -14.8130  -35.8840  -21.6910 O.co2 153  ASP153     -0.2456
    161  OD2      -16.7680  -36.5150  -22.4190 O.co2 153  ASP153     -0.2456
@<TRIPOS>BOND
     1   129   130    1
     2   129   128    1
     3   130   131    2
     4   133   131    1
     5   131   132    1
     6    22    23    2
     7    22    21    1
     8   128   127    1
     9   141   139   am
    10   112   111    1
    11   112   113    1
    12   161   159   ar
    13   111   110    1
    14    43    44    1
    15    43    42    1
    16   127   124    1
    17    21    20    1
    18   160   159   ar
    19   140   139    2
    20   159   158    1
    21   139   138    1
    22    24    25    1
    23    41    42    1
    24    41    40    1
    25   110   109    1
    26    20    14   am
    27    38    39    2
    28    38    37    1
    29   123   124    1
    30   124   125    1
    31   138   135    1
    32   158   155    1
    33    25    26    1
    34    25    28    1
    35   109   106    1
    36   134   125   am
    37   134   135    1
    38   125   126    2
    39    30    28    1
    40    40    37    1
    41    37    36    1
    42    27    26    2
    43   157   156    2
    44    14    15    2
    45    14    13    1
    46   156   155    1
    47    28    29    1
    48   135   136    1
    49   155   154    1
    50    12    13    1
    51   106   107    1
    52   106   105    1
    53    13    16    1
    54   108   107    2
    55   107   114   am
    56   136   137    2
    57   104   103    1
    58   154   152   am
    59     3     4    2
    60     3     2    1
    61    16    17    1
    62   114   115    1
    63     2     5    1
    64     2     1    1
    65   103   100    1
    66   152   153    2
    67   152   151    1
    68   115   118    1
    69   115   116    1
    70     5     6    1
    71    59    58    1
    72   118   119    1
    73    17    19    1
    74    17    18    1
    75    58    57    1
    76   119   120    1
    77   151   150    1
    78   100   101    1
    79   100    99    1
    80     6     7    1
    81   116   117    2
    82   101   102    2
    83     7     8    1
    84   121   120   ar
    85   120   122   ar
    86    99    97   am
    87    33    34    2
    88    33    32    1
    89     8     9    2
    90   149   147    1
    91    57    56    1
    92   142   143    1
    93   147   148    1
    94   147   146    1
    95    35    32    1
    96    97    96    1
    97    97    98    2
    98    32    31    1
    99    50    49    1
   100    96    95    1
   101    56    53    1
   102   143   146    1
   103   143   144    1
   104     9    10    1
   105     9    11    1
   106    52    53    1
   107    49    51    1
   108    49    46    1
   109    53    54    1
   110   144   145    2
   111    45    46    1
   112    77    75   ar
   113    77    79   ar
   114    48    47    2
   115    46    47    1
   116    75    74   ar
   117    54    55    2
   118    54    60   am
   119    63    62    2
   120    83    82    2
   121    79    78   ar
   122    91    90    2
   123    60    61    1
   124    74    73    1
   125    74    76   ar
   126    62    69   am
   127    62    61    1
   128    70    73    1
   129    70    69    1
   130    70    71    1
   131    90    89    1
   132    84    81    1
   133    84    85    1
   134    80    81    1
   135    80    71   am
   136    82    81    1
   137    82    88   am
   138    78    76   ar
   139    87    85    1
   140    61    64    1
   141    89    88    1
   142    89    92    1
   143    71    72    2
   144    86    85    1
   145    65    64    1
   146    65    66    1
   147    88    94    1
   148    68    66   ar
   149    66    67   ar
   150    92    93    1
   151    94    93    1
