@<TRIPOS>MOLECULE
tmp/6aajB00.pdb
 138 129 0 0 0
SMALL
GASTEIGER

@<TRIPOS>ATOM
      1  N         -8.9310  -30.1110   21.7830 N.3    13  LEU13      -0.1231
      2  CA        -9.2180  -28.8440   22.4840 C.3    13  LEU13       0.1693
      3  C        -10.0700  -27.9190   21.6060 C.2    13  LEU13       0.2593
      4  O        -10.8590  -27.1360   22.1300 O.2    13  LEU13      -0.2718
      5  CB        -7.9090  -28.1680   22.9080 C.3    13  LEU13       0.0284
      6  CG        -7.2240  -28.7740   24.1320 C.3    13  LEU13       0.0019
      7  CD1       -5.8290  -28.1940   24.3160 C.3    13  LEU13       0.0001
      8  CD2       -8.0670  -28.5660   25.3890 C.3    13  LEU13       0.0001
      9  N         -9.9070  -27.9960   20.2860 N.am   14  GLY14      -0.1942
     10  CA       -10.7980  -27.2620   19.3760 C.3    14  GLY14       0.2014
     11  C        -10.1070  -26.8370   18.0940 C.2    14  GLY14       0.2639
     12  O         -8.9210  -27.1230   17.8860 O.2    14  GLY14      -0.2714
     13  N        -10.8630  -26.1520   17.2380 N.am   15  LYS15      -0.1963
     14  CA       -10.3660  -25.7090   15.9340 C.3    15  LYS15       0.1728
     15  C        -10.2070  -24.1860   15.9300 C.2    15  LYS15       0.2616
     16  O        -11.1480  -23.4540   16.2270 O.2    15  LYS15      -0.2715
     17  CB       -11.3120  -26.1340   14.8050 C.3    15  LYS15       0.0311
     18  CG       -11.1080  -27.5410   14.2580 C.3    15  LYS15       0.0038
     19  CD       -11.8390  -28.6170   15.0450 C.3    15  LYS15       0.0206
     20  CE       -11.6680  -30.0060   14.4610 C.3    15  LYS15       0.1093
     21  NZ       -10.2500  -30.4540   14.4870 N.3    15  LYS15      -0.1314
     22  N         -9.0070  -23.7320   15.5890 N.am   16  GLY16      -0.1955
     23  CA        -8.7550  -22.3150   15.3800 C.3    16  GLY16       0.1869
     24  C         -9.1750  -21.8870   13.9830 C.2    16  GLY16       0.2309
     25  O        -10.1910  -22.3570   13.4510 O.2    16  GLY16      -0.2863
     26  N         -6.1390  -27.9350   17.5290 N.3    21  VAL21      -0.1245
     27  CA        -5.3670  -27.8990   18.7620 C.3    21  VAL21       0.1561
     28  C         -5.8300  -29.0550   19.6610 C.2    21  VAL21       0.2260
     29  O         -7.0310  -29.2790   19.8760 O.2    21  VAL21      -0.2867
     30  CB        -5.4480  -26.5190   19.4490 C.3    21  VAL21       0.0252
     31  CG1       -4.6230  -26.4700   20.7270 C.3    21  VAL21       0.0019
     32  CG2       -5.0240  -25.3900   18.5120 C.3    21  VAL21       0.0019
     33  N         -0.5160  -27.8320   25.2150 N.3    38  ALA38      -0.1245
     34  CA        -1.4020  -27.6570   24.0710 C.3    38  ALA38       0.1562
     35  C         -0.5650  -27.6920   22.7840 C.2    38  ALA38       0.2260
     36  O          0.4810  -27.0600   22.6940 O.2    38  ALA38      -0.2867
     37  CB        -2.1850  -26.3750   24.2140 C.3    38  ALA38       0.0290
     38  N         -0.6410  -16.1220   25.8060 N.3    64  VAL64      -0.1245
     39  CA        -0.3470  -17.5560   25.8720 C.3    64  VAL64       0.1561
     40  C          1.1610  -17.7570   25.6740 C.2    64  VAL64       0.2260
     41  O          1.7460  -17.2080   24.7360 O.2    64  VAL64      -0.2867
     42  CB        -1.1800  -18.3520   24.8460 C.3    64  VAL64       0.0252
     43  CG1       -0.7220  -19.7990   24.7320 C.3    64  VAL64       0.0019
     44  CG2       -2.6570  -18.3070   25.1910 C.3    64  VAL64       0.0019
     45  N          2.5320  -25.2180   23.0990 N.3    76  MET76      -0.1230
     46  CA         2.1110  -24.1000   23.9090 C.3    76  MET76       0.1702
     47  C          1.6570  -24.6250   25.2710 C.2    76  MET76       0.2592
     48  O          1.2510  -25.8100   25.4060 O.2    76  MET76      -0.2718
     49  CB         0.9170  -23.3810   23.2660 C.3    76  MET76       0.0401
     50  CG         1.2150  -22.7090   21.9320 C.3    76  MET76       0.0596
     51  SD        -0.2610  -22.0000   21.1560 S.3    76  MET76      -0.1393
     52  CE        -1.0540  -23.4800   20.5280 C.3    76  MET76       0.0692
     53  N          1.6630  -23.7230   26.2500 N.am   77  GLU77      -0.1966
     54  CA         1.0810  -24.0440   27.5370 C.3    77  GLU77       0.1733
     55  C         -0.4040  -24.3670   27.3540 C.2    77  GLU77       0.2616
     56  O         -1.0910  -23.7880   26.5070 O.2    77  GLU77      -0.2715
     57  CB         1.2670  -22.9040   28.5340 C.3    77  GLU77       0.0429
     58  CG         0.4300  -21.6780   28.2040 C.3    77  GLU77       0.1163
     59  CD         0.4530  -20.6070   29.2770 C.2    77  GLU77       0.3649
     60  OE1        0.4360  -19.4220   28.9090 O.co2  77  GLU77      -0.2457
     61  OE2        0.5040  -20.9690   30.4770 O.co2  77  GLU77      -0.2457
     62  N         -0.8570  -25.3210   28.1600 N.am   78  TYR78      -0.1960
     63  CA        -2.2550  -25.6620   28.2950 C.3    78  TYR78       0.1771
     64  C         -2.8550  -24.8850   29.4710 C.2    78  TYR78       0.2619
     65  O         -2.2930  -24.8560   30.5620 O.2    78  TYR78      -0.2715
     66  CB        -2.4050  -27.1630   28.5550 C.3    78  TYR78       0.0574
     67  CG        -3.7890  -27.5790   28.9800 C.ar   78  TYR78      -0.0198
     68  CD1       -4.8570  -27.5060   28.0990 C.ar   78  TYR78      -0.0009
     69  CD2       -4.0260  -28.0510   30.2610 C.ar   78  TYR78      -0.0009
     70  CE1       -6.1320  -27.8820   28.4840 C.ar   78  TYR78       0.0417
     71  CE2       -5.2930  -28.4480   30.6600 C.ar   78  TYR78       0.0417
     72  CZ        -6.3460  -28.3590   29.7680 C.ar   78  TYR78       0.1957
     73  OH        -7.5940  -28.7420   30.1610 O.3    78  TYR78      -0.2866
     74  N         -4.0000  -24.2590   29.2310 N.am   79  LEU79      -0.1977
     75  CA        -4.6790  -23.5080   30.2590 C.3    79  LEU79       0.1596
     76  C         -6.0160  -24.1900   30.5690 C.2    79  LEU79       0.2287
     77  O         -6.9050  -24.2180   29.7370 O.2    79  LEU79      -0.2864
     78  CB        -4.8240  -22.0630   29.7830 C.3    79  LEU79       0.0297
     79  CG        -3.4800  -21.3440   29.6630 C.3    79  LEU79       0.0022
     80  CD1       -3.5000  -20.2640   28.5960 C.3    79  LEU79       0.0001
     81  CD2       -3.0430  -20.7860   31.0030 C.3    79  LEU79       0.0001
     82  N         -9.8830  -23.0420   30.1430 N.3    82  GLY82      -0.1210
     83  CA       -10.4870  -22.9320   28.7950 C.3    82  GLY82       0.1956
     84  C        -10.6910  -21.4920   28.3410 C.2    82  GLY82       0.2612
     85  O        -10.1330  -20.5540   28.9250 O.2    82  GLY82      -0.2717
     86  N        -11.4990  -21.2930   27.3040 N.am   83  SER83      -0.1952
     87  CA       -11.7190  -19.9330   26.7840 C.3    83  SER83       0.1924
     88  C        -12.5380  -19.0840   27.7700 C.2    83  SER83       0.2314
     89  O        -13.4280  -19.5890   28.4640 O.2    83  SER83      -0.2863
     90  CB       -12.3840  -19.9580   25.4340 C.3    83  SER83       0.2116
     91  OG       -13.7670  -20.2260   25.5870 O.3    83  SER83      -0.2180
     92  N        -16.1810  -19.7180   27.3300 N.3    86  ASP86      -0.1239
     93  CA       -16.7690  -20.8940   27.9870 C.3    86  ASP86       0.1674
     94  C        -16.8380  -20.6690   29.4990 C.2    86  ASP86       0.2266
     95  O        -17.8250  -21.0170   30.1370 O.2    86  ASP86      -0.2867
     96  CB       -16.0010  -22.1810   27.6560 C.3    86  ASP86       0.1410
     97  CG       -15.9840  -22.5290   26.1740 C.2    86  ASP86       0.3668
     98  OD1      -16.9910  -22.2410   25.4890 O.co2  86  ASP86      -0.2456
     99  OD2      -14.9630  -23.0890   25.7160 O.co2  86  ASP86      -0.2456
    100  N        -13.8590  -15.8090   22.4150 N.3   127  ARG127     -0.1231
    101  CA       -13.5350  -17.2090   22.0910 C.3   127  ARG127      0.1694
    102  C        -12.0130  -17.3940   22.0100 C.2   127  ARG127      0.2592
    103  O        -11.5310  -18.5210   22.1740 O.2   127  ARG127     -0.2718
    104  CB       -14.2460  -17.6880   20.8170 C.3   127  ARG127      0.0321
    105  CG       -13.6870  -17.1340   19.5140 C.3   127  ARG127      0.0489
    106  CD       -14.4990  -17.5040   18.2780 C.3   127  ARG127      0.2205
    107  NE       -14.5050  -16.4120   17.3040 N.pl3 127  ARG127     -0.0865
    108  CZ       -15.3880  -15.4010   17.2690 C.cat 127  ARG127      0.5346
    109  NH1      -16.4870  -15.4340   18.0140 N.pl3 127  ARG127      0.1354
    110  NH2      -15.1560  -14.3460   16.4900 N.pl3 127  ARG127      0.1354
    111  N        -11.2710  -16.3000   21.7850 N.am  128  ASN128     -0.1974
    112  CA        -9.7910  -16.3540   21.5810 C.3   128  ASN128      0.1688
    113  C         -9.0100  -15.8890   22.8280 C.2   128  ASN128      0.2292
    114  O         -7.7750  -15.7840   22.7750 O.2   128  ASN128     -0.2864
    115  CB        -9.3610  -15.5880   20.3230 C.3   128  ASN128      0.1181
    116  CG        -9.9040  -16.2020   19.0490 C.2   128  ASN128      0.2629
    117  OD1      -10.0690  -17.4160   18.9500 O.2   128  ASN128     -0.2716
    118  ND2      -10.2080  -15.3730   18.0690 N.am  128  ASN128     -0.0877
    119  N         -8.0690  -16.7830   26.7880 N.3   130  LEU130     -0.1245
    120  CA        -8.0180  -17.9990   27.6330 C.3   130  LEU130      0.1561
    121  C         -7.9200  -17.6090   29.1130 C.2   130  LEU130      0.2260
    122  O         -7.3230  -16.5740   29.4580 O.2   130  LEU130     -0.2867
    123  CB        -6.8400  -18.8770   27.1930 C.3   130  LEU130      0.0270
    124  CG        -6.9380  -19.4200   25.7640 C.3   130  LEU130      0.0019
    125  CD1       -5.5780  -19.8350   25.2410 C.3   130  LEU130      0.0001
    126  CD2       -7.9040  -20.5910   25.6770 C.3   130  LEU130      0.0001
    127  N         -4.9320  -15.5660   23.1960 N.3   140  GLY140     -0.1210
    128  CA        -4.3780  -16.6330   22.3860 C.3   140  GLY140      0.1956
    129  C         -4.6900  -16.4270   20.9080 C.2   140  GLY140      0.2611
    130  O         -4.9960  -15.3050   20.4770 O.2   140  GLY140     -0.2717
    131  N         -4.6110  -17.5180   20.1490 N.am  141  ASP141     -0.1973
    132  CA        -4.9050  -17.6030   18.7150 C.3   141  ASP141      0.1709
    133  C         -4.2750  -16.4560   17.9050 C.2   141  ASP141      0.2293
    134  O         -4.9530  -15.4840   17.5220 O.2   141  ASP141     -0.2864
    135  CB        -6.4010  -17.7510   18.4470 C.3   141  ASP141      0.1436
    136  CG        -6.7000  -17.8770   16.9620 C.2   141  ASP141      0.3671
    137  OD1       -6.3550  -18.9380   16.3750 O.co2 141  ASP141     -0.2456
    138  OD2       -7.2420  -16.8970   16.3970 O.co2 141  ASP141     -0.2456
@<TRIPOS>BOND
     1    25    24    2
     2    24    23    1
     3    18    17    1
     4    18    19    1
     5    20    21    1
     6    20    19    1
     7    17    14    1
     8    23    22    1
     9    22    15   am
    10    15    14    1
    11    15    16    2
    12    14    13    1
    13   137   136   ar
    14   138   136   ar
    15   110   108    1
    16   136   135    1
    17    13    11   am
    18   108   107    2
    19   108   109    1
    20   107   106    1
    21   134   133    2
    22    26    27    1
    23    12    11    2
    24   133   132    1
    25   118   116   am
    26    11    10    1
    27   106   105    1
    28   135   132    1
    29    32    30    1
    30   132   131    1
    31    27    30    1
    32    27    28    1
    33   117   116    2
    34   116   115    1
    35    10     9    1
    36    30    31    1
    37   105   104    1
    38    28    29    2
    39   131   129   am
    40     9     3   am
    41   115   112    1
    42   130   129    2
    43    52    51    1
    44   104   101    1
    45   129   128    1
    46    51    50    1
    47   112   111    1
    48   112   113    1
    49     3     4    2
    50     3     2    1
    51     1     2    1
    52   111   102   am
    53    50    49    1
    54   102   101    1
    55   102   103    2
    56   101   100    1
    57   128   127    1
    58     2     5    1
    59    36    35    2
    60   114   113    2
    61    35    34    1
    62     5     6    1
    63    45    46    1
    64    49    46    1
    65    46    47    1
    66    34    37    1
    67    34    33    1
    68     6     7    1
    69     6     8    1
    70    43    42    1
    71    41    40    2
    72    42    44    1
    73    42    39    1
    74   125   124    1
    75    47    48    2
    76    47    53   am
    77    90    91    1
    78    90    87    1
    79    98    97   ar
    80    40    39    1
    81   126   124    1
    82    99    97   ar
    83   124   123    1
    84    38    39    1
    85    97    96    1
    86    53    54    1
    87    56    55    2
    88    87    86    1
    89    87    88    1
    90   119   120    1
    91   123   120    1
    92    86    84   am
    93    92    93    1
    94    55    54    1
    95    55    62   am
    96    54    57    1
    97   120   121    1
    98    96    93    1
    99    88    89    2
   100    93    94    1
   101    68    70   ar
   102    68    67   ar
   103    62    63    1
   104    58    57    1
   105    58    59    1
   106    63    66    1
   107    63    64    1
   108    84    83    1
   109    84    85    2
   110    70    72   ar
   111    66    67    1
   112    80    79    1
   113    83    82    1
   114    60    59   ar
   115    67    69   ar
   116   121   122    2
   117    74    64   am
   118    74    75    1
   119    59    61   ar
   120    64    65    2
   121    94    95    2
   122    79    78    1
   123    79    81    1
   124    77    76    2
   125    72    73    1
   126    72    71   ar
   127    78    75    1
   128    75    76    1
   129    69    71   ar
