@<TRIPOS>MOLECULE
tmp/6aakC00.pdb
 134 127 0 0 0
SMALL
GASTEIGER

@<TRIPOS>ATOM
      1  N        -20.1070   44.7310  116.2050 N.3    15  LEU15      -0.1231
      2  CA       -21.2410   43.7940  116.3570 C.3    15  LEU15       0.1693
      3  C        -20.9940   42.6180  117.3100 C.2    15  LEU15       0.2593
      4  O        -21.9110   42.1940  118.0230 O.2    15  LEU15      -0.2718
      5  CB       -21.6620   43.2490  114.9990 C.3    15  LEU15       0.0284
      6  CG       -22.2280   44.2780  114.0290 C.3    15  LEU15       0.0019
      7  CD1      -22.5340   43.5830  112.7200 C.3    15  LEU15       0.0001
      8  CD2      -23.4760   44.9590  114.5830 C.3    15  LEU15       0.0001
      9  N        -19.7800   42.0750  117.3010 N.am   16  GLY16      -0.1942
     10  CA       -19.4280   40.9830  118.2150 C.3    16  GLY16       0.2014
     11  C        -17.9410   40.7270  118.3510 C.2    16  GLY16       0.2638
     12  O        -17.1330   41.3210  117.6290 O.2    16  GLY16      -0.2714
     13  N        -17.5910   39.8390  119.2840 N.am   17  LYS17      -0.1977
     14  CA       -16.1870   39.5470  119.6130 C.3    17  LYS17       0.1596
     15  C        -15.9490   38.1430  120.2180 C.2    17  LYS17       0.2287
     16  O        -16.3040   37.8850  121.3750 O.2    17  LYS17      -0.2864
     17  CB       -15.6380   40.6170  120.5760 C.3    17  LYS17       0.0298
     18  CG       -14.1110   40.4290  120.6910 C.3    17  LYS17       0.0038
     19  CD       -13.4750   41.7890  120.9940 C.3    17  LYS17       0.0206
     20  CE       -12.0510   41.5950  121.4910 C.3    17  LYS17       0.1093
     21  NZ       -11.2750   40.7730  120.5050 N.3    17  LYS17      -0.1314
     22  N        -16.4070   40.8940  114.5410 N.3    23  VAL23      -0.1245
     23  CA       -17.3570   41.3090  113.5020 C.3    23  VAL23       0.1561
     24  C        -17.8070   42.7510  113.7620 C.2    23  VAL23       0.2260
     25  O        -18.0750   43.1430  114.9120 O.2    23  VAL23      -0.2867
     26  CB       -18.5840   40.3660  113.4030 C.3    23  VAL23       0.0252
     27  CG1      -19.5970   40.8760  112.3880 C.3    23  VAL23       0.0019
     28  CG2      -18.1500   38.9870  112.9860 C.3    23  VAL23       0.0019
     29  N        -22.3790   43.4020  107.6050 N.3    40  ALA40      -0.1245
     30  CA       -21.6170   42.8260  108.7020 C.3    40  ALA40       0.1562
     31  C        -20.3430   42.2120  108.1440 C.2    40  ALA40       0.2260
     32  O        -20.4130   41.3290  107.2900 O.2    40  ALA40      -0.2867
     33  CB       -22.4280   41.7830  109.3950 C.3    40  ALA40       0.0290
     34  N        -27.5990   32.7810  107.5300 N.3    71  VAL71      -0.1245
     35  CA       -27.0870   34.1010  107.1430 C.3    71  VAL71       0.1561
     36  C        -26.4700   34.0950  105.7360 C.2    71  VAL71       0.2260
     37  O        -25.7490   33.1580  105.3560 O.2    71  VAL71      -0.2867
     38  CB       -26.0640   34.6460  108.1900 C.3    71  VAL71       0.0252
     39  CG1      -24.7200   33.9300  108.0890 C.3    71  VAL71       0.0019
     40  CG2      -25.8660   36.1430  108.0440 C.3    71  VAL71       0.0019
     41  N        -21.0580   39.7040  105.1580 N.3    84  MET84      -0.1230
     42  CA       -22.4070   39.1610  105.2640 C.3    84  MET84       0.1702
     43  C        -23.4400   40.2960  105.2610 C.2    84  MET84       0.2592
     44  O        -23.1040   41.4630  105.4560 O.2    84  MET84      -0.2718
     45  CB       -22.5150   38.3330  106.5390 C.3    84  MET84       0.0401
     46  CG       -21.6340   37.0770  106.5140 C.3    84  MET84       0.0596
     47  SD       -21.2300   36.4020  108.1520 S.3    84  MET84      -0.1393
     48  CE       -20.0660   37.6250  108.7670 C.3    84  MET84       0.0692
     49  N        -24.6960   39.9450  105.0110 N.am   85  GLU85      -0.1966
     50  CA       -25.8020   40.8780  105.2040 C.3    85  GLU85       0.1733
     51  C        -25.9240   41.2430  106.6830 C.2    85  GLU85       0.2616
     52  O        -25.5500   40.4600  107.5450 O.2    85  GLU85      -0.2715
     53  CB       -27.1290   40.2960  104.6980 C.3    85  GLU85       0.0429
     54  CG       -27.5630   38.9780  105.3670 C.3    85  GLU85       0.1163
     55  CD       -28.9990   38.5760  105.0520 C.2    85  GLU85       0.3649
     56  OE1      -29.8230   39.4430  104.6690 O.co2  85  GLU85      -0.2457
     57  OE2      -29.3090   37.3770  105.2280 O.co2  85  GLU85      -0.2457
     58  N        -26.4760   42.4240  106.9460 N.am   86  TYR86      -0.1960
     59  CA       -26.6430   42.9820  108.2890 C.3    86  TYR86       0.1771
     60  C        -28.1180   42.9120  108.7230 C.2    86  TYR86       0.2619
     61  O        -28.9390   43.7280  108.2980 O.2    86  TYR86      -0.2715
     62  CB       -26.1450   44.4300  108.2870 C.3    86  TYR86       0.0574
     63  CG       -26.4980   45.2320  109.5180 C.ar   86  TYR86      -0.0198
     64  CD1      -26.1360   44.7920  110.7900 C.ar   86  TYR86      -0.0009
     65  CD2      -27.1850   46.4400  109.4120 C.ar   86  TYR86      -0.0009
     66  CE1      -26.4570   45.5350  111.9240 C.ar   86  TYR86       0.0417
     67  CE2      -27.5070   47.1860  110.5420 C.ar   86  TYR86       0.0417
     68  CZ       -27.1450   46.7280  111.7890 C.ar   86  TYR86       0.1957
     69  OH       -27.4750   47.4620  112.8970 O.3    86  TYR86      -0.2866
     70  N        -28.4350   41.9080  109.5420 N.am   87  LEU87      -0.1964
     71  CA       -29.7440   41.7390  110.1850 C.3    87  LEU87       0.1713
     72  C        -29.8310   42.6080  111.4440 C.2    87  LEU87       0.2458
     73  O        -29.3680   42.1980  112.5080 O.2    87  LEU87      -0.2730
     74  CB       -29.9590   40.2650  110.5460 C.3    87  LEU87       0.0310
     75  CG       -30.4750   39.3760  109.4080 C.3    87  LEU87       0.0022
     76  CD1      -29.5560   39.3960  108.2110 C.3    87  LEU87       0.0001
     77  CD2      -30.6870   37.9370  109.8840 C.3    87  LEU87       0.0001
     78  N        -30.4620   43.7890  111.3430 N.am   88  PRO88      -0.2727
     79  CA       -30.1760   44.8600  112.2860 C.3    88  PRO88       0.1402
     80  C        -30.9110   44.7950  113.6170 C.2    88  PRO88       0.2269
     81  O        -30.6380   45.6180  114.4890 O.2    88  PRO88      -0.2865
     82  CB       -30.6160   46.1060  111.5140 C.3    88  PRO88       0.0296
     83  CG       -31.7630   45.6510  110.7420 C.3    88  PRO88       0.0237
     84  CD       -31.5190   44.1930  110.4020 C.3    88  PRO88       0.0939
     85  N        -30.6080   42.2420  115.7350 N.3    90  GLY90      -0.1210
     86  CA       -29.5800   41.6850  116.6230 C.3    90  GLY90       0.1956
     87  C        -29.7780   40.1960  116.8180 C.2    90  GLY90       0.2612
     88  O        -30.5950   39.5690  116.1340 O.2    90  GLY90      -0.2717
     89  N        -29.0350   39.6180  117.7540 N.am   91  CYS91      -0.1970
     90  CA       -29.1950   38.1940  118.0720 C.3    91  CYS91       0.1712
     91  C        -30.5500   37.9270  118.7340 C.2    91  CYS91       0.2296
     92  O        -31.1830   38.8320  119.2860 O.2    91  CYS91      -0.2864
     93  CB       -28.0670   37.6790  118.9800 C.3    91  CYS91       0.0983
     94  SG       -28.1190   38.3310  120.6660 S.3    91  CYS91      -0.0798
     95  N        -27.5570   32.9970  121.2680 N.3   135  ARG135     -0.1231
     96  CA       -26.6030   34.0640  120.9580 C.3   135  ARG135      0.1694
     97  C        -26.2150   34.0880  119.4820 C.2   135  ARG135      0.2592
     98  O        -25.9590   35.1630  118.9340 O.2   135  ARG135     -0.2718
     99  CB       -25.3340   33.9440  121.8110 C.3   135  ARG135      0.0321
    100  CG       -24.5330   32.6550  121.6210 C.3   135  ARG135      0.0489
    101  CD       -23.2770   32.6320  122.4700 C.3   135  ARG135      0.2205
    102  NE       -22.7240   31.2830  122.4890 N.pl3 135  ARG135     -0.0865
    103  CZ       -23.1670   30.2740  123.2460 C.cat 135  ARG135      0.5346
    104  NH1      -24.1830   30.4310  124.1030 N.pl3 135  ARG135      0.1354
    105  NH2      -22.5820   29.0800  123.1460 N.pl3 135  ARG135      0.1354
    106  N        -26.1660   32.9030  118.8640 N.am  136  ASN136     -0.1974
    107  CA       -25.7770   32.7250  117.4550 C.3   136  ASN136      0.1688
    108  C        -26.9510   32.6440  116.4640 C.2   136  ASN136      0.2292
    109  O        -26.7350   32.3590  115.2750 O.2   136  ASN136     -0.2864
    110  CB       -24.9090   31.4670  117.3160 C.3   136  ASN136      0.1181
    111  CG       -23.5750   31.5910  118.0310 C.2   136  ASN136      0.2629
    112  OD1      -23.0000   32.6830  118.1530 O.2   136  ASN136     -0.2716
    113  ND2      -23.0610   30.4620  118.4890 N.am  136  ASN136     -0.0877
    114  N        -29.9150   34.9620  114.7010 N.3   138  LEU138     -0.1245
    115  CA       -30.2180   36.3580  114.3930 C.3   138  LEU138      0.1561
    116  C        -31.6800   36.5210  114.0040 C.2   138  LEU138      0.2260
    117  O        -32.3230   35.5650  113.5700 O.2   138  LEU138     -0.2867
    118  CB       -29.3500   36.8320  113.2350 C.3   138  LEU138      0.0270
    119  CG       -27.8940   37.1590  113.5310 C.3   138  LEU138      0.0019
    120  CD1      -27.1220   37.2940  112.2290 C.3   138  LEU138      0.0001
    121  CD2      -27.7810   38.4490  114.3440 C.3   138  LEU138      0.0001
    122  N        -26.7200   31.9960  112.4740 N.3   148  ALA148     -0.1231
    123  CA       -25.4590   32.6780  112.1750 C.3   148  ALA148      0.1694
    124  C        -24.2410   31.9550  112.7800 C.2   148  ALA148      0.2592
    125  O        -24.3770   30.9850  113.5260 O.2   148  ALA148     -0.2718
    126  CB       -25.5170   34.1190  112.6810 C.3   148  ALA148      0.0304
    127  N        -23.0570   32.4410  112.4080 N.am  149  ASP149     -0.1974
    128  CA       -21.7800   32.0930  113.0330 C.3   149  ASP149      0.1709
    129  C        -21.3100   30.6470  112.7880 C.2   149  ASP149      0.2293
    130  O        -21.5410   29.7510  113.6110 O.2   149  ASP149     -0.2864
    131  CB       -21.8270   32.4160  114.5370 C.3   149  ASP149      0.1436
    132  CG       -20.4520   32.5450  115.1550 C.2   149  ASP149      0.3671
    133  OD1      -19.4320   32.4250  114.4370 O.co2 149  ASP149     -0.2456
    134  OD2      -20.4060   32.7730  116.3760 O.co2 149  ASP149     -0.2456
@<TRIPOS>BOND
     1    56    55   ar
     2    53    50    1
     3    53    54    1
     4    49    50    1
     5    49    43   am
     6    55    57   ar
     7    55    54    1
     8    41    42    1
     9    50    51    1
    10    43    42    1
    11    43    44    2
    12    42    45    1
    13    37    36    2
    14    36    35    1
    15    46    45    1
    16    46    47    1
    17    51    58   am
    18    51    52    2
    19    58    59    1
    20    35    34    1
    21    35    38    1
    22    32    31    2
    23    29    30    1
    24    40    38    1
    25    39    38    1
    26    31    30    1
    27    47    48    1
    28    76    75    1
    29    62    59    1
    30    62    63    1
    31    59    60    1
    32    61    60    2
    33    30    33    1
    34    60    70   am
    35    75    77    1
    36    75    74    1
    37    65    63   ar
    38    65    67   ar
    39    63    64   ar
    40    70    71    1
    41    71    74    1
    42    71    72    1
    43    84    83    1
    44    84    78    1
    45    67    68   ar
    46    83    82    1
    47    64    66   ar
    48    78    72   am
    49    78    79    1
    50    72    73    2
    51    82    79    1
    52    68    66   ar
    53    68    69    1
    54   123   122    1
    55   123   126    1
    56   123   124    1
    57   120   119    1
    58    79    80    1
    59    27    26    1
    60   127   124   am
    61   127   128    1
    62     7     6    1
    63   124   125    2
    64   129   128    1
    65   129   130    2
    66    28    26    1
    67   128   131    1
    68   118   119    1
    69   118   115    1
    70    26    23    1
    71    23    24    1
    72    23    22    1
    73   119   121    1
    74   117   116    2
    75    80    81    2
    76    24    25    2
    77   116   115    1
    78     6     8    1
    79     6     5    1
    80   115   114    1
    81   133   132   ar
    82   131   132    1
    83     5     2    1
    84   132   134   ar
    85   109   108    2
    86    85    86    1
    87    88    87    2
    88     1     2    1
    89     2     3    1
    90   108   107    1
    91    86    87    1
    92    87    89   am
    93     9     3   am
    94     9    10    1
    95     3     4    2
    96   110   107    1
    97   110   111    1
    98   107   106    1
    99    12    11    2
   100    89    90    1
   101   111   112    2
   102   111   113   am
   103    90    91    1
   104    90    93    1
   105    10    11    1
   106    11    13   am
   107    91    92    2
   108   106    97   am
   109    98    97    2
   110    93    94    1
   111    13    14    1
   112    97    96    1
   113    14    15    1
   114    14    17    1
   115    15    16    2
   116    21    20    1
   117    17    18    1
   118    18    19    1
   119    96    95    1
   120    96    99    1
   121    19    20    1
   122   100    99    1
   123   100   101    1
   124   101   102    1
   125   102   103    2
   126   105   103    1
   127   103   104    1
