@<TRIPOS>MOLECULE
tmp/6aamA00.pdb
 143 134 0 0 0
SMALL
GASTEIGER

@<TRIPOS>ATOM
      1  N          1.0090   28.9180  -38.2420 N.3    14  ARG14      -0.1245
      2  CA         1.8020   28.5740  -37.0550 C.3    14  ARG14       0.1563
      3  C          1.5910   27.1330  -36.6430 C.2    14  ARG14       0.2260
      4  O          0.6650   26.4850  -37.1000 O.2    14  ARG14      -0.2867
      5  CB         1.4540   29.4900  -35.8600 C.3    14  ARG14       0.0307
      6  CG        -0.0270   29.5090  -35.4690 C.3    14  ARG14       0.0489
      7  CD        -0.2540   30.1610  -34.1000 C.3    14  ARG14       0.2205
      8  NE        -1.6920   30.3440  -33.8220 N.pl3  14  ARG14      -0.0865
      9  CZ        -2.3350   29.8420  -32.7650 C.cat  14  ARG14       0.5346
     10  NH1       -1.6820   29.1390  -31.8510 N.pl3  14  ARG14       0.1354
     11  NH2       -3.6330   30.0600  -32.6020 N.pl3  14  ARG14       0.1354
     12  N          0.4590   24.5180  -33.7960 N.3    16  LEU16      -0.1231
     13  CA        -0.5170   24.5830  -32.7310 C.3    16  LEU16       0.1693
     14  C         -0.0660   23.7720  -31.5180 C.2    16  LEU16       0.2592
     15  O         -0.3710   24.1350  -30.3920 O.2    16  LEU16      -0.2718
     16  CB        -1.9350   24.2260  -33.2380 C.3    16  LEU16       0.0284
     17  CG        -2.5260   25.2170  -34.2660 C.3    16  LEU16       0.0019
     18  CD1       -3.9210   24.8370  -34.7530 C.3    16  LEU16       0.0001
     19  CD2       -2.5690   26.6300  -33.7200 C.3    16  LEU16       0.0001
     20  N          0.6560   22.6900  -31.7560 N.am   17  GLY17      -0.1957
     21  CA         1.1520   21.8510  -30.6830 C.3    17  GLY17       0.1869
     22  C          1.4950   20.4840  -31.2170 C.2    17  GLY17       0.2309
     23  O          1.1870   20.1800  -32.3680 O.2    17  GLY17      -0.2863
     24  N          0.2630   19.3710  -34.8100 N.3    20  VAL20      -0.1245
     25  CA        -0.8940   20.0490  -35.3700 C.3    20  VAL20       0.1561
     26  C         -0.4720   21.5070  -35.6910 C.2    20  VAL20       0.2260
     27  O          0.1250   22.1880  -34.8560 O.2    20  VAL20      -0.2867
     28  CB        -2.1020   20.0330  -34.3990 C.3    20  VAL20       0.0252
     29  CG1       -3.3560   20.6310  -35.0360 C.3    20  VAL20       0.0019
     30  CG2       -2.3990   18.6100  -33.8700 C.3    20  VAL20       0.0019
     31  N         -7.0130   23.4920  -39.1010 N.3    35  ALA35      -0.1245
     32  CA        -5.9990   22.7950  -38.3370 C.3    35  ALA35       0.1562
     33  C         -5.6050   21.5380  -39.0880 C.2    35  ALA35       0.2260
     34  O         -6.4650   20.7740  -39.5500 O.2    35  ALA35      -0.2867
     35  CB        -6.5100   22.4570  -36.9420 C.3    35  ALA35       0.0290
     36  N        -14.5800   18.0250  -32.2600 N.3    65  ILE65      -0.1245
     37  CA       -13.8800   18.8010  -33.2830 C.3    65  ILE65       0.1561
     38  C        -14.2520   18.2230  -34.6580 C.2    65  ILE65       0.2260
     39  O        -14.2640   17.0060  -34.8290 O.2    65  ILE65      -0.2867
     40  CB       -12.3400   18.8290  -33.0180 C.3    65  ILE65       0.0252
     41  CG1      -11.6330   19.8300  -33.9430 C.3    65  ILE65       0.0019
     42  CG2      -11.6810   17.4460  -33.0980 C.3    65  ILE65       0.0019
     43  CD1      -11.8520   21.2700  -33.5010 C.3    65  ILE65       0.0001
     44  N         -8.7700   19.4340  -39.9980 N.3    83  MET83      -0.1230
     45  CA        -9.8430   19.6880  -39.0520 C.3    83  MET83       0.1702
     46  C        -10.2050   21.1580  -38.9990 C.2    83  MET83       0.2592
     47  O         -9.4170   22.0490  -39.4250 O.2    83  MET83      -0.2718
     48  CB        -9.4140   19.2410  -37.6620 C.3    83  MET83       0.0401
     49  CG        -8.8860   17.8130  -37.5680 C.3    83  MET83       0.0596
     50  SD        -8.2200   17.4830  -35.9210 S.3    83  MET83      -0.1393
     51  CE        -6.5250   18.0520  -36.0630 C.3    83  MET83       0.0692
     52  N        -11.4070   21.4140  -38.4960 N.am   84  GLU84      -0.1966
     53  CA       -11.7900   22.7500  -38.1190 C.3    84  GLU84       0.1733
     54  C        -10.7790   23.3600  -37.1230 C.2    84  GLU84       0.2616
     55  O        -10.2110   22.6650  -36.2410 O.2    84  GLU84      -0.2715
     56  CB       -13.2330   22.8210  -37.6150 C.3    84  GLU84       0.0429
     57  CG       -13.4710   22.3400  -36.2020 C.3    84  GLU84       0.1163
     58  CD       -14.8650   22.6360  -35.6850 C.2    84  GLU84       0.3649
     59  OE1      -15.4250   21.7670  -34.9910 O.co2  84  GLU84      -0.2457
     60  OE2      -15.3990   23.7340  -35.9530 O.co2  84  GLU84      -0.2457
     61  N        -10.5240   24.6400  -37.3470 N.am   85  TYR85      -0.1960
     62  CA        -9.7050   25.4310  -36.4980 C.3    85  TYR85       0.1771
     63  C        -10.6160   26.1960  -35.5670 C.2    85  TYR85       0.2619
     64  O        -11.6030   26.8000  -36.0000 O.2    85  TYR85      -0.2715
     65  CB        -8.8710   26.4070  -37.3280 C.3    85  TYR85       0.0574
     66  CG        -8.1400   27.4450  -36.5070 C.ar   85  TYR85      -0.0198
     67  CD1       -7.1680   27.0660  -35.5510 C.ar   85  TYR85      -0.0009
     68  CD2       -8.3900   28.8180  -36.6940 C.ar   85  TYR85      -0.0009
     69  CE1       -6.4880   28.0250  -34.8000 C.ar   85  TYR85       0.0417
     70  CE2       -7.7050   29.7830  -35.9490 C.ar   85  TYR85       0.0417
     71  CZ        -6.7590   29.3810  -35.0100 C.ar   85  TYR85       0.1957
     72  OH        -6.0680   30.3290  -34.2870 O.3    85  TYR85      -0.2866
     73  N        -10.2480   26.1850  -34.2930 N.am   86  VAL86      -0.1964
     74  CA       -10.9680   26.9090  -33.2470 C.3    86  VAL86       0.1712
     75  C        -10.0600   28.0400  -32.7110 C.2    86  VAL86       0.2458
     76  O         -9.0570   27.7660  -32.0460 O.2    86  VAL86      -0.2730
     77  CB       -11.4410   25.8790  -32.1760 C.3    86  VAL86       0.0289
     78  CG1      -11.9030   26.5440  -30.9110 C.3    86  VAL86       0.0023
     79  CG2      -12.5460   24.9750  -32.7360 C.3    86  VAL86       0.0023
     80  N        -10.3750   29.3270  -33.0290 N.am   87  PRO87      -0.2727
     81  CA        -9.4160   30.4190  -32.6710 C.3    87  PRO87       0.1402
     82  C         -9.1620   30.6710  -31.1760 C.2    87  PRO87       0.2269
     83  O         -8.0340   31.0210  -30.8070 O.2    87  PRO87      -0.2865
     84  CB       -10.0030   31.6880  -33.3430 C.3    87  PRO87       0.0296
     85  CG       -11.1940   31.2290  -34.1260 C.3    87  PRO87       0.0237
     86  CD       -11.5990   29.8490  -33.6650 C.3    87  PRO87       0.0939
     87  N         -8.7440   28.5020  -28.9010 N.3    89  GLY89      -0.1210
     88  CA        -7.7810   27.5310  -28.4620 C.3    89  GLY89       0.1956
     89  C         -8.3270   26.6570  -27.3460 C.2    89  GLY89       0.2612
     90  O         -9.5370   26.5120  -27.1970 O.2    89  GLY89      -0.2717
     91  N         -7.4330   26.0660  -26.5630 N.am   90  SER90      -0.1952
     92  CA        -7.8510   25.1120  -25.5370 C.3    90  SER90       0.1924
     93  C         -8.1340   25.8340  -24.2220 C.2    90  SER90       0.2314
     94  O         -7.6430   26.9560  -23.9800 O.2    90  SER90      -0.2863
     95  CB        -6.8060   24.0110  -25.3570 C.3    90  SER90       0.2116
     96  OG        -5.8860   24.2860  -24.3190 O.3    90  SER90      -0.2180
     97  N         -5.1670   27.2950  -22.2580 N.3    93  ASP93      -0.1239
     98  CA        -4.6430   28.6370  -22.6180 C.3    93  ASP93       0.1674
     99  C         -5.6280   29.7360  -22.2700 C.2    93  ASP93       0.2266
    100  O         -5.2070   30.8040  -21.8520 O.2    93  ASP93      -0.2867
    101  CB        -4.3520   28.7420  -24.1140 C.3    93  ASP93       0.1410
    102  CG        -3.6120   27.5460  -24.6750 C.2    93  ASP93       0.3668
    103  OD1       -2.6690   27.0610  -24.0070 O.co2  93  ASP93      -0.2456
    104  OD2       -3.9770   27.1120  -25.7980 O.co2  93  ASP93      -0.2456
    105  N         -6.4740   20.6130  -21.6530 N.3   132  ARG132     -0.1231
    106  CA        -5.6890   21.0870  -22.7890 C.3   132  ARG132      0.1694
    107  C         -6.2540   20.6200  -24.1340 C.2   132  ARG132      0.2592
    108  O         -5.9570   21.2280  -25.1710 O.2   132  ARG132     -0.2718
    109  CB        -4.2040   20.6890  -22.6620 C.3   132  ARG132      0.0321
    110  CG        -3.9510   19.1960  -22.6540 C.3   132  ARG132      0.0489
    111  CD        -2.4890   18.8310  -22.3900 C.3   132  ARG132      0.2205
    112  NE        -2.4030   17.3800  -22.1550 N.pl3 132  ARG132     -0.0865
    113  CZ        -2.4860   16.7920  -20.9630 C.cat 132  ARG132      0.5346
    114  NH1       -2.6190   17.5300  -19.8590 N.pl3 132  ARG132      0.1354
    115  NH2       -2.4250   15.4610  -20.8780 N.pl3 132  ARG132      0.1354
    116  N         -7.0790   19.5630  -24.0920 N.am  133  ASN133     -0.1974
    117  CA        -7.7030   18.9370  -25.2890 C.3   133  ASN133      0.1688
    118  C         -9.1720   19.3060  -25.4410 C.2   133  ASN133      0.2292
    119  O         -9.8770   18.7410  -26.2770 O.2   133  ASN133     -0.2864
    120  CB        -7.4750   17.3870  -25.2610 C.3   133  ASN133      0.1181
    121  CG        -5.9800   17.0160  -25.1810 C.2   133  ASN133      0.2629
    122  OD1       -5.1550   17.6450  -25.8250 O.2   133  ASN133     -0.2716
    123  ND2       -5.6400   15.9830  -24.4060 N.am  133  ASN133     -0.0877
    124  N        -11.3850   22.4460  -26.5730 N.3   135  LEU135     -0.1245
    125  CA       -11.2430   23.6690  -27.3510 C.3   135  LEU135      0.1561
    126  C        -12.5230   24.4760  -27.2080 C.2   135  LEU135      0.2260
    127  O        -13.5970   23.9130  -27.0170 O.2   135  LEU135     -0.2867
    128  CB       -11.0420   23.3330  -28.8440 C.3   135  LEU135      0.0270
    129  CG        -9.7250   22.6710  -29.3240 C.3   135  LEU135      0.0019
    130  CD1       -8.5400   23.6380  -29.3010 C.3   135  LEU135      0.0001
    131  CD2       -9.3550   21.4200  -28.5450 C.3   135  LEU135      0.0001
    132  N        -11.0360   17.7660  -28.5510 N.3   145  GLY145     -0.1210
    133  CA        -9.9860   17.4670  -29.5280 C.3   145  GLY145      0.1956
    134  C         -9.0890   16.3400  -29.1030 C.2   145  GLY145      0.2611
    135  O         -9.4030   15.5740  -28.1460 O.2   145  GLY145     -0.2717
    136  N         -7.9760   16.2350  -29.8300 N.am  146  ASP146     -0.1973
    137  CA        -6.9090   15.2750  -29.6350 C.3   146  ASP146      0.1709
    138  C         -7.3220   13.8190  -29.4330 C.2   146  ASP146      0.2293
    139  O         -7.2530   13.2630  -28.3040 O.2   146  ASP146     -0.2864
    140  CB        -5.9450   15.6930  -28.5350 C.3   146  ASP146      0.1436
    141  CG        -4.6100   14.9490  -28.6240 C.2   146  ASP146      0.3671
    142  OD1       -4.5300   13.9490  -29.3880 O.co2 146  ASP146     -0.2456
    143  OD2       -3.6430   15.3780  -27.9400 O.co2 146  ASP146     -0.2456
@<TRIPOS>BOND
     1    44    45    1
     2    34    33    2
     3    47    46    2
     4    31    32    1
     5    33    32    1
     6    45    46    1
     7    45    48    1
     8    46    52   am
     9    52    53    1
    10    32    35    1
    11     1     2    1
    12    53    56    1
    13    53    54    1
    14    48    49    1
    15    56    57    1
    16    49    50    1
    17    61    54   am
    18    61    62    1
    19    65    66    1
    20    65    62    1
    21    54    55    2
    22     4     3    2
    23     2     3    1
    24     2     5    1
    25    68    66   ar
    26    68    70   ar
    27    66    67   ar
    28    62    63    1
    29    57    58    1
    30    51    50    1
    31    64    63    2
    32    60    58   ar
    33    70    71   ar
    34     5     6    1
    35    26    25    1
    36    26    27    2
    37    58    59   ar
    38    63    73   am
    39    67    69   ar
    40     6     7    1
    41    25    24    1
    42    25    28    1
    43    29    28    1
    44    71    69   ar
    45    71    72    1
    46    39    38    2
    47    18    17    1
    48    38    37    1
    49    28    30    1
    50    73    74    1
    51    17    19    1
    52    17    16    1
    53    85    86    1
    54    85    84    1
    55     7     8    1
    56    41    43    1
    57    41    40    1
    58     8     9    2
    59    12    13    1
    60    86    80    1
    61    84    81    1
    62    37    40    1
    63    37    36    1
    64    74    75    1
    65    74    77    1
    66    16    13    1
    67    42    40    1
    68    80    75   am
    69    80    81    1
    70     9    11    1
    71     9    10    1
    72    79    77    1
    73    13    14    1
    74    75    76    2
    75    81    82    1
    76    23    22    2
    77    77    78    1
    78    20    14   am
    79    20    21    1
    80    14    15    2
    81    22    21    1
    82    82    83    2
    83   136   137    1
    84   136   134   am
    85   137   138    1
    86   137   140    1
    87   133   134    1
    88   133   132    1
    89   138   139    2
    90   142   141   ar
    91   129   130    1
    92   129   128    1
    93   129   131    1
    94   134   135    2
    95    87    88    1
    96   128   125    1
    97   141   140    1
    98   141   143   ar
    99    88    89    1
   100   125   126    1
   101   125   124    1
   102    89    90    2
   103    89    91   am
   104   126   127    2
   105    91    92    1
   106   119   118    2
   107   122   121    2
   108   104   102   ar
   109    92    95    1
   110    92    93    1
   111   118   117    1
   112    95    96    1
   113   117   120    1
   114   117   116    1
   115   120   121    1
   116   121   123   am
   117   108   107    2
   118   102   101    1
   119   102   103   ar
   120    93    94    2
   121   107   116   am
   122   107   106    1
   123   101    98    1
   124   106   109    1
   125   106   105    1
   126   109   110    1
   127   110   111    1
   128    98    99    1
   129    98    97    1
   130   111   112    1
   131    99   100    2
   132   112   113    2
   133   113   115    1
   134   113   114    1
