@<TRIPOS>MOLECULE
tmp/6abpA00.pdb
 134 126 0 0 0
SMALL
GASTEIGER

@<TRIPOS>ATOM
      1  N         11.5230   49.4310   59.1090 N.3     9  LYS9       -0.1231
      2  CA        10.6450   50.1790   60.0760 C.3     9  LYS9        0.1693
      3  C          9.2510   50.4520   59.5610 C.2     9  LYS9        0.2591
      4  O          8.3340   50.6100   60.3330 O.2     9  LYS9       -0.2718
      5  CB        11.3230   51.4950   60.4270 C.3     9  LYS9        0.0285
      6  CG        11.5790   52.4220   59.1870 C.3     9  LYS9        0.0035
      7  CD        12.2290   53.7750   59.6000 C.3     9  LYS9        0.0206
      8  CE        12.3180   54.5870   58.3050 C.3     9  LYS9        0.1093
      9  NZ        12.8620   55.9680   58.5390 N.3     9  LYS9       -0.1314
     10  N          9.0730   50.5890   58.1960 N.am   10  GLN10      -0.1979
     11  CA         7.7730   50.9410   57.6350 C.3    10  GLN10       0.1601
     12  C          7.3730   50.0710   56.4570 C.2    10  GLN10       0.2287
     13  O          7.5390   50.5090   55.3030 O.2    10  GLN10      -0.2864
     14  CB         7.7560   52.4730   57.2210 C.3    10  GLN10       0.0394
     15  CG         7.7450   53.3290   58.4460 C.3    10  GLN10       0.0908
     16  CD         7.8120   54.8610   58.2430 C.2    10  GLN10       0.2608
     17  OE1        8.7730   55.6010   58.5390 O.2    10  GLN10      -0.2717
     18  NE2        6.6620   55.3780   57.7440 N.am   10  GLN10      -0.0878
     19  N          5.4060   51.3360   53.3690 N.3    13  GLU13      -0.1245
     20  CA         5.8620   52.2280   52.3160 C.3    13  GLU13       0.1567
     21  C          6.2560   51.3720   51.1220 C.2    13  GLU13       0.2260
     22  O          7.0730   50.4090   51.2780 O.2    13  GLU13      -0.2867
     23  CB         7.0670   53.1130   52.6510 C.3    13  GLU13       0.0388
     24  CG         7.0230   54.1340   53.7820 C.3    13  GLU13       0.1160
     25  CD         8.1120   55.1910   53.7270 C.2    13  GLU13       0.3649
     26  OE1        7.8560   56.3780   54.1330 O.co2  13  GLU13      -0.2457
     27  OE2        9.1900   54.8970   53.1500 O.co2  13  GLU13      -0.2457
     28  N          8.5840   51.9770   49.1030 N.3    15  TRP15      -0.1227
     29  CA        10.0340   52.0050   49.2580 C.3    15  TRP15       0.1737
     30  C         10.5680   50.7470   49.9140 C.2    15  TRP15       0.2595
     31  O         11.4840   50.0560   49.3680 O.2    15  TRP15      -0.2718
     32  CB        10.4620   53.1920   50.1630 C.3    15  TRP15       0.0564
     33  CG        11.8950   53.3070   50.3740 C.ar   15  TRP15       0.0003
     34  CD1       12.5620   52.8180   51.5440 C.ar   15  TRP15       0.0946
     35  CD2       12.9450   53.7240   49.5310 C.ar   15  TRP15       0.0152
     36  NE1       13.9290   53.0550   51.4270 N.ar   15  TRP15      -0.2442
     37  CE2       14.2010   53.5800   50.1790 C.ar   15  TRP15       0.0810
     38  CE3       12.9180   54.4650   48.2760 C.ar   15  TRP15       0.0012
     39  CZ2       15.4010   53.9980   49.6720 C.ar   15  TRP15       0.0191
     40  CZ3       14.1680   54.8390   47.7690 C.ar   15  TRP15       0.0001
     41  CH2       15.3900   54.6230   48.4010 C.ar   15  TRP15       0.0015
     42  N         10.0900   50.4090   51.1300 N.am   16  PHE16      -0.1976
     43  CA        10.6060   49.2150   51.7700 C.3    16  PHE16       0.1639
     44  C         10.1120   47.9130   51.1380 C.2    16  PHE16       0.2290
     45  O         10.7510   46.8770   51.1540 O.2    16  PHE16      -0.2864
     46  CB        10.1840   49.2870   53.2590 C.3    16  PHE16       0.0560
     47  CG        10.9950   50.3150   54.0000 C.ar   16  PHE16      -0.0200
     48  CD1       10.4230   51.4880   54.4290 C.ar   16  PHE16      -0.0042
     49  CD2       12.3900   50.1280   54.1250 C.ar   16  PHE16      -0.0042
     50  CE1       11.2900   52.4580   55.0840 C.ar   16  PHE16      -0.0003
     51  CE2       13.2230   51.0920   54.6630 C.ar   16  PHE16      -0.0003
     52  CZ        12.6790   52.2930   55.2400 C.ar   16  PHE16      -0.0000
     53  N         19.5020   52.3720   54.7650 N.3    88  ASP88      -0.1225
     54  CA        18.8790   53.6950   54.8430 C.3    88  ASP88       0.1805
     55  C         19.1630   54.5010   56.0750 C.2    88  ASP88       0.2597
     56  O         19.5350   55.6660   55.8800 O.2    88  ASP88      -0.2718
     57  CB        17.3460   53.5230   54.6320 C.3    88  ASP88       0.1424
     58  CG        17.0790   52.7530   53.2980 C.2    88  ASP88       0.3668
     59  OD1       16.2180   51.8760   53.3840 O.co2  88  ASP88      -0.2456
     60  OD2       17.7680   53.0550   52.3230 O.co2  88  ASP88      -0.2456
     61  N         18.9290   54.0410   57.2600 N.am   89  ASP89      -0.1974
     62  CA        19.0290   54.8530   58.5160 C.3    89  ASP89       0.1709
     63  C         20.2290   54.4290   59.3190 C.2    89  ASP89       0.2293
     64  O         20.2910   53.2930   59.8500 O.2    89  ASP89      -0.2864
     65  CB        17.7010   54.6880   59.2570 C.3    89  ASP89       0.1436
     66  CG        16.5180   55.4220   58.6560 C.2    89  ASP89       0.3671
     67  OD1       15.4290   55.5510   59.2880 O.co2  89  ASP89      -0.2456
     68  OD2       16.6290   55.7240   57.4160 O.co2  89  ASP89      -0.2456
     69  N         21.0570   56.2200   50.4130 N.3   107  LEU107     -0.1245
     70  CA        21.0680   57.1330   49.2430 C.3   107  LEU107      0.1561
     71  C         21.9410   58.3270   49.6250 C.2   107  LEU107      0.2260
     72  O         22.2960   58.5790   50.7640 O.2   107  LEU107     -0.2867
     73  CB        19.6020   57.4640   48.8450 C.3   107  LEU107      0.0270
     74  CG        18.6960   58.0540   49.9140 C.3   107  LEU107      0.0019
     75  CD1       19.0630   59.4560   50.3270 C.3   107  LEU107      0.0001
     76  CD2       17.2570   58.2120   49.3680 C.3   107  LEU107      0.0001
     77  N         16.3350   62.7290   62.7590 N.3   144  LEU144     -0.1245
     78  CA        16.8070   61.6500   61.8230 C.3   144  LEU144      0.1561
     79  C         17.7290   62.3040   60.8240 C.2   144  LEU144      0.2260
     80  O         17.4460   63.1600   59.9510 O.2   144  LEU144     -0.2867
     81  CB        15.5400   60.9310   61.3240 C.3   144  LEU144      0.0270
     82  CG        15.8400   59.8370   60.2550 C.3   144  LEU144      0.0019
     83  CD1       16.5400   58.6720   60.9570 C.3   144  LEU144      0.0001
     84  CD2       14.5290   59.4630   59.5530 C.3   144  LEU144      0.0001
     85  N         19.4180   61.3050   58.2040 N.3   146  THR146     -0.1218
     86  CA        19.1180   61.2250   56.7610 C.3   146  THR146      0.1862
     87  C         17.9960   62.1890   56.2620 C.2   146  THR146      0.2287
     88  O         18.1290   62.6140   55.0840 O.2   146  THR146     -0.2866
     89  CB        18.7960   59.7300   56.4260 C.3   146  THR146      0.1770
     90  OG1       18.7790   59.7150   54.9130 O.3   146  THR146     -0.2211
     91  CG2       17.4960   59.1330   56.8940 C.3   146  THR146      0.0375
     92  N         18.5790   65.7780   53.8290 N.3   150  ARG150     -0.1301
     93  CA        17.7130   66.0440   52.6820 C.3   150  ARG150      0.1248
     94  C         17.0620   67.4180   52.8540 C.3   150  ARG150      0.2009
     95  O         17.2010   68.1510   51.8090 O.3   150  ARG150     -0.2188
     96  CB        16.5960   65.0080   52.4480 C.3   150  ARG150      0.0254
     97  CG        17.1510   63.7430   51.7460 C.3   150  ARG150      0.0485
     98  CD        16.0620   62.6850   51.6290 C.3   150  ARG150      0.2205
     99  NE        16.2680   61.8010   52.7910 N.pl3 150  ARG150     -0.0865
    100  CZ        15.7180   60.6140   52.9320 C.cat 150  ARG150      0.5346
    101  NH1       15.9070   59.6650   53.8680 N.pl3 150  ARG150      0.1354
    102  NH2       14.6180   60.3120   52.1050 N.pl3 150  ARG150      0.1354
    103  N          6.8340   60.3840   60.4190 N.3   176  ASN176     -0.1240
    104  CA         7.2230   60.5490   59.0150 C.3   176  ASN176      0.1653
    105  C          6.1730   59.9240   58.1340 C.2   176  ASN176      0.2266
    106  O          6.4670   58.8590   57.5330 O.2   176  ASN176     -0.2867
    107  CB         8.6280   59.9240   58.7970 C.3   176  ASN176      0.1155
    108  CG         9.6730   60.6290   59.6310 C.2   176  ASN176      0.2627
    109  OD1        9.5450   61.8730   59.7950 O.2   176  ASN176     -0.2716
    110  ND2       10.7060   59.9450   60.1770 N.am  176  ASN176     -0.0877
    111  N         11.4060   65.2960   53.5010 N.3   203  MET203     -0.1230
    112  CA        12.4400   64.3180   53.1270 C.3   203  MET203      0.1702
    113  C         11.9180   63.1890   52.2450 C.2   203  MET203      0.2592
    114  O         12.7400   62.5130   51.6220 O.2   203  MET203     -0.2718
    115  CB        13.0680   63.8580   54.4600 C.3   203  MET203      0.0401
    116  CG        12.1340   63.0090   55.2250 C.3   203  MET203      0.0596
    117  SD        12.6570   61.1900   55.2090 S.3   203  MET203     -0.1393
    118  CE        11.8180   60.7510   56.7690 C.3   203  MET203      0.0692
    119  N         10.6340   62.9010   52.1830 N.am  204  ASN204     -0.1974
    120  CA        10.1670   61.7650   51.3560 C.3   204  ASN204      0.1688
    121  C          8.7730   62.0810   50.8420 C.2   204  ASN204      0.2292
    122  O          8.1340   63.0380   51.2080 O.2   204  ASN204     -0.2864
    123  CB        10.2900   60.4850   52.2140 C.3   204  ASN204      0.1181
    124  CG         9.3340   60.3770   53.3760 C.2   204  ASN204      0.2629
    125  OD1        8.4120   61.2040   53.6100 O.2   204  ASN204     -0.2716
    126  ND2        9.4620   59.2260   54.1170 N.am  204  ASN204     -0.0877
    127  N         11.5290   59.2760   46.8410 N.3   231  ASN231     -0.1240
    128  CA        11.3340   57.8090   46.9500 C.3   231  ASN231      0.1653
    129  C         10.8560   57.3130   45.5700 C.2   231  ASN231      0.2266
    130  O         11.2950   56.1770   45.1950 O.2   231  ASN231     -0.2867
    131  CB        10.3900   57.2630   48.0340 C.3   231  ASN231      0.1155
    132  CG        11.1400   57.3490   49.3750 C.2   231  ASN231      0.2627
    133  OD1       12.3290   57.7810   49.4460 O.2   231  ASN231     -0.2716
    134  ND2       10.4560   57.0830   50.4750 N.am  231  ASN231     -0.0877
@<TRIPOS>BOND
     1   130   129    2
     2   129   128    1
     3   127   128    1
     4   128   131    1
     5    40    38   ar
     6    40    41   ar
     7   131   132    1
     8    38    35   ar
     9    41    39   ar
    10    73    70    1
    11    73    74    1
    12    28    29    1
    13    70    71    1
    14    70    69    1
    15    29    30    1
    16    29    32    1
    17    31    30    2
    18    76    74    1
    19   132   133    2
    20   132   134   am
    21    35    37   ar
    22    35    33   ar
    23    71    72    2
    24    39    37   ar
    25    74    75    1
    26    30    42   am
    27    32    33    1
    28    37    36   ar
    29    33    34   ar
    30   121   122    2
    31   121   120    1
    32    21    22    2
    33    21    20    1
    34    42    43    1
    35    44    45    2
    36    44    43    1
    37   120   119    1
    38   120   123    1
    39    36    34   ar
    40   114   113    2
    41    98    97    1
    42    98    99    1
    43    97    96    1
    44    43    46    1
    45    95    94    1
    46   102   100    1
    47   119   113   am
    48   123   124    1
    49   113   112    1
    50    20    23    1
    51    20    19    1
    52    60    58   ar
    53    96    93    1
    54    23    24    1
    55    93    94    1
    56    93    92    1
    57    99   100    2
    58   100   101    1
    59   112   111    1
    60   112   115    1
    61    27    25   ar
    62    46    47    1
    63    58    59   ar
    64    58    57    1
    65   124   125    2
    66   124   126   am
    67    25    24    1
    68    25    26   ar
    69    47    49   ar
    70    47    48   ar
    71    49    51   ar
    72    48    50   ar
    73   115   116    1
    74    57    54    1
    75    51    52   ar
    76    53    54    1
    77    54    55    1
    78    90    89    1
    79    50    52   ar
    80    88    87    2
    81   117   116    1
    82   117   118    1
    83    13    12    2
    84    56    55    2
    85    55    61   am
    86    87    86    1
    87    89    86    1
    88    89    91    1
    89    12    11    1
    90    86    85    1
    91    14    11    1
    92    14    15    1
    93    61    62    1
    94    68    66   ar
    95   106   105    2
    96    11    10    1
    97    18    16   am
    98   105   104    1
    99    10     3   am
   100    16    15    1
   101    16    17    2
   102     8     9    1
   103     8     7    1
   104    62    65    1
   105    62    63    1
   106    66    65    1
   107    66    67   ar
   108   107   104    1
   109   107   108    1
   110   104   103    1
   111     1     2    1
   112     6     7    1
   113     6     5    1
   114    63    64    2
   115    84    82    1
   116     3     2    1
   117     3     4    2
   118   108   109    2
   119   108   110   am
   120    80    79    2
   121     2     5    1
   122    82    83    1
   123    82    81    1
   124    79    78    1
   125    81    78    1
   126    78    77    1
