@<TRIPOS>MOLECULE
tmp/6abxB00.pdb
 138 133 0 0 0
SMALL
GASTEIGER

@<TRIPOS>ATOM
      1  N         -8.7050    2.4210  -39.4660 N.3    20  ILE20      -0.1245
      2  CA        -9.0930    1.1170  -39.8850 C.3    20  ILE20       0.1561
      3  C        -10.5100    1.2120  -40.4480 C.2    20  ILE20       0.2260
      4  O        -11.4000    1.6480  -39.7420 O.2    20  ILE20      -0.2867
      5  CB        -9.0880    0.0940  -38.7280 C.3    20  ILE20       0.0252
      6  CG1       -7.7480    0.0680  -37.9850 C.3    20  ILE20       0.0019
      7  CG2       -9.4620   -1.2780  -39.2690 C.3    20  ILE20       0.0019
      8  CD1       -7.7730   -0.6960  -36.6690 C.3    20  ILE20       0.0001
      9  N         -1.9910   -0.4960  -35.1280 N.3   179  HIS179     -0.1241
     10  CA        -3.3060   -0.8630  -35.4500 C.3   179  HIS179      0.1621
     11  C         -4.3040   -0.2190  -34.4740 C.2   179  HIS179      0.2264
     12  O         -5.2010   -0.8680  -33.9700 O.2   179  HIS179     -0.2867
     13  CB        -3.4630   -2.3690  -35.5410 C.3   179  HIS179      0.0745
     14  CG        -4.5050   -2.7620  -36.5260 C.ar  179  HIS179      0.0817
     15  ND1       -5.5720   -3.6030  -36.2060 N.ar  179  HIS179     -0.2268
     16  CD2       -4.5990   -2.4770  -37.8480 C.ar  179  HIS179      0.1154
     17  CE1       -6.3090   -3.7700  -37.2950 C.ar  179  HIS179      0.1986
     18  NE2       -5.7060   -3.1060  -38.3370 N.ar  179  HIS179     -0.2212
     19  N         -5.8550   -1.3310  -30.2020 N.3   182  ASN182     -0.1225
     20  CA        -5.8940   -2.7170  -29.7720 C.3   182  ASN182      0.1785
     21  C         -5.4770   -2.8180  -28.2850 C.2   182  ASN182      0.2597
     22  O         -5.0210   -1.8530  -27.6890 O.2   182  ASN182     -0.2718
     23  CB        -4.9590   -3.5220  -30.6780 C.3   182  ASN182      0.1169
     24  CG        -3.6020   -2.8870  -30.7400 C.2   182  ASN182      0.2627
     25  OD1       -2.7740   -3.1360  -29.8710 O.2   182  ASN182     -0.2716
     26  ND2       -3.3760   -2.0460  -31.7440 N.am  182  ASN182     -0.0877
     27  N         -5.5960   -4.0000  -27.7000 N.am  183  ALA183     -0.1979
     28  CA        -5.4280   -4.2210  -26.2700 C.3   183  ALA183      0.1597
     29  C         -4.0050   -3.8250  -25.8300 C.2   183  ALA183      0.2287
     30  O         -3.8330   -3.2120  -24.7890 O.2   183  ALA183     -0.2864
     31  CB        -5.6930   -5.6620  -25.9030 C.3   183  ALA183      0.0319
     32  N         -4.9780  -14.3580  -26.9730 N.3   213  LEU213     -0.1231
     33  CA        -6.0860  -13.5880  -27.6020 C.3   213  LEU213      0.1693
     34  C         -5.5990  -12.2690  -28.2110 C.2   213  LEU213      0.2592
     35  O         -6.4230  -11.4580  -28.7370 O.2   213  LEU213     -0.2718
     36  CB        -7.1920  -13.2590  -26.6090 C.3   213  LEU213      0.0284
     37  CG        -7.8180  -14.4810  -25.9710 C.3   213  LEU213      0.0019
     38  CD1       -9.0010  -14.0760  -25.0830 C.3   213  LEU213      0.0001
     39  CD2       -8.2830  -15.4630  -27.0490 C.3   213  LEU213      0.0001
     40  N         -4.2880  -12.1020  -28.2890 N.am  214  HIS214     -0.1962
     41  CA        -3.6590  -10.9130  -28.9430 C.3   214  HIS214      0.1787
     42  C         -2.4970  -11.4150  -29.8090 C.2   214  HIS214      0.2620
     43  O         -2.7150  -12.3200  -30.6190 O.2   214  HIS214     -0.2715
     44  CB        -3.3710   -9.8520  -27.8740 C.3   214  HIS214      0.0785
     45  CG        -3.0500   -8.4800  -28.3830 C.ar  214  HIS214      0.0821
     46  ND1       -3.1970   -8.1060  -29.7320 N.ar  214  HIS214     -0.2267
     47  CD2       -2.6510   -7.3720  -27.7190 C.ar  214  HIS214      0.1154
     48  CE1       -2.8980   -6.8220  -29.8480 C.ar  214  HIS214      0.1986
     49  NE2       -2.5770   -6.3490  -28.6320 N.ar  214  HIS214     -0.2212
     50  N         -1.2840  -10.9070  -29.5720 N.am  215  GLY215     -0.1954
     51  CA        -0.1490  -11.1610  -30.3980 C.3   215  GLY215      0.1869
     52  C          0.3210  -12.5890  -30.3030 C.2   215  GLY215      0.2309
     53  O          0.8010  -13.1410  -31.2900 O.2   215  GLY215     -0.2863
     54  N        -11.7510  -10.5950  -35.7320 N.3   253  HIS253     -0.1226
     55  CA       -11.1930   -9.3020  -35.4060 C.3   253  HIS253      0.1752
     56  C        -12.3040   -8.4680  -34.7750 C.2   253  HIS253      0.2596
     57  O        -13.4470   -8.5380  -35.1970 O.2   253  HIS253     -0.2718
     58  CB       -10.5680   -8.6420  -36.6420 C.3   253  HIS253      0.0759
     59  CG        -9.5510   -7.6210  -36.2920 C.ar  253  HIS253      0.0818
     60  ND1       -9.8490   -6.2960  -36.0840 N.ar  253  HIS253     -0.2268
     61  CD2       -8.2400   -7.7750  -36.0200 C.ar  253  HIS253      0.1154
     62  CE1       -8.7460   -5.6590  -35.6960 C.ar  253  HIS253      0.1986
     63  NE2       -7.7280   -6.5590  -35.6610 N.ar  253  HIS253     -0.2212
     64  N        -11.9610   -7.6830  -33.7760 N.am  254  ARG254     -0.1966
     65  CA       -12.9100   -6.7350  -33.1740 C.3   254  ARG254      0.1729
     66  C        -13.3810   -5.6590  -34.1540 C.2   254  ARG254      0.2616
     67  O        -14.4670   -5.0900  -33.9570 O.2   254  ARG254     -0.2715
     68  CB       -12.2950   -6.0820  -31.9300 C.3   254  ARG254      0.0348
     69  CG       -12.1910   -7.0730  -30.7910 C.3   254  ARG254      0.0492
     70  CD       -13.5380   -7.4600  -30.1820 C.3   254  ARG254      0.2205
     71  NE       -14.0220   -6.3560  -29.3980 N.pl3 254  ARG254     -0.0865
     72  CZ       -13.8620   -6.2250  -28.0700 C.cat 254  ARG254      0.5346
     73  NH1      -13.9500   -5.0210  -27.5570 N.pl3 254  ARG254      0.1354
     74  NH2      -13.5980   -7.2690  -27.2930 N.pl3 254  ARG254      0.1354
     75  N        -12.5340   -5.2660  -35.1260 N.am  255  ILE255     -0.1977
     76  CA       -12.8250   -4.1770  -36.0340 C.3   255  ILE255      0.1596
     77  C        -13.1280   -4.7290  -37.4270 C.2   255  ILE255      0.2287
     78  O        -14.1880   -4.4140  -37.9750 O.2   255  ILE255     -0.2864
     79  CB       -11.6690   -3.1590  -36.1320 C.3   255  ILE255      0.0276
     80  CG1      -11.1860   -2.6230  -34.7780 C.3   255  ILE255      0.0022
     81  CG2      -12.0640   -2.0390  -37.0860 C.3   255  ILE255      0.0022
     82  CD1      -12.2570   -2.0390  -33.9190 C.3   255  ILE255      0.0001
     83  N         -3.7990   -6.7560  -44.0280 N.3   262  ARG262     -0.1245
     84  CA        -2.4850   -7.2250  -43.6830 C.3   262  ARG262      0.1563
     85  C         -2.3450   -8.7140  -44.0260 C.2   262  ARG262      0.2260
     86  O         -1.2510   -9.1440  -44.4570 O.2   262  ARG262     -0.2867
     87  CB        -2.2050   -6.9440  -42.2230 C.3   262  ARG262      0.0307
     88  CG        -2.3260   -5.4730  -41.8540 C.3   262  ARG262      0.0489
     89  CD        -2.2970   -5.2430  -40.3550 C.3   262  ARG262      0.2205
     90  NE        -3.4850   -5.8180  -39.7090 N.pl3 262  ARG262     -0.0865
     91  CZ        -3.6050   -5.9660  -38.4090 C.cat 262  ARG262      0.5346
     92  NH1       -2.6910   -5.4330  -37.5950 N.pl3 262  ARG262      0.1354
     93  NH2       -4.6580   -6.6290  -37.9440 N.pl3 262  ARG262      0.1354
     94  N         -7.0920  -12.8580  -40.0120 N.3   305  ASN305     -0.1225
     95  CA        -6.4710  -11.6300  -39.5550 C.3   305  ASN305      0.1785
     96  C         -4.9510  -11.7400  -39.7740 C.2   305  ASN305      0.2597
     97  O         -4.4410  -12.7560  -40.2640 O.2   305  ASN305     -0.2718
     98  CB        -6.8350  -11.3270  -38.0940 C.3   305  ASN305      0.1169
     99  CG        -6.3920  -12.4250  -37.1540 C.2   305  ASN305      0.2627
    100  OD1       -5.2680  -12.9270  -37.2590 O.2   305  ASN305     -0.2716
    101  ND2       -7.2510  -12.8160  -36.2170 N.am  305  ASN305     -0.0877
    102  N         -4.2080  -10.6840  -39.3840 N.am  306  VAL306     -0.1966
    103  CA        -2.7680  -10.5920  -39.5230 C.3   306  VAL306      0.1727
    104  C         -2.0470  -11.8200  -38.9670 C.2   306  VAL306      0.2616
    105  O         -1.0020  -12.1740  -39.4850 O.2   306  VAL306     -0.2715
    106  CB        -2.2140   -9.2930  -38.8880 C.3   306  VAL306      0.0290
    107  CG1       -2.4030   -9.1940  -37.3700 C.3   306  VAL306      0.0023
    108  CG2       -0.7590   -9.0720  -39.2390 C.3   306  VAL306      0.0023
    109  N         -2.6000  -12.4650  -37.9370 N.am  307  ASP307     -0.1971
    110  CA        -1.9210  -13.6060  -37.2740 C.3   307  ASP307      0.1709
    111  C         -2.0370  -14.9290  -38.0400 C.2   307  ASP307      0.2293
    112  O         -1.3360  -15.9150  -37.6830 O.2   307  ASP307     -0.2864
    113  CB        -2.4890  -13.8400  -35.8790 C.3   307  ASP307      0.1436
    114  CG        -2.4860  -12.6160  -34.9820 C.2   307  ASP307      0.3671
    115  OD1       -1.4650  -11.8700  -34.9950 O.co2 307  ASP307     -0.2456
    116  OD2       -3.4630  -12.5310  -34.1500 O.co2 307  ASP307     -0.2456
    117  N          6.4960   -9.4240  -33.6190 N.3   328  PHE328     -0.1241
    118  CA         5.3340   -8.4850  -33.5310 C.3   328  PHE328      0.1605
    119  C          5.7340   -7.2590  -32.7020 C.2   328  PHE328      0.2264
    120  O          5.6310   -6.1140  -33.1600 O.2   328  PHE328     -0.2867
    121  CB         4.1220   -9.2770  -33.0090 C.3   328  PHE328      0.0534
    122  CG         2.7680   -8.6700  -33.2630 C.ar  328  PHE328     -0.0203
    123  CD1        2.6180   -7.2950  -33.3540 C.ar  328  PHE328     -0.0042
    124  CD2        1.6550   -9.4690  -33.4190 C.ar  328  PHE328     -0.0042
    125  CE1        1.3670   -6.7490  -33.5730 C.ar  328  PHE328     -0.0003
    126  CE2        0.4010   -8.9160  -33.6060 C.ar  328  PHE328     -0.0003
    127  CZ         0.2670   -7.5620  -33.6980 C.ar  328  PHE328     -0.0000
    128  N          5.5500   -3.2680  -33.4820 N.3   332  ARG332     -0.1245
    129  CA         4.4450   -2.5630  -32.7770 C.3   332  ARG332      0.1563
    130  C          4.9520   -1.5320  -31.7780 C.2   332  ARG332      0.2260
    131  O          4.2230   -0.5430  -31.4840 O.2   332  ARG332     -0.2867
    132  CB         3.4860   -3.6040  -32.1690 C.3   332  ARG332      0.0307
    133  CG         2.2430   -3.0190  -31.5240 C.3   332  ARG332      0.0489
    134  CD         1.4390   -2.0940  -32.4330 C.3   332  ARG332      0.2205
    135  NE         0.8860   -2.7550  -33.5790 N.pl3 332  ARG332     -0.0865
    136  CZ        -0.2030   -3.5270  -33.5920 C.cat 332  ARG332      0.5346
    137  NH1       -0.8900   -3.7720  -32.4820 N.pl3 332  ARG332      0.1354
    138  NH2       -0.6010   -4.0470  -34.7130 N.pl3 332  ARG332      0.1354
@<TRIPOS>BOND
     1    86    85    2
     2    83    84    1
     3    85    84    1
     4    84    87    1
     5    87    88    1
     6    88    89    1
     7     3     2    1
     8     3     4    2
     9    89    90    1
    10    97    96    2
    11    94    95    1
    12     2     1    1
    13     2     5    1
    14    96    95    1
    15    96   102   am
    16    90    91    2
    17    95    98    1
    18   103   102    1
    19   103   104    1
    20   103   106    1
    21   105   104    2
    22     7     5    1
    23   108   106    1
    24   104   109   am
    25   106   107    1
    26     5     6    1
    27    91    93    1
    28    91    92    1
    29    18    16   ar
    30    18    17   ar
    31    98    99    1
    32   111   112    2
    33   111   110    1
    34     6     8    1
    35    78    77    2
    36   109   110    1
    37    16    14   ar
    38    77    76    1
    39    17    15   ar
    40   110   113    1
    41   100    99    2
    42    99   101   am
    43    81    79    1
    44    58    59    1
    45    58    55    1
    46    14    15   ar
    47    14    13    1
    48    59    60   ar
    49    59    61   ar
    50    79    76    1
    51    79    80    1
    52    60    62   ar
    53    76    75    1
    54    61    63   ar
    55   113   114    1
    56    54    55    1
    57    62    63   ar
    58    13    10    1
    59    10     9    1
    60    10    11    1
    61    55    56    1
    62    57    56    2
    63    75    66   am
    64   115   114   ar
    65   114   116   ar
    66    80    82    1
    67    56    64   am
    68   138   136    1
    69    11    12    2
    70    66    67    2
    71    66    65    1
    72    64    65    1
    73   127   126   ar
    74   127   125   ar
    75   117   118    1
    76   126   124   ar
    77   136   135    2
    78   136   137    1
    79   135   134    1
    80   125   123   ar
    81   118   121    1
    82   118   119    1
    83   128   129    1
    84   124   122   ar
    85   123   122   ar
    86   122   121    1
    87    65    68    1
    88   120   119    2
    89   129   132    1
    90   129   130    1
    91   134   133    1
    92   132   133    1
    93    68    69    1
    94   130   131    2
    95    26    24   am
    96    53    52    2
    97    69    70    1
    98    24    23    1
    99    24    25    2
   100    23    20    1
   101    43    42    2
   102    51    52    1
   103    51    50    1
   104    19    20    1
   105    70    71    1
   106    48    46   ar
   107    48    49   ar
   108    42    50   am
   109    42    41    1
   110    20    21    1
   111    46    45   ar
   112    71    72    2
   113    41    40    1
   114    41    44    1
   115    35    34    2
   116    49    47   ar
   117    45    44    1
   118    45    47   ar
   119    40    34   am
   120    21    27   am
   121    21    22    2
   122    34    33    1
   123    72    73    1
   124    72    74    1
   125    27    28    1
   126    33    32    1
   127    33    36    1
   128    39    37    1
   129    36    37    1
   130    28    31    1
   131    28    29    1
   132    37    38    1
   133    29    30    2
