@<TRIPOS>MOLECULE
tmp/6ac9A01.pdb
 97 93 0 0 0
SMALL
GASTEIGER

@<TRIPOS>ATOM
      1  N         19.2720  -11.9160  -16.0720 N.3    56  PHE56      -0.1227
      2  CA        20.2200  -12.9500  -15.6090 C.3    56  PHE56       0.1736
      3  C         21.6410  -12.5340  -16.0230 C.2    56  PHE56       0.2596
      4  O         22.5610  -12.5300  -15.2040 O.2    56  PHE56      -0.2718
      5  CB        19.8690  -14.3320  -16.1950 C.3    56  PHE56       0.0547
      6  CG        20.8560  -15.3970  -15.7590 C.ar   56  PHE56      -0.0202
      7  CD1       20.7600  -15.9840  -14.4990 C.ar   56  PHE56      -0.0042
      8  CD2       21.9070  -15.7690  -16.5810 C.ar   56  PHE56      -0.0042
      9  CE1       21.6780  -16.9510  -14.0870 C.ar   56  PHE56      -0.0003
     10  CE2       22.8340  -16.7200  -16.1640 C.ar   56  PHE56      -0.0003
     11  CZ        22.7150  -17.2980  -14.9130 C.ar   56  PHE56      -0.0000
     12  N         21.8040  -12.1380  -17.2890 N.am   57  THR57      -0.1953
     13  CA        23.0980  -11.7040  -17.8230 C.3    57  THR57       0.1897
     14  C         23.6300  -10.5350  -17.0250 C.2    57  THR57       0.2313
     15  O         24.7930  -10.5260  -16.6320 O.2    57  THR57      -0.2863
     16  CB        22.9350  -11.3480  -19.3100 C.3    57  THR57       0.1794
     17  OG1       22.6080  -12.5720  -19.9900 O.3    57  THR57      -0.2208
     18  CG2       24.2140  -10.7240  -19.9120 C.3    57  THR57       0.0378
     19  N         24.6080  -11.5800  -13.5010 N.3    60  LYS60      -0.1245
     20  CA        25.9150  -12.2550  -13.4950 C.3    60  LYS60       0.1561
     21  C         27.0510  -11.2430  -13.5970 C.2    60  LYS60       0.2260
     22  O         28.0440  -11.4110  -12.9020 O.2    60  LYS60      -0.2867
     23  CB        26.0530  -13.2960  -14.6130 C.3    60  LYS60       0.0271
     24  CG        25.2140  -14.5420  -14.4310 C.3    60  LYS60       0.0035
     25  CD        25.3940  -15.2590  -13.0890 C.3    60  LYS60       0.0206
     26  CE        26.8390  -15.5540  -12.7910 C.3    60  LYS60       0.1093
     27  NZ        27.0230  -15.7400  -11.3480 N.3    60  LYS60      -0.1314
     28  N         29.8230  -10.6960  -10.6020 N.3    64  ARG64      -0.1245
     29  CA        31.2210  -11.0070  -10.8740 C.3    64  ARG64       0.1563
     30  C         32.1390   -9.8390  -10.7610 C.2    64  ARG64       0.2260
     31  O         33.2660  -10.0140  -10.3270 O.2    64  ARG64      -0.2867
     32  CB        31.3860  -11.6020  -12.2840 C.3    64  ARG64       0.0307
     33  CG        30.7410  -12.9760  -12.4330 C.3    64  ARG64       0.0489
     34  CD        30.5870  -13.3280  -13.8890 C.3    64  ARG64       0.2205
     35  NE        30.2760  -14.7460  -14.0230 N.pl3  64  ARG64      -0.0865
     36  CZ        29.8000  -15.3030  -15.1200 C.cat  64  ARG64       0.5346
     37  NH1       29.5540  -14.5650  -16.1940 N.pl3  64  ARG64       0.1354
     38  NH2       29.5480  -16.6000  -15.1520 N.pl3  64  ARG64       0.1354
     39  N         34.6920   -8.3050  -19.4000 N.3   148  TYR148     -0.1241
     40  CA        33.4590   -7.9460  -20.0840 C.3   148  TYR148      0.1605
     41  C         33.5880   -6.7630  -21.0460 C.2   148  TYR148      0.2264
     42  O         34.3180   -5.8310  -20.7510 O.2   148  TYR148     -0.2867
     43  CB        32.4000   -7.5450  -19.0360 C.3   148  TYR148      0.0534
     44  CG        31.6190   -8.7050  -18.4630 C.ar  148  TYR148     -0.0201
     45  CD1       30.3910   -9.0770  -19.0040 C.ar  148  TYR148     -0.0009
     46  CD2       32.0390   -9.3400  -17.2970 C.ar  148  TYR148     -0.0009
     47  CE1       29.6430  -10.1150  -18.4520 C.ar  148  TYR148      0.0417
     48  CE2       31.2960  -10.3680  -16.7230 C.ar  148  TYR148      0.0417
     49  CZ        30.1040  -10.7610  -17.3100 C.ar  148  TYR148      0.1957
     50  OH        29.3890  -11.7700  -16.7180 O.3   148  TYR148     -0.2866
     51  N         28.9270   -8.5780  -22.7370 N.3   177  TYR177     -0.1227
     52  CA        29.4580   -9.8110  -23.2440 C.3   177  TYR177      0.1736
     53  C         30.7610  -10.1340  -22.5770 C.2   177  TYR177      0.2595
     54  O         31.6300   -9.2830  -22.4770 O.2   177  TYR177     -0.2718
     55  CB        29.6440   -9.6310  -24.7710 C.3   177  TYR177      0.0548
     56  CG        30.2450  -10.8090  -25.4790 C.ar  177  TYR177     -0.0200
     57  CD1       29.4920  -11.9540  -25.7310 C.ar  177  TYR177     -0.0009
     58  CD2       31.5590  -10.7770  -25.9270 C.ar  177  TYR177     -0.0009
     59  CE1       30.0460  -13.0510  -26.3860 C.ar  177  TYR177      0.0417
     60  CE2       32.1100  -11.8490  -26.6150 C.ar  177  TYR177      0.0417
     61  CZ        31.3540  -12.9860  -26.8340 C.ar  177  TYR177      0.1957
     62  OH        31.9070  -14.0180  -27.5320 O.3   177  TYR177     -0.2866
     63  N         30.8990  -11.3760  -22.1170 N.am  178  ARG178     -0.1980
     64  CA        32.1270  -11.8140  -21.4940 C.3   178  ARG178      0.1597
     65  C         33.0520  -12.2400  -22.6430 C.2   178  ARG178      0.2287
     66  O         32.9040  -13.3160  -23.2000 O.2   178  ARG178     -0.2864
     67  CB        31.8040  -12.9510  -20.5260 C.3   178  ARG178      0.0334
     68  CG        32.7880  -13.1690  -19.4250 C.3   178  ARG178      0.0492
     69  CD        32.2000  -14.2570  -18.5590 C.3   178  ARG178      0.2205
     70  NE        33.1380  -14.6720  -17.5280 N.pl3 178  ARG178     -0.0865
     71  CZ        33.2310  -15.9090  -17.0630 C.cat 178  ARG178      0.5346
     72  NH1       32.4240  -16.8590  -17.5170 N.pl3 178  ARG178      0.1354
     73  NH2       34.1320  -16.2080  -16.1420 N.pl3 178  ARG178      0.1354
     74  N         36.3400  -15.1040  -21.0990 N.3   181  PRO181     -0.2116
     75  CA        36.0650  -16.0060  -19.9580 C.3   181  PRO181      0.1372
     76  C         37.2800  -16.8080  -19.5250 C.2   181  PRO181      0.2244
     77  O         37.9150  -17.4640  -20.3530 O.2   181  PRO181     -0.2868
     78  CB        34.9440  -16.9130  -20.4850 C.3   181  PRO181      0.0268
     79  CG        35.1030  -16.8780  -21.9840 C.3   181  PRO181      0.0207
     80  CD        35.4800  -15.4450  -22.2560 C.3   181  PRO181      0.0892
     81  N         37.7780  -14.6590  -26.9170 N.3   186  LYS186     -0.1245
     82  CA        36.8960  -15.2950  -27.9020 C.3   186  LYS186      0.1561
     83  C         37.4770  -15.1140  -29.3070 C.2   186  LYS186      0.2260
     84  O         38.2060  -14.1480  -29.5470 O.2   186  LYS186     -0.2867
     85  CB        35.4850  -14.6820  -27.8210 C.3   186  LYS186      0.0271
     86  CG        34.7490  -15.0170  -26.5310 C.3   186  LYS186      0.0035
     87  CD        33.9640  -16.2990  -26.6450 C.3   186  LYS186      0.0206
     88  CE        33.3130  -16.6290  -25.3430 C.3   186  LYS186      0.1093
     89  NZ        32.1000  -17.4630  -25.5350 N.3   186  LYS186     -0.1314
     90  N         29.0630  -15.2040  -31.7130 N.3   191  ASP191     -0.1239
     91  CA        28.7980  -16.0690  -30.5700 C.3   191  ASP191      0.1674
     92  C         27.4210  -16.6860  -30.8690 C.2   191  ASP191      0.2266
     93  O         26.5020  -15.9310  -31.2100 O.2   191  ASP191     -0.2867
     94  CB        28.7840  -15.2870  -29.2460 C.3   191  ASP191      0.1410
     95  CG        28.8960  -16.1710  -28.0140 C.2   191  ASP191      0.3668
     96  OD1       30.0380  -16.4180  -27.5610 O.co2 191  ASP191     -0.2456
     97  OD2       27.8420  -16.5900  -27.4850 O.co2 191  ASP191     -0.2456
@<TRIPOS>BOND
     1    90    91    1
     2    93    92    2
     3    92    91    1
     4    91    94    1
     5    84    83    2
     6    83    82    1
     7    94    95    1
     8    95    96   ar
     9    95    97   ar
    10    82    85    1
    11    82    81    1
    12    85    86    1
    13    62    61    1
    14    61    60   ar
    15    61    59   ar
    16    87    86    1
    17    87    88    1
    18    60    58   ar
    19    59    57   ar
    20    58    56   ar
    21    57    56   ar
    22    89    88    1
    23    56    55    1
    24    55    52    1
    25    52    51    1
    26    52    53    1
    27    66    65    2
    28    65    64    1
    29    53    54    2
    30    53    63   am
    31    80    79    1
    32    80    74    1
    33    63    64    1
    34    79    78    1
    35    64    67    1
    36    74    75    1
    37    41    42    2
    38    41    40    1
    39    67    68    1
    40    78    75    1
    41    77    76    2
    42    40    39    1
    43    40    43    1
    44    17    16    1
    45    75    76    1
    46    18    16    1
    47    68    69    1
    48    16    13    1
    49    43    44    1
    50    45    44   ar
    51    45    47   ar
    52    69    70    1
    53    44    46   ar
    54    47    49   ar
    55    13    12    1
    56    13    14    1
    57    70    71    2
    58    72    71    1
    59    49    48   ar
    60    49    50    1
    61    46    48   ar
    62    12     3   am
    63    71    73    1
    64    14    15    2
    65     8    10   ar
    66     8     6   ar
    67     5     6    1
    68     5     2    1
    69    37    36    1
    70    10    11   ar
    71     1     2    1
    72     3     2    1
    73     3     4    2
    74     6     7   ar
    75    38    36    1
    76    36    35    2
    77    11     9   ar
    78    23    24    1
    79    23    20    1
    80     7     9   ar
    81    24    25    1
    82    35    34    1
    83    34    33    1
    84    21    20    1
    85    21    22    2
    86    19    20    1
    87    25    26    1
    88    26    27    1
    89    33    32    1
    90    32    29    1
    91    29    30    1
    92    29    28    1
    93    30    31    2
