@<TRIPOS>MOLECULE
tmp/6ac9B00.pdb
 137 127 0 0 0
SMALL
GASTEIGER

@<TRIPOS>ATOM
      1  N         71.6340  -65.3950  -37.3950 N.3    23  ILE23      -0.1245
      2  CA        72.8590  -64.8570  -36.7850 C.3    23  ILE23       0.1561
      3  C         72.7120  -64.7920  -35.2590 C.2    23  ILE23       0.2260
      4  O         71.9020  -65.5240  -34.6870 O.2    23  ILE23      -0.2867
      5  CB        73.3970  -63.5320  -37.3900 C.3    23  ILE23       0.0252
      6  CG1       72.3480  -62.4070  -37.3970 C.3    23  ILE23       0.0019
      7  CG2       73.9920  -63.7570  -38.7680 C.3    23  ILE23       0.0019
      8  CD1       72.9270  -61.0260  -37.0620 C.3    23  ILE23       0.0001
      9  N         66.7760  -63.7370  -35.5780 N.3    26  ILE26      -0.1245
     10  CA        67.3780  -62.7400  -36.4720 C.3    26  ILE26       0.1561
     11  C         68.0800  -63.5170  -37.5930 C.2    26  ILE26       0.2260
     12  O         68.8300  -64.4600  -37.3020 O.2    26  ILE26      -0.2867
     13  CB        68.3690  -61.7680  -35.7610 C.3    26  ILE26       0.0252
     14  CG1       67.7230  -61.0170  -34.5790 C.3    26  ILE26       0.0019
     15  CG2       69.0160  -60.7780  -36.7600 C.3    26  ILE26       0.0019
     16  CD1       68.7110  -60.2370  -33.7080 C.3    26  ILE26       0.0001
     17  N         69.3540  -57.4260  -41.9150 N.3    44  VAL44      -0.1245
     18  CA        68.9100  -58.4950  -41.0640 C.3    44  VAL44       0.1561
     19  C         67.3980  -58.4040  -41.0260 C.2    44  VAL44       0.2260
     20  O         66.8350  -57.3090  -41.1930 O.2    44  VAL44      -0.2867
     21  CB        69.5220  -58.4920  -39.6370 C.3    44  VAL44       0.0252
     22  CG1       71.0300  -58.7290  -39.6690 C.3    44  VAL44       0.0019
     23  CG2       69.1650  -57.2230  -38.8580 C.3    44  VAL44       0.0019
     24  N         64.4150  -59.2310  -38.3600 N.3    46  LYS46      -0.1245
     25  CA        64.1140  -59.5750  -36.9640 C.3    46  LYS46       0.1561
     26  C         62.7010  -60.0780  -36.8990 C.2    46  LYS46       0.2260
     27  O         61.8040  -59.4730  -37.4850 O.2    46  LYS46      -0.2867
     28  CB        64.3050  -58.3620  -36.0450 C.3    46  LYS46       0.0271
     29  CG        65.7540  -58.1200  -35.7000 C.3    46  LYS46       0.0035
     30  CD        65.9830  -56.7760  -35.0210 C.3    46  LYS46       0.0206
     31  CE        65.5430  -56.6960  -33.5800 C.3    46  LYS46       0.1093
     32  NZ        66.2050  -55.5560  -32.8890 N.3    46  LYS46      -0.1314
     33  N         59.5550  -61.8070  -34.3910 N.3    48  GLU48      -0.1245
     34  CA        59.0120  -62.0800  -33.0630 C.3    48  GLU48       0.1567
     35  C         57.5320  -62.3650  -33.2060 C.2    48  GLU48       0.2260
     36  O         56.9410  -61.8830  -34.1700 O.2    48  GLU48      -0.2867
     37  CB        59.1960  -60.8710  -32.1040 C.3    48  GLU48       0.0388
     38  CG        60.6140  -60.6520  -31.5840 C.3    48  GLU48       0.1160
     39  CD        61.2550  -61.7580  -30.7640 C.2    48  GLU48       0.3649
     40  OE1       60.5200  -62.5750  -30.1630 O.co2  48  GLU48      -0.2457
     41  OE2       62.5050  -61.7870  -30.6970 O.co2  48  GLU48      -0.2457
     42  N         66.1400  -54.2400  -41.1560 N.3   106  MET106     -0.1230
     43  CA        66.9490  -53.1050  -40.7660 C.3   106  MET106      0.1702
     44  C         68.3900  -53.3620  -41.2050 C.2   106  MET106      0.2592
     45  O         68.6990  -54.4680  -41.6480 O.2   106  MET106     -0.2718
     46  CB        66.8430  -52.8980  -39.2230 C.3   106  MET106      0.0401
     47  CG        67.3170  -54.0890  -38.4110 C.3   106  MET106      0.0596
     48  SD        67.4280  -53.8100  -36.6220 S.3   106  MET106     -0.1393
     49  CE        68.6740  -52.5610  -36.5320 C.3   106  MET106      0.0692
     50  N         69.2430  -52.3490  -41.1000 N.am  107  ASP107     -0.1960
     51  CA        70.6570  -52.4080  -41.4250 C.3   107  ASP107      0.1840
     52  C         71.3420  -53.5530  -40.6550 C.2   107  ASP107      0.2622
     53  O         70.9550  -53.8640  -39.5250 O.2   107  ASP107     -0.2715
     54  CB        71.3280  -51.0810  -41.0150 C.3   107  ASP107      0.1450
     55  CG        71.1740  -49.9000  -41.9640 C.2   107  ASP107      0.3671
     56  OD1       70.9370  -50.1360  -43.1900 O.co2 107  ASP107     -0.2456
     57  OD2       71.3580  -48.7350  -41.5010 O.co2 107  ASP107     -0.2456
     58  N         72.3330  -54.1860  -41.2700 N.am  108  ARG108     -0.1963
     59  CA        73.0970  -55.2350  -40.6110 C.3   108  ARG108      0.1729
     60  C         74.3590  -54.5790  -40.0720 C.2   108  ARG108      0.2616
     61  O         74.9380  -53.7100  -40.7290 O.2   108  ARG108     -0.2715
     62  CB        73.4210  -56.3900  -41.5840 C.3   108  ARG108      0.0348
     63  CG        74.7850  -57.0370  -41.3680 C.3   108  ARG108      0.0492
     64  CD        74.6220  -58.4350  -40.8670 C.3   108  ARG108      0.2205
     65  NE        75.8800  -59.0500  -40.4370 N.pl3 108  ARG108     -0.0865
     66  CZ        76.7520  -59.6420  -41.2440 C.cat 108  ARG108      0.5346
     67  NH1       76.5630  -59.6380  -42.5550 N.pl3 108  ARG108      0.1354
     68  NH2       77.8350  -60.2190  -40.7470 N.pl3 108  ARG108      0.1354
     69  N         74.7700  -54.9660  -38.8710 N.am  109  PHE109     -0.1960
     70  CA        75.9680  -54.3940  -38.2850 C.3   109  PHE109      0.1771
     71  C         77.0200  -55.4590  -37.9720 C.2   109  PHE109      0.2620
     72  O         76.7360  -56.6600  -37.9990 O.2   109  PHE109     -0.2715
     73  CB        75.6070  -53.5890  -37.0200 C.3   109  PHE109      0.0574
     74  CG        74.6890  -52.4370  -37.3330 C.ar  109  PHE109     -0.0200
     75  CD1       75.1760  -51.2870  -37.9290 C.ar  109  PHE109     -0.0042
     76  CD2       73.3250  -52.5320  -37.0890 C.ar  109  PHE109     -0.0042
     77  CE1       74.3140  -50.2540  -38.2960 C.ar  109  PHE109     -0.0003
     78  CE2       72.4580  -51.4840  -37.4310 C.ar  109  PHE109     -0.0003
     79  CZ        72.9640  -50.3470  -38.0220 C.ar  109  PHE109     -0.0000
     80  N         78.2150  -54.9800  -37.6680 N.am  110  GLY110     -0.1954
     81  CA        79.3350  -55.7980  -37.2410 C.3   110  GLY110      0.1869
     82  C         79.3120  -56.0410  -35.7420 C.2   110  GLY110      0.2309
     83  O         78.2440  -56.1350  -35.1190 O.2   110  GLY110     -0.2863
     84  N         79.6010  -55.8200  -31.6140 N.3   112  ASP112     -0.1239
     85  CA        79.1650  -54.9510  -30.5370 C.3   112  ASP112      0.1674
     86  C         80.4360  -54.4180  -29.8740 C.2   112  ASP112      0.2266
     87  O         81.5060  -55.0410  -29.9640 O.2   112  ASP112     -0.2867
     88  CB        78.1860  -55.6420  -29.5570 C.3   112  ASP112      0.1410
     89  CG        78.7460  -56.6060  -28.5330 C.2   112  ASP112      0.3668
     90  OD1       79.8010  -56.3120  -27.9610 O.co2 112  ASP112     -0.2456
     91  OD2       78.0540  -57.5920  -28.2100 O.co2 112  ASP112     -0.2456
     92  N         82.2900  -56.5870  -26.8280 N.3   115  LYS115     -0.1245
     93  CA        83.2160  -57.6440  -27.2640 C.3   115  LYS115      0.1561
     94  C         84.5980  -57.0450  -27.4620 C.2   115  LYS115      0.2260
     95  O         85.5650  -57.5930  -26.9500 O.2   115  LYS115     -0.2867
     96  CB        82.7400  -58.3000  -28.5750 C.3   115  LYS115      0.0271
     97  CG        81.5200  -59.1930  -28.4240 C.3   115  LYS115      0.0035
     98  CD        81.1860  -59.8780  -29.7420 C.3   115  LYS115      0.0206
     99  CE        79.7270  -59.7440  -30.1210 C.3   115  LYS115      0.1093
    100  NZ        79.5340  -58.9180  -31.3460 N.3   115  LYS115     -0.1314
    101  N         77.1770  -52.9600  -25.1890 N.3   156  SER156     -0.1202
    102  CA        76.4760  -54.0700  -25.8500 C.3   156  SER156      0.2020
    103  C         75.3470  -53.6090  -26.8140 C.2   156  SER156      0.2618
    104  O         74.9280  -54.3940  -27.6700 O.2   156  SER156     -0.2717
    105  CB        75.9650  -55.0830  -24.8350 C.3   156  SER156      0.2103
    106  OG        74.9200  -54.5610  -24.0340 O.3   156  SER156     -0.2182
    107  N         74.9240  -52.3210  -26.7270 N.am  157  ASN157     -0.1974
    108  CA        73.9140  -51.7160  -27.6340 C.3   157  ASN157      0.1688
    109  C         74.5580  -50.7500  -28.6250 C.2   157  ASN157      0.2292
    110  O         73.8760  -49.9740  -29.2870 O.2   157  ASN157     -0.2864
    111  CB        72.7710  -51.0420  -26.8420 C.3   157  ASN157      0.1181
    112  CG        71.8250  -52.0330  -26.2520 C.2   157  ASN157      0.2629
    113  OD1       71.6240  -53.1220  -26.7990 O.2   157  ASN157     -0.2716
    114  ND2       71.1950  -51.6810  -25.1370 N.am  157  ASN157     -0.0877
    115  N         76.8990  -50.9320  -31.9400 N.3   159  LEU159     -0.1245
    116  CA        77.4250  -51.8630  -32.9380 C.3   159  LEU159      0.1561
    117  C         78.1770  -51.1380  -34.0180 C.2   159  LEU159      0.2260
    118  O         77.8180  -50.0210  -34.3890 O.2   159  LEU159     -0.2867
    119  CB        76.3240  -52.7510  -33.5770 C.3   159  LEU159      0.0270
    120  CG        75.2260  -53.3970  -32.6970 C.3   159  LEU159      0.0019
    121  CD1       74.3440  -54.3050  -33.5170 C.3   159  LEU159      0.0001
    122  CD2       75.7800  -54.2380  -31.6080 C.3   159  LEU159      0.0001
    123  N         71.7520  -49.3250  -31.1300 N.3   171  VAL171     -0.1231
    124  CA        70.6190  -50.2070  -31.4310 C.3   171  VAL171      0.1692
    125  C         69.8020  -50.4520  -30.1830 C.2   171  VAL171      0.2592
    126  O         70.1830  -50.0090  -29.0930 O.2   171  VAL171     -0.2718
    127  CB        71.0850  -51.5470  -32.0880 C.3   171  VAL171      0.0266
    128  CG1       71.9040  -51.2870  -33.3600 C.3   171  VAL171      0.0020
    129  CG2       71.8750  -52.4200  -31.1000 C.3   171  VAL171      0.0020
    130  N         68.7150  -51.2220  -30.3470 N.am  172  ASP172     -0.1974
    131  CA        67.7840  -51.7090  -29.3340 C.3   172  ASP172      0.1709
    132  C         66.8460  -50.6290  -28.8430 C.2   172  ASP172      0.2293
    133  O         67.1580  -49.8760  -27.9180 O.2   172  ASP172     -0.2864
    134  CB        68.4920  -52.4300  -28.1740 C.3   172  ASP172      0.1436
    135  CG        67.5820  -53.2500  -27.2730 C.2   172  ASP172      0.3671
    136  OD1       68.1060  -54.0460  -26.4890 O.co2 172  ASP172     -0.2456
    137  OD2       66.3320  -53.0540  -27.3270 O.co2 172  ASP172     -0.2456
@<TRIPOS>BOND
     1    56    55   ar
     2    67    66    1
     3    55    57   ar
     4    55    54    1
     5    17    18    1
     6    45    44    2
     7    62    63    1
     8    62    59    1
     9    51    50    1
    10    51    54    1
    11    51    52    1
    12    63    64    1
    13    58    52   am
    14    58    59    1
    15    66    68    1
    16    66    65    2
    17    44    50   am
    18    44    43    1
    19    20    19    2
    20    42    43    1
    21    18    19    1
    22    18    21    1
    23    64    65    1
    24    43    46    1
    25    61    60    2
    26    52    53    2
    27    59    60    1
    28    60    69   am
    29    22    21    1
    30    21    23    1
    31    46    47    1
    32    69    70    1
    33     7     5    1
    34    47    48    1
    35    24    25    1
    36    77    79   ar
    37    77    75   ar
    38    70    71    1
    39    70    73    1
    40    79    78   ar
    41    72    71    2
    42    71    80   am
    43    75    74   ar
    44    80    81    1
    45    11    12    2
    46    11    10    1
    47    27    26    2
    48    78    76   ar
    49     6     5    1
    50     6     8    1
    51     1     2    1
    52     5     2    1
    53    74    76   ar
    54    74    73    1
    55    81    82    1
    56    25    26    1
    57    25    28    1
    58     2     3    1
    59    15    13    1
    60    48    49    1
    61    10    13    1
    62    10     9    1
    63    28    29    1
    64    13    14    1
    65    82    83    2
    66    29    30    1
    67     3     4    2
    68    30    31    1
    69    14    16    1
    70    33    34    1
    71   118   117    2
    72    36    35    2
    73   117   116    1
    74    31    32    1
    75   119   116    1
    76   119   120    1
    77   121   120    1
    78   128   127    1
    79    35    34    1
    80    34    37    1
    81   116   115    1
    82   120   122    1
    83    37    38    1
    84   127   124    1
    85   127   129    1
    86    84    85    1
    87    38    39    1
    88   124   123    1
    89   124   125    1
    90   100    99    1
    91    39    41   ar
    92    39    40   ar
    93    85    86    1
    94    85    88    1
    95   130   125   am
    96   130   131    1
    97   125   126    2
    98    99    98    1
    99    87    86    2
   100    98    97    1
   101    88    89    1
   102   131   132    1
   103   131   134    1
   104   110   109    2
   105   132   133    2
   106   109   108    1
   107    96    97    1
   108    96    93    1
   109    89    91   ar
   110    89    90   ar
   111   134   135    1
   112   104   103    2
   113   108   111    1
   114   108   107    1
   115    94    93    1
   116    94    95    2
   117   137   135   ar
   118   135   136   ar
   119    93    92    1
   120   111   112    1
   121   103   107   am
   122   103   102    1
   123   113   112    2
   124   112   114   am
   125   102   101    1
   126   102   105    1
   127   105   106    1
