@<TRIPOS>MOLECULE
tmp/6acbA00.pdb
 202 193 0 0 0
SMALL
GASTEIGER

@<TRIPOS>ATOM
      1  N         37.3740  -37.6260  -33.7250 N.3    78  TYR78      -0.1227
      2  CA        37.1130  -36.2710  -33.1970 C.3    78  TYR78       0.1736
      3  C         35.8790  -36.1180  -32.2750 C.2    78  TYR78       0.2595
      4  O         35.9700  -35.5200  -31.2050 O.2    78  TYR78      -0.2718
      5  CB        37.0600  -35.2280  -34.3220 C.3    78  TYR78       0.0548
      6  CG        36.9680  -33.8330  -33.7610 C.ar   78  TYR78      -0.0200
      7  CD1       37.8360  -33.4240  -32.7470 C.ar   78  TYR78      -0.0009
      8  CD2       35.9840  -32.9290  -34.1870 C.ar   78  TYR78      -0.0009
      9  CE1       37.7540  -32.1640  -32.1780 C.ar   78  TYR78       0.0417
     10  CE2       35.9060  -31.6390  -33.6330 C.ar   78  TYR78       0.0417
     11  CZ        36.8010  -31.2590  -32.6220 C.ar   78  TYR78       0.1957
     12  OH        36.7820  -29.9970  -32.0090 O.3    78  TYR78      -0.2866
     13  N         34.7350  -36.6450  -32.6930 N.am   79  HIS79      -0.1975
     14  CA        33.5020  -36.4780  -31.9100 C.3    79  HIS79       0.1656
     15  C         33.4460  -37.3920  -30.6840 C.2    79  HIS79       0.2291
     16  O         32.7080  -38.3650  -30.6480 O.2    79  HIS79      -0.2864
     17  CB        32.2840  -36.6150  -32.8090 C.3    79  HIS79       0.0771
     18  CG        32.1480  -35.4910  -33.7910 C.ar   79  HIS79       0.0820
     19  ND1       32.6970  -35.5360  -35.0540 N.ar   79  HIS79      -0.2267
     20  CD2       31.5480  -34.2780  -33.6850 C.ar   79  HIS79       0.1154
     21  CE1       32.4310  -34.4060  -35.6870 C.ar   79  HIS79       0.1986
     22  NE2       31.7320  -33.6280  -34.8810 N.ar   79  HIS79      -0.2212
     23  N         27.8550  -39.6590  -29.8550 N.3   123  HIS123     -0.1241
     24  CA        28.1480  -39.4540  -31.3010 C.3   123  HIS123      0.1621
     25  C         28.9350  -40.6730  -31.8110 C.2   123  HIS123      0.2264
     26  O         29.8440  -41.1450  -31.1360 O.2   123  HIS123     -0.2867
     27  CB        28.9350  -38.1370  -31.4840 C.3   123  HIS123      0.0745
     28  CG        28.9750  -37.5850  -32.8900 C.ar  123  HIS123      0.0817
     29  ND1       29.5600  -38.2540  -33.9530 N.ar  123  HIS123     -0.2268
     30  CD2       28.6000  -36.3690  -33.3760 C.ar  123  HIS123      0.1154
     31  CE1       29.4970  -37.4950  -35.0380 C.ar  123  HIS123      0.1986
     32  NE2       28.9260  -36.3440  -34.7150 N.ar  123  HIS123     -0.2212
     33  N         31.0270  -39.2370  -38.0390 N.3   126  VAL126     -0.1231
     34  CA        30.2810  -38.4250  -39.0030 C.3   126  VAL126      0.1692
     35  C         29.7590  -39.1870  -40.2150 C.2   126  VAL126      0.2592
     36  O         28.6570  -38.9100  -40.6730 O.2   126  VAL126     -0.2718
     37  CB        31.0390  -37.1610  -39.4810 C.3   126  VAL126      0.0266
     38  CG1       31.0780  -36.1150  -38.3560 C.3   126  VAL126      0.0020
     39  CG2       32.4210  -37.4880  -40.0450 C.3   126  VAL126      0.0020
     40  N         30.5180  -40.1570  -40.7080 N.am  127  ASN127     -0.1974
     41  CA        30.1160  -40.8950  -41.9030 C.3   127  ASN127      0.1688
     42  C         29.4410  -42.2230  -41.5250 C.2   127  ASN127      0.2292
     43  O         29.3240  -43.1300  -42.3530 O.2   127  ASN127     -0.2864
     44  CB        31.3340  -41.0980  -42.8160 C.3   127  ASN127      0.1181
     45  CG        31.9380  -39.7840  -43.2800 C.2   127  ASN127      0.2629
     46  OD1       33.0540  -39.4350  -42.8850 O.2   127  ASN127     -0.2716
     47  ND2       31.1970  -39.0350  -44.1090 N.am  127  ASN127     -0.0877
     48  N         26.2620  -43.0460  -39.6090 N.3   129  SER129     -0.1217
     49  CA        24.9740  -42.7140  -38.9910 C.3   129  SER129      0.1889
     50  C         24.0520  -43.9730  -38.8010 C.2   129  SER129      0.2288
     51  O         23.1850  -44.2760  -39.6290 O.2   129  SER129     -0.2866
     52  CB        24.3000  -41.5480  -39.7620 C.3   129  SER129      0.2089
     53  OG        23.6720  -40.6300  -38.8780 O.3   129  SER129     -0.2183
     54  N         13.5230  -33.9230  -41.8450 N.3   142  TYR142     -0.1241
     55  CA        14.9200  -33.5400  -41.7260 C.3   142  TYR142      0.1605
     56  C         15.0430  -32.3160  -40.8630 C.2   142  TYR142      0.2264
     57  O         15.4630  -31.2390  -41.3010 O.2   142  TYR142     -0.2867
     58  CB        15.6500  -33.3500  -43.0610 C.3   142  TYR142      0.0534
     59  CG        17.1440  -33.4450  -42.8520 C.ar  142  TYR142     -0.0201
     60  CD1       17.7450  -34.6930  -42.6100 C.ar  142  TYR142     -0.0009
     61  CD2       17.9550  -32.3100  -42.8460 C.ar  142  TYR142     -0.0009
     62  CE1       19.1130  -34.8160  -42.3920 C.ar  142  TYR142      0.0417
     63  CE2       19.3310  -32.4270  -42.6320 C.ar  142  TYR142      0.0417
     64  CZ        19.9080  -33.6840  -42.4030 C.ar  142  TYR142      0.1957
     65  OH        21.2680  -33.8410  -42.1910 O.3   142  TYR142     -0.2866
     66  N         20.4100  -35.8750  -34.9400 N.3   147  MET147     -0.1245
     67  CA        21.5560  -36.2130  -34.1230 C.3   147  MET147      0.1570
     68  C         21.5140  -35.4290  -32.8190 C.2   147  MET147      0.2261
     69  O         21.7310  -35.9710  -31.7180 O.2   147  MET147     -0.2867
     70  CB        22.8300  -35.8470  -34.8730 C.3   147  MET147      0.0387
     71  CG        23.1760  -36.8000  -35.9930 C.3   147  MET147      0.0595
     72  SD        23.8100  -38.3640  -35.3270 S.3   147  MET147     -0.1393
     73  CE        25.5540  -37.9440  -35.1810 C.3   147  MET147      0.0692
     74  N         24.6000  -27.3880  -37.4180 N.3   191  LEU191     -0.1245
     75  CA        25.1130  -26.2680  -38.2060 C.3   191  LEU191      0.1561
     76  C         24.1080  -25.6880  -39.1940 C.2   191  LEU191      0.2260
     77  O         24.1360  -24.4960  -39.4600 O.2   191  LEU191     -0.2867
     78  CB        26.4180  -26.6420  -38.8950 C.3   191  LEU191      0.0270
     79  CG        27.6080  -26.2410  -38.0130 C.3   191  LEU191      0.0019
     80  CD1       28.8690  -27.0050  -38.4100 C.3   191  LEU191      0.0001
     81  CD2       27.8440  -24.7300  -38.0700 C.3   191  LEU191      0.0001
     82  N         31.8720  -24.7780  -29.9420 N.3   230  ASP230     -0.1225
     83  CA        31.8890  -26.0870  -30.6580 C.3   230  ASP230      0.1805
     84  C         32.9480  -26.1540  -31.7780 C.2   230  ASP230      0.2597
     85  O         33.5910  -27.1780  -31.9900 O.2   230  ASP230     -0.2718
     86  CB        30.4830  -26.3560  -31.2510 C.3   230  ASP230      0.1424
     87  CG        30.2760  -27.8070  -31.7610 C.2   230  ASP230      0.3668
     88  OD1       31.0720  -28.7280  -31.4400 O.co2 230  ASP230     -0.2456
     89  OD2       29.2480  -28.0200  -32.4760 O.co2 230  ASP230     -0.2456
     90  N         33.1180  -25.0350  -32.4720 N.am  231  LEU231     -0.1979
     91  CA        34.0980  -24.9050  -33.5280 C.3   231  LEU231      0.1596
     92  C         35.4750  -24.5220  -33.0170 C.2   231  LEU231      0.2287
     93  O         36.4290  -24.6090  -33.7830 O.2   231  LEU231     -0.2864
     94  CB        33.6400  -23.8380  -34.5240 C.3   231  LEU231      0.0297
     95  CG        32.2450  -24.0640  -35.1530 C.3   231  LEU231      0.0022
     96  CD1       31.8410  -22.9580  -36.1460 C.3   231  LEU231      0.0001
     97  CD2       32.1140  -25.4540  -35.7830 C.3   231  LEU231      0.0001
     98  N         38.2850  -25.2330  -31.7520 N.3   233  ALA233     -0.1231
     99  CA        39.5620  -25.8080  -32.1340 C.3   233  ALA233      0.1694
    100  C         40.1490  -25.1160  -33.3440 C.2   233  ALA233      0.2591
    101  O         41.3590  -25.0090  -33.4690 O.2   233  ALA233     -0.2718
    102  CB        39.4360  -27.2980  -32.4140 C.3   233  ALA233      0.0304
    103  N         39.2890  -24.6530  -34.2330 N.am  234  ILE234     -0.1980
    104  CA        39.6990  -23.9130  -35.3950 C.3   234  ILE234      0.1595
    105  C         40.5130  -22.6520  -35.0160 C.2   234  ILE234      0.2287
    106  O         41.3130  -22.1560  -35.8350 O.2   234  ILE234     -0.2864
    107  CB        38.4670  -23.5650  -36.2860 C.3   234  ILE234      0.0276
    108  CG1       38.8770  -23.3200  -37.7300 C.3   234  ILE234      0.0022
    109  CG2       37.6970  -22.3670  -35.7420 C.3   234  ILE234      0.0022
    110  CD1       39.3460  -24.5600  -38.4530 C.3   234  ILE234      0.0001
    111  N         45.8520  -26.8070  -33.5980 N.3   241  GLN241     -0.1245
    112  CA        44.8840  -26.8060  -34.7120 C.3   241  GLN241      0.1566
    113  C         45.2200  -27.8740  -35.7600 C.2   241  GLN241      0.2260
    114  O         44.3350  -28.6330  -36.1910 O.2   241  GLN241     -0.2867
    115  CB        44.7810  -25.4070  -35.3560 C.3   241  GLN241      0.0367
    116  CG        44.3710  -25.3630  -36.8390 C.3   241  GLN241      0.0905
    117  CD        43.0220  -25.9990  -37.1440 C.2   241  GLN241      0.2608
    118  OE1       42.7760  -26.4860  -38.2650 O.2   241  GLN241     -0.2717
    119  NE2       42.1350  -25.9960  -36.1500 N.am  241  GLN241     -0.0878
    120  N         44.3190  -31.2320  -34.5260 N.3   244  ILE244     -0.1231
    121  CA        42.8870  -31.3910  -34.4220 C.3   244  ILE244      0.1692
    122  C         42.3140  -31.6100  -35.8140 C.2   244  ILE244      0.2591
    123  O         41.5490  -32.5480  -36.0170 O.2   244  ILE244     -0.2718
    124  CB        42.2210  -30.2050  -33.7000 C.3   244  ILE244      0.0266
    125  CG1       42.7390  -30.0660  -32.2420 C.3   244  ILE244      0.0019
    126  CG2       40.6970  -30.3610  -33.7200 C.3   244  ILE244      0.0020
    127  CD1       42.4940  -31.2860  -31.3550 C.3   244  ILE244      0.0001
    128  N         42.7350  -30.7930  -36.7770 N.am  245  ALA245     -0.1980
    129  CA        42.4190  -31.0460  -38.1910 C.3   245  ALA245      0.1597
    130  C         42.7220  -32.4770  -38.6200 C.2   245  ALA245      0.2287
    131  O         42.0870  -33.0130  -39.4820 O.2   245  ALA245     -0.2864
    132  CB        43.1580  -30.0590  -39.0890 C.3   245  ALA245      0.0319
    133  N         39.7940  -34.6650  -37.1200 N.3   248  VAL248     -0.1231
    134  CA        38.6590  -34.3280  -37.9920 C.3   248  VAL248      0.1692
    135  C         38.7690  -35.0910  -39.2910 C.2   248  VAL248      0.2591
    136  O         37.8060  -35.7070  -39.7310 O.2   248  VAL248     -0.2718
    137  CB        38.6110  -32.8120  -38.3000 C.3   248  VAL248      0.0266
    138  CG1       37.7460  -32.5030  -39.5220 C.3   248  VAL248      0.0020
    139  CG2       38.1660  -32.0140  -37.0750 C.3   248  VAL248      0.0020
    140  N         39.9560  -35.0530  -39.8880 N.am  249  ALA249     -0.1980
    141  CA        40.1880  -35.6810  -41.1880 C.3   249  ALA249      0.1597
    142  C         40.0790  -37.2060  -41.1290 C.2   249  ALA249      0.2287
    143  O         39.3920  -37.8130  -41.9670 O.2   249  ALA249     -0.2864
    144  CB        41.5330  -35.2510  -41.7540 C.3   249  ALA249      0.0319
    145  N         36.4250  -37.8490  -40.9300 N.3   252  PHE252     -0.1227
    146  CA        35.7770  -37.4800  -42.2050 C.3   252  PHE252      0.1736
    147  C         36.1360  -38.3650  -43.4010 C.2   252  PHE252      0.2595
    148  O         35.4330  -38.2820  -44.4040 O.2   252  PHE252     -0.2718
    149  CB        36.0020  -35.9980  -42.5870 C.3   252  PHE252      0.0547
    150  CG        34.7890  -35.1280  -42.3890 C.ar  252  PHE252     -0.0202
    151  CD1       33.7090  -35.2020  -43.2880 C.ar  252  PHE252     -0.0042
    152  CD2       34.7070  -34.2470  -41.3060 C.ar  252  PHE252     -0.0042
    153  CE1       32.5740  -34.4130  -43.1090 C.ar  252  PHE252     -0.0003
    154  CE2       33.5770  -33.4550  -41.1220 C.ar  252  PHE252     -0.0003
    155  CZ        32.5090  -33.5360  -42.0290 C.ar  252  PHE252     -0.0000
    156  N         37.2110  -39.1680  -43.3170 N.am  253  PHE253     -0.1976
    157  CA        37.5030  -40.2010  -44.3300 C.3   253  PHE253      0.1639
    158  C         37.1440  -41.6470  -43.8920 C.2   253  PHE253      0.2290
    159  O         36.7480  -42.4450  -44.7480 O.2   253  PHE253     -0.2864
    160  CB        38.9810  -40.1690  -44.7720 C.3   253  PHE253      0.0560
    161  CG        39.4470  -38.8550  -45.4010 C.ar  253  PHE253     -0.0200
    162  CD1       38.7470  -38.2530  -46.4440 C.ar  253  PHE253     -0.0042
    163  CD2       40.6470  -38.2500  -44.9840 C.ar  253  PHE253     -0.0042
    164  CE1       39.2030  -37.0680  -47.0110 C.ar  253  PHE253     -0.0003
    165  CE2       41.0940  -37.0610  -45.5520 C.ar  253  PHE253     -0.0003
    166  CZ        40.3770  -36.4780  -46.5690 C.ar  253  PHE253     -0.0000
    167  N         43.3290  -31.5220  -47.1450 N.3   261  ILE261     -0.1245
    168  CA        42.9700  -30.8840  -45.8900 C.3   261  ILE261      0.1561
    169  C         43.0910  -29.3540  -45.9100 C.2   261  ILE261      0.2260
    170  O         42.1340  -28.6800  -45.5370 O.2   261  ILE261     -0.2867
    171  CB        43.7510  -31.4730  -44.6840 C.3   261  ILE261      0.0252
    172  CG1       43.3000  -32.8990  -44.3700 C.3   261  ILE261      0.0019
    173  CG2       43.5620  -30.6180  -43.4330 C.3   261  ILE261      0.0019
    174  CD1       44.2040  -33.6170  -43.3730 C.3   261  ILE261      0.0001
    175  N         40.3380  -27.4640  -47.6080 N.3   264  MET264     -0.1230
    176  CA        39.0930  -27.7100  -46.8680 C.3   264  MET264      0.1702
    177  C         38.9920  -26.9500  -45.5380 C.2   264  MET264      0.2592
    178  O         37.8800  -26.5560  -45.1260 O.2   264  MET264     -0.2718
    179  CB        38.9100  -29.2060  -46.6160 C.3   264  MET264      0.0401
    180  CG        38.6930  -30.0350  -47.8720 C.3   264  MET264      0.0596
    181  SD        38.7530  -31.8080  -47.5160 S.3   264  MET264     -0.1393
    182  CE        37.5640  -32.4290  -48.7110 C.3   264  MET264      0.0692
    183  N         40.1240  -26.7570  -44.8630 N.am  265  GLN265     -0.1979
    184  CA        40.1410  -25.9710  -43.6350 C.3   265  GLN265      0.1601
    185  C         39.8240  -24.5330  -43.9490 C.2   265  GLN265      0.2287
    186  O         39.0890  -23.8630  -43.2300 O.2   265  GLN265     -0.2864
    187  CB        41.4940  -26.0510  -42.9120 C.3   265  GLN265      0.0394
    188  CG        41.7950  -27.4140  -42.3140 C.3   265  GLN265      0.0908
    189  CD        40.7220  -27.9050  -41.3500 C.2   265  GLN265      0.2608
    190  OE1       39.9240  -28.7850  -41.7040 O.2   265  GLN265     -0.2717
    191  NE2       40.6840  -27.3270  -40.1310 N.am  265  GLN265     -0.0878
    192  N         36.1290  -24.1650  -44.8550 N.3   268  PHE268     -0.1241
    193  CA        35.3360  -24.2030  -43.6450 C.3   268  PHE268      0.1605
    194  C         35.4110  -22.9230  -42.8220 C.2   268  PHE268      0.2264
    195  O         34.4000  -22.4790  -42.2390 O.2   268  PHE268     -0.2867
    196  CB        35.7800  -25.3660  -42.7720 C.3   268  PHE268      0.0534
    197  CG        34.9640  -25.4810  -41.5320 C.ar  268  PHE268     -0.0203
    198  CD1       33.6130  -25.7890  -41.6240 C.ar  268  PHE268     -0.0042
    199  CD2       35.5050  -25.2030  -40.2950 C.ar  268  PHE268     -0.0042
    200  CE1       32.8090  -25.8570  -40.4980 C.ar  268  PHE268     -0.0003
    201  CE2       34.7080  -25.2740  -39.1600 C.ar  268  PHE268     -0.0003
    202  CZ        33.3540  -25.5880  -39.2640 C.ar  268  PHE268     -0.0000
@<TRIPOS>BOND
     1   182   181    1
     2   180   181    1
     3   180   179    1
     4   175   176    1
     5   167   168    1
     6   164   166   ar
     7   164   162   ar
     8   176   179    1
     9   176   177    1
    10   166   165   ar
    11   162   161   ar
    12   169   168    1
    13   169   170    2
    14   168   171    1
    15   165   163   ar
    16   177   178    2
    17   177   183   am
    18   161   163   ar
    19   161   160    1
    20   183   184    1
    21   192   193    1
    22   160   157    1
    23   159   158    2
    24   171   172    1
    25   171   173    1
    26   148   147    2
    27   172   174    1
    28   157   158    1
    29   157   156    1
    30    47    45   am
    31   185   184    1
    32   185   186    2
    33   193   194    1
    34   193   196    1
    35   184   187    1
    36   147   156   am
    37   147   146    1
    38   151   153   ar
    39   151   150   ar
    40    45    46    2
    41    45    44    1
    42   153   155   ar
    43    58    59    1
    44    58    55    1
    45   187   188    1
    46    59    61   ar
    47    59    60   ar
    48    61    63   ar
    49   194   195    2
    50    44    41    1
    51   196   197    1
    52    63    64   ar
    53    60    62   ar
    54   149   150    1
    55   149   146    1
    56    64    62   ar
    57    64    65    1
    58   150   152   ar
    59    43    42    2
    60   188   189    1
    61   146   145    1
    62   155   154   ar
    63   143   142    2
    64    41    42    1
    65    41    40    1
    66    54    55    1
    67   144   141    1
    68    55    56    1
    69   190   189    2
    70   198   197   ar
    71   198   200   ar
    72   197   199   ar
    73   189   191   am
    74   152   154   ar
    75    57    56    2
    76   141   142    1
    77   141   140    1
    78    40    35   am
    79    36    35    2
    80   200   202   ar
    81   199   201   ar
    82    35    34    1
    83    39    37    1
    84   140   135   am
    85    52    49    1
    86    52    53    1
    87   136   135    2
    88    51    50    2
    89    48    49    1
    90   138   137    1
    91   131   130    2
    92    37    34    1
    93    37    38    1
    94    77    76    2
    95   135   134    1
    96   202   201   ar
    97    76    75    1
    98   132   129    1
    99    34    33    1
   100    49    50    1
   101    78    75    1
   102    78    79    1
   103   130   129    1
   104   110   108    1
   105    80    79    1
   106   137   134    1
   107   137   139    1
   108   118   117    2
   109    75    74    1
   110   129   128    1
   111    81    79    1
   112   134   133    1
   113   108   107    1
   114   117   116    1
   115   117   119   am
   116   116   115    1
   117   128   122   am
   118   107   109    1
   119   107   104    1
   120   114   113    2
   121    96    95    1
   122   123   122    2
   123    71    72    1
   124    71    70    1
   125   106   105    2
   126   122   121    1
   127    97    95    1
   128   113   112    1
   129    21    19   ar
   130    21    22   ar
   131   104   105    1
   132   104   103    1
   133   115   112    1
   134    72    73    1
   135    95    94    1
   136    19    18   ar
   137    31    32   ar
   138    31    29   ar
   139    66    67    1
   140    22    20   ar
   141    70    67    1
   142    32    30   ar
   143   112   111    1
   144   120   121    1
   145    94    91    1
   146   121   124    1
   147     5     6    1
   148     5     2    1
   149   103   100   am
   150     8     6   ar
   151     8    10   ar
   152    67    68    1
   153    29    28   ar
   154    18    20   ar
   155    18    17    1
   156    93    92    2
   157     6     7   ar
   158     1     2    1
   159   126   124    1
   160   124   125    1
   161    10    11   ar
   162    91    92    1
   163    91    90    1
   164   101   100    2
   165    30    28   ar
   166   100    99    1
   167     2     3    1
   168    28    27    1
   169    68    69    2
   170    17    14    1
   171     7     9   ar
   172    13     3   am
   173    13    14    1
   174    11     9   ar
   175    11    12    1
   176    89    87   ar
   177    90    84   am
   178   102    99    1
   179     3     4    2
   180   125   127    1
   181    99    98    1
   182    85    84    2
   183    14    15    1
   184    25    24    1
   185    25    26    2
   186    84    83    1
   187    87    88   ar
   188    87    86    1
   189    27    24    1
   190    24    23    1
   191    86    83    1
   192    15    16    2
   193    83    82    1
