@<TRIPOS>MOLECULE
tmp/6achB00.pdb
 163 155 0 0 0
SMALL
GASTEIGER

@<TRIPOS>ATOM
      1  N         86.4410  106.3270  134.7870 N.3    68  LYS68      -0.1245
      2  CA        87.1680  106.7080  135.9940 C.3    68  LYS68       0.1561
      3  C         88.1840  107.8030  135.7280 C.2    68  LYS68       0.2260
      4  O         88.2040  108.8050  136.4410 O.2    68  LYS68      -0.2867
      5  CB        87.8670  105.5100  136.6150 C.3    68  LYS68       0.0271
      6  CG        88.6420  105.8960  137.8450 C.3    68  LYS68       0.0035
      7  CD        89.4420  104.7690  138.4170 C.3    68  LYS68       0.0206
      8  CE        88.5840  103.8090  139.1770 C.3    68  LYS68       0.1093
      9  NZ        89.4210  102.8000  139.8740 N.3    68  LYS68      -0.1314
     10  N         99.3650  103.3050  147.3830 N.3   143  PRO143     -0.2102
     11  CA        98.2080  104.1580  147.0960 C.3   143  PRO143      0.1504
     12  C         97.1650  104.2180  148.1950 C.2   143  PRO143      0.2576
     13  O         96.2090  104.9870  148.0620 O.2   143  PRO143     -0.2718
     14  CB        97.6190  103.5090  145.8400 C.3   143  PRO143      0.0282
     15  CG        98.0010  102.0980  145.9490 C.3   143  PRO143      0.0208
     16  CD        99.3400  102.0640  146.5930 C.3   143  PRO143      0.0893
     17  N         97.3070  103.4550  149.2670 N.am  144  SER144     -0.1953
     18  CA        96.2400  103.3360  150.2550 C.3   144  SER144      0.1924
     19  C         96.0040  104.5580  151.1490 C.2   144  SER144      0.2314
     20  O         94.8300  104.8470  151.4290 O.2   144  SER144     -0.2863
     21  CB        96.4800  102.0900  151.1010 C.3   144  SER144      0.2116
     22  OG        96.3940  100.9370  150.2880 O.3   144  SER144     -0.2180
     23  N         94.0220  106.7430  148.6750 N.3   147  THR147     -0.1218
     24  CA        92.6470  106.3130  148.4390 C.3   147  THR147      0.1862
     25  C         91.7800  106.5980  149.6520 C.2   147  THR147      0.2287
     26  O         90.6440  107.0620  149.5110 O.2   147  THR147     -0.2866
     27  CB        92.6120  104.8300  148.0880 C.3   147  THR147      0.1770
     28  OG1       93.4370  104.5940  146.9470 O.3   147  THR147     -0.2211
     29  CG2       91.2160  104.3940  147.7560 C.3   147  THR147      0.0375
     30  N         82.9350   98.4560  157.0830 N.3   176  GLN176     -0.1231
     31  CA        83.2540   97.0390  157.0090 C.3   176  GLN176      0.1698
     32  C         84.5660   96.8100  156.2730 C.2   176  GLN176      0.2593
     33  O         84.8300   97.4210  155.2350 O.2   176  GLN176     -0.2718
     34  CB        82.1200   96.2360  156.3730 C.3   176  GLN176      0.0381
     35  CG        81.7250   96.5820  154.9800 C.3   176  GLN176      0.0905
     36  CD        80.6130   95.6890  154.5040 C.2   176  GLN176      0.2608
     37  OE1       80.2390   94.7420  155.1870 O.2   176  GLN176     -0.2717
     38  NE2       80.0510   96.0010  153.3550 N.am  176  GLN176     -0.0878
     39  N         85.3990   95.9420  156.8420 N.am  177  GLY177     -0.1942
     40  CA        86.7470   95.6970  156.3650 C.3   177  GLY177      0.2014
     41  C         87.7010   96.7470  156.8870 C.2   177  GLY177      0.2639
     42  O         87.4020   97.9340  156.7800 O.2   177  GLY177     -0.2714
     43  N         88.8310   96.3560  157.4830 N.am  178  VAL178     -0.1963
     44  CA        89.7720   97.3510  157.9980 C.3   178  VAL178      0.1727
     45  C         91.1060   97.0570  157.2940 C.2   178  VAL178      0.2617
     46  O         92.1920   97.1280  157.8800 O.2   178  VAL178     -0.2715
     47  CB        89.8550   97.3110  159.5470 C.3   178  VAL178      0.0290
     48  CG1       90.5930   98.5280  160.1530 C.3   178  VAL178      0.0023
     49  CG2       88.4840   97.1890  160.1900 C.3   178  VAL178      0.0023
     50  N         91.0290   96.6720  156.0250 N.am  179  GLY179     -0.1940
     51  CA        92.2050   96.2380  155.2880 C.3   179  GLY179      0.2014
     52  C         92.9620   97.3130  154.5360 C.2   179  GLY179      0.2639
     53  O         92.7340   97.5100  153.3390 O.2   179  GLY179     -0.2714
     54  N         93.7850   98.0760  155.2590 N.am  180  ASN180     -0.1958
     55  CA        94.8020   99.0110  154.7620 C.3   180  ASN180      0.1819
     56  C         94.2700  100.2660  154.0850 C.2   180  ASN180      0.2621
     57  O         95.0230  101.2290  153.9250 O.2   180  ASN180     -0.2715
     58  CB        95.7670   98.3340  153.7770 C.3   180  ASN180      0.1195
     59  CG        96.7440   97.4090  154.4530 C.2   180  ASN180      0.2630
     60  OD1       97.2740   97.7250  155.5160 O.2   180  ASN180     -0.2716
     61  ND2       97.0120   96.2680  153.8320 N.am  180  ASN180     -0.0877
     62  N         92.9950  100.3100  153.7300 N.am  181  VAL181     -0.1977
     63  CA        92.4110  101.4530  153.0410 C.3   181  VAL181      0.1596
     64  C         91.2920  102.0770  153.8650 C.2   181  VAL181      0.2287
     65  O         91.1320  103.2950  153.8950 O.2   181  VAL181     -0.2864
     66  CB        91.9440  101.0770  151.6130 C.3   181  VAL181      0.0276
     67  CG1       90.8750  100.0240  151.6160 C.3   181  VAL181      0.0022
     68  CG2       91.4530  102.2950  150.8640 C.3   181  VAL181      0.0022
     69  N         83.7940   96.6140  161.4440 N.3   199  THR199     -0.1203
     70  CA        83.7310   95.1600  161.4400 C.3   199  THR199      0.1994
     71  C         84.6690   94.6290  160.3700 C.2   199  THR199      0.2618
     72  O         85.1540   95.3710  159.5140 O.2   199  THR199     -0.2717
     73  CB        82.3160   94.6310  161.2050 C.3   199  THR199      0.1784
     74  OG1       82.3130   93.2110  161.3860 O.3   199  THR199     -0.2211
     75  CG2       81.8640   94.9230  159.8160 C.3   199  THR199      0.0376
     76  N         84.8980   93.3210  160.4240 N.am  200  ASP200     -0.1959
     77  CA        85.8730   92.6240  159.5980 C.3   200  ASP200      0.1840
     78  C         85.6260   91.1330  159.7720 C.2   200  ASP200      0.2622
     79  O         85.0400   90.6990  160.7660 O.2   200  ASP200     -0.2715
     80  CB        87.3070   93.0070  159.9990 C.3   200  ASP200      0.1450
     81  CG        88.3600   92.5040  159.0300 C.2   200  ASP200      0.3671
     82  OD1       88.0200   91.8010  158.0640 O.co2 200  ASP200     -0.2456
     83  OD2       89.5470   92.8230  159.2360 O.co2 200  ASP200     -0.2456
     84  N         86.0840   90.3530  158.7910 N.am  201  ILE201     -0.1963
     85  CA        86.0020   88.9020  158.9170 C.3   201  ILE201      0.1727
     86  C         87.0060   88.3810  159.9390 C.2   201  ILE201      0.2616
     87  O         86.8190   87.2960  160.5000 O.2   201  ILE201     -0.2715
     88  CB        86.1540   88.2360  157.5320 C.3   201  ILE201      0.0290
     89  CG1       87.4190   88.6900  156.7820 C.3   201  ILE201      0.0022
     90  CG2       84.9190   88.4780  156.6940 C.3   201  ILE201      0.0023
     91  CD1       88.6700   87.8390  156.9940 C.3   201  ILE201      0.0001
     92  N         88.0840   89.1180  160.1840 N.am  202  ASN202     -0.1972
     93  CA        89.0120   88.7730  161.2460 C.3   202  ASN202      0.1688
     94  C         88.5880   89.4490  162.5460 C.2   202  ASN202      0.2292
     95  O         87.6000   90.1830  162.6070 O.2   202  ASN202     -0.2864
     96  CB        90.4390   89.1660  160.8720 C.3   202  ASN202      0.1181
     97  CG        91.0120   88.2990  159.7760 C.2   202  ASN202      0.2629
     98  OD1       90.7950   87.0890  159.7500 O.2   202  ASN202     -0.2716
     99  ND2       91.7690   88.9090  158.8720 N.am  202  ASN202     -0.0877
    100  N         79.9130   90.6710  161.5130 N.3   220  PRO220     -0.2116
    101  CA        79.9580   91.0860  160.1000 C.3   220  PRO220      0.1372
    102  C         78.6480   90.9300  159.3470 C.2   220  PRO220      0.2244
    103  O         78.4320   91.6560  158.3710 O.2   220  PRO220     -0.2868
    104  CB        81.0410   90.1770  159.5050 C.3   220  PRO220      0.0268
    105  CG        81.8660   89.7620  160.6600 C.3   220  PRO220      0.0207
    106  CD        80.9100   89.6240  161.7950 C.3   220  PRO220      0.0892
    107  N         83.9920   98.6940  152.1830 N.3   234  CYS234     -0.1221
    108  CA        85.3750   98.6760  151.7330 C.3   234  CYS234      0.1808
    109  C         85.9000   97.2590  151.5640 C.2   234  CYS234      0.2601
    110  O         87.1050   97.0260  151.6980 O.2   234  CYS234     -0.2717
    111  CB        86.2780   99.4270  152.7100 C.3   234  CYS234      0.0970
    112  SG        85.9920  101.1890  152.8270 S.3   234  CYS234     -0.0800
    113  N         85.0250   96.2970  151.2770 N.am  235  ALA235     -0.1965
    114  CA        85.4330   94.9000  151.2170 C.3   235  ALA235      0.1728
    115  C         85.3270   94.2940  149.8230 C.2   235  ALA235      0.2616
    116  O         86.3320   93.8350  149.2770 O.2   235  ALA235     -0.2715
    117  CB        84.6020   94.0810  152.2090 C.3   235  ALA235      0.0334
    118  N         84.1390   94.2650  149.2240 N.am  236  LEU236     -0.1977
    119  CA        83.9570   93.5820  147.9480 C.3   236  LEU236      0.1596
    120  C         82.9360   94.3410  147.1210 C.2   236  LEU236      0.2287
    121  O         82.5250   95.4520  147.4590 O.2   236  LEU236     -0.2864
    122  CB        83.4830   92.1300  148.1080 C.3   236  LEU236      0.0297
    123  CG        84.3450   90.9300  148.4960 C.3   236  LEU236      0.0022
    124  CD1       84.6480   90.8740  149.9860 C.3   236  LEU236      0.0001
    125  CD2       83.6620   89.6600  148.0320 C.3   236  LEU236      0.0001
    126  N         85.1170  102.7530  149.4460 N.3   256  SER256     -0.1202
    127  CA        86.1740  102.5840  148.4600 C.3   256  SER256      0.2020
    128  C         86.0590  101.3000  147.6700 C.2   256  SER256      0.2619
    129  O         86.9830  100.9660  146.9300 O.2   256  SER256     -0.2717
    130  CB        87.5400  102.6000  149.1290 C.3   256  SER256      0.2103
    131  OG        87.7120  101.4370  149.9070 O.3   256  SER256     -0.2182
    132  N         84.9680  100.5690  147.8060 N.am  257  ALA257     -0.1965
    133  CA        84.8570   99.2790  147.1530 C.3   257  ALA257      0.1728
    134  C         84.4950   99.4410  145.6870 C.2   257  ALA257      0.2616
    135  O         83.7330  100.3350  145.3190 O.2   257  ALA257     -0.2715
    136  CB        83.8040   98.4340  147.8540 C.3   257  ALA257      0.0334
    137  N         85.0270   98.5570  144.8540 N.am  258  ASN258     -0.1972
    138  CA        84.7190   98.5500  143.4320 C.3   258  ASN258      0.1688
    139  C         83.4560   97.7500  143.1550 C.2   258  ASN258      0.2292
    140  O         83.2090   96.7300  143.8010 O.2   258  ASN258     -0.2864
    141  CB        85.8760   97.9580  142.6390 C.3   258  ASN258      0.1181
    142  CG        87.0520   98.8750  142.5760 C.2   258  ASN258      0.2629
    143  OD1       86.8980  100.0760  142.3630 O.2   258  ASN258     -0.2716
    144  ND2       88.2420   98.3270  142.7680 N.am  258  ASN258     -0.0877
    145  N         86.5610  106.4770  145.0510 N.3   284  ASN284     -0.1240
    146  CA        87.7800  105.7150  145.2710 C.3   284  ASN284      0.1653
    147  C         88.8480  105.9400  144.2160 C.2   284  ASN284      0.2266
    148  O         89.6980  105.0690  144.0420 O.2   284  ASN284     -0.2867
    149  CB        87.4710  104.2170  145.3840 C.3   284  ASN284      0.1155
    150  CG        86.8720  103.5990  144.1160 C.2   284  ASN284      0.2627
    151  OD1       86.7580  104.2160  143.0670 O.2   284  ASN284     -0.2716
    152  ND2       86.4830  102.3450  144.2330 N.am  284  ASN284     -0.0877
    153  N         93.7250  106.4770  144.2480 N.3   287  GLY287     -0.1210
    154  CA        94.9240  105.7170  143.9620 C.3   287  GLY287      0.1956
    155  C         95.3810  105.8750  142.5310 C.2   287  GLY287      0.2611
    156  O         96.5840  105.8810  142.2540 O.2   287  GLY287     -0.2717
    157  N         94.4340  106.0420  141.6120 N.am  288  VAL288     -0.1979
    158  CA        94.7680  106.2630  140.2140 C.3   288  VAL288      0.1595
    159  C         95.3680  107.6470  140.0240 C.2   288  VAL288      0.2287
    160  O         96.3100  107.8240  139.2460 O.2   288  VAL288     -0.2864
    161  CB        93.5160  106.0490  139.3520 C.3   288  VAL288      0.0276
    162  CG1       93.7950  106.3270  137.9190 C.3   288  VAL288      0.0022
    163  CG2       93.0340  104.6350  139.5090 C.3   288  VAL288      0.0022
@<TRIPOS>BOND
     1     1     2    1
     2     3     2    1
     3     3     4    2
     4     2     5    1
     5     5     6    1
     6     6     7    1
     7   162   161    1
     8     7     8    1
     9     8     9    1
    10   160   159    2
    11   161   163    1
    12   161   158    1
    13   159   158    1
    14   158   157    1
    15   157   155   am
    16   156   155    2
    17   143   142    2
    18   155   154    1
    19   142   141    1
    20   142   144   am
    21   141   138    1
    22   151   150    2
    23   139   138    1
    24   139   140    2
    25   138   137    1
    26   154   153    1
    27   148   147    2
    28   150   152   am
    29   150   149    1
    30   147   146    1
    31   137   134   am
    32   145   146    1
    33   146   149    1
    34   135   134    2
    35   134   133    1
    36    14    15    1
    37    14    11    1
    38    15    16    1
    39    16    10    1
    40   129   128    2
    41    28    27    1
    42    11    10    1
    43    11    12    1
    44   120   121    2
    45   120   119    1
    46   133   132    1
    47   133   136    1
    48   128   132   am
    49   128   127    1
    50    29    27    1
    51   119   122    1
    52   119   118    1
    53   125   123    1
    54    13    12    2
    55    27    24    1
    56   122   123    1
    57    12    17   am
    58    24    23    1
    59    24    25    1
    60   127   130    1
    61   127   126    1
    62   123   124    1
    63   130   131    1
    64   118   115   am
    65    17    18    1
    66   116   115    2
    67    26    25    2
    68   115   114    1
    69    18    21    1
    70    18    19    1
    71    22    21    1
    72    68    66    1
    73    19    20    2
    74   114   113    1
    75   114   117    1
    76   113   109   am
    77   109   110    2
    78   109   108    1
    79    66    67    1
    80    66    63    1
    81   108   107    1
    82   108   111    1
    83   111   112    1
    84    63    62    1
    85    63    64    1
    86    53    52    2
    87    38    36   am
    88    62    56   am
    89    58    59    1
    90    58    55    1
    91    61    59   am
    92    64    65    2
    93    57    56    2
    94    56    55    1
    95    59    60    2
    96    36    35    1
    97    36    37    2
    98    52    54   am
    99    52    51    1
   100    55    54    1
   101    35    34    1
   102    33    32    2
   103    51    50    1
   104    50    45   am
   105    32    39   am
   106    32    31    1
   107    40    39    1
   108    40    41    1
   109    34    31    1
   110    90    88    1
   111    42    41    2
   112    89    91    1
   113    89    88    1
   114    41    43   am
   115    31    30    1
   116    45    46    2
   117    45    44    1
   118    43    44    1
   119    88    85    1
   120    44    47    1
   121    82    81   ar
   122   103   102    2
   123    84    85    1
   124    84    78   am
   125    99    97   am
   126    85    86    1
   127    81    83   ar
   128    81    80    1
   129   102   101    1
   130   104   101    1
   131   104   105    1
   132    72    71    2
   133    47    48    1
   134    47    49    1
   135    77    78    1
   136    77    80    1
   137    77    76    1
   138    98    97    2
   139    78    79    2
   140    97    96    1
   141    75    73    1
   142    86    92   am
   143    86    87    2
   144   101   100    1
   145    92    93    1
   146    71    76   am
   147    71    70    1
   148   105   106    1
   149    96    93    1
   150    73    74    1
   151    73    70    1
   152    93    94    1
   153    70    69    1
   154   100   106    1
   155    94    95    2
