@<TRIPOS>MOLECULE
tmp/6acnA00.pdb
 105 98 0 0 0
SMALL
GASTEIGER

@<TRIPOS>ATOM
      1  N         80.5290   35.6400   27.6600 N.3    57  GLY57      -0.1225
      2  CA        80.4050   37.0890   27.8210 C.3    57  GLY57       0.1811
      3  C         80.4560   37.8640   26.5210 C.2    57  GLY57       0.2280
      4  O         80.4590   39.0930   26.5520 O.2    57  GLY57      -0.2866
      5  N         75.4890   36.0220   21.5030 N.3    60  TYR60      -0.1241
      6  CA        74.1210   35.8440   22.0010 C.3    60  TYR60       0.1605
      7  C         73.6520   34.4660   21.5810 C.2    60  TYR60       0.2264
      8  O         73.5310   34.1140   20.4160 O.2    60  TYR60      -0.2867
      9  CB        73.0930   36.8310   21.4390 C.3    60  TYR60       0.0534
     10  CG        73.1530   38.2040   22.0920 C.ar   60  TYR60      -0.0201
     11  CD1       73.9820   39.2200   21.6150 C.ar   60  TYR60      -0.0009
     12  CD2       72.3740   38.4530   23.1910 C.ar   60  TYR60      -0.0009
     13  CE1       74.0450   40.4720   22.2200 C.ar   60  TYR60       0.0417
     14  CE2       72.4250   39.6970   23.8050 C.ar   60  TYR60       0.0417
     15  CZ        73.2560   40.7000   23.3250 C.ar   60  TYR60       0.1957
     16  OH        73.2960   41.9120   23.9950 O.3    60  TYR60      -0.2866
     17  N         70.1990   34.8620   24.7050 N.3   196  LEU196     -0.1231
     18  CA        70.8310   35.1120   25.9780 C.3   196  LEU196      0.1693
     19  C         72.3150   35.3060   25.7120 C.2   196  LEU196      0.2591
     20  O         72.9340   34.4930   25.0520 O.2   196  LEU196     -0.2718
     21  CB        70.6340   33.9350   26.9300 C.3   196  LEU196      0.0284
     22  CG        71.2630   34.0430   28.3310 C.3   196  LEU196      0.0019
     23  CD1       70.5660   35.0860   29.1790 C.3   196  LEU196      0.0001
     24  CD2       71.2050   32.6920   28.9820 C.3   196  LEU196      0.0001
     25  N         72.9150   36.4120   26.1500 N.am  197  LYS197     -0.1980
     26  CA        74.3500   36.7040   26.0960 C.3   197  LYS197      0.1596
     27  C         75.0300   35.5600   26.8030 C.2   197  LYS197      0.2287
     28  O         74.6430   35.2130   27.9230 O.2   197  LYS197     -0.2864
     29  CB        74.5980   38.0270   26.8260 C.3   197  LYS197      0.0298
     30  CG        75.9970   38.4660   27.2160 C.3   197  LYS197      0.0038
     31  CD        76.7070   38.8640   25.9710 C.3   197  LYS197      0.0206
     32  CE        76.7820   40.3560   25.9480 C.3   197  LYS197      0.1093
     33  NZ        77.8690   40.7990   26.7950 N.3   197  LYS197     -0.1314
     34  N         76.7680   33.5090   29.1570 N.3   199  PRO199     -0.2102
     35  CA        77.2680   33.7200   30.5180 C.3   199  PRO199      0.1504
     36  C         78.6890   33.2840   30.8380 C.2   199  PRO199      0.2575
     37  O         79.2420   32.3740   30.2240 O.2   199  PRO199     -0.2718
     38  CB        76.2710   33.0070   31.4150 C.3   199  PRO199      0.0282
     39  CG        75.0990   32.6910   30.5120 C.3   199  PRO199      0.0208
     40  CD        75.7060   32.4990   29.1440 C.3   199  PRO199      0.0893
     41  N         79.2920   33.9750   31.7820 N.am  200  LYS200     -0.1980
     42  CA        80.5200   33.5440   32.3920 C.3   200  LYS200      0.1596
     43  C         80.0490   32.6190   33.4960 C.2   200  LYS200      0.2287
     44  O         78.8600   32.6360   33.8320 O.2   200  LYS200     -0.2864
     45  CB        81.2480   34.6910   33.0410 C.3   200  LYS200      0.0298
     46  CG        82.4590   35.2220   32.3290 C.3   200  LYS200      0.0038
     47  CD        82.0360   35.8100   31.0480 C.3   200  LYS200      0.0206
     48  CE        82.5960   37.2070   31.0340 C.3   200  LYS200      0.1093
     49  NZ        83.9950   37.1290   30.6890 N.3   200  LYS200     -0.1314
     50  N         76.8790   40.1390   37.9060 N.3   233  THR233     -0.1203
     51  CA        76.3470   40.5150   36.5900 C.3   233  THR233      0.1994
     52  C         77.0520   39.7520   35.4920 C.2   233  THR233      0.2618
     53  O         78.2610   39.5500   35.5610 O.2   233  THR233     -0.2717
     54  CB        76.5040   42.0500   36.3050 C.3   233  THR233      0.1784
     55  OG1       75.9370   42.8440   37.3710 O.3   233  THR233     -0.2211
     56  CG2       75.7500   42.4170   35.0260 C.3   233  THR233      0.0376
     57  N         76.2590   39.2510   34.5540 N.am  234  GLY234     -0.1956
     58  CA        76.7260   38.5610   33.3670 C.3   234  GLY234      0.1869
     59  C         77.1540   37.1350   33.5510 C.2   234  GLY234      0.2309
     60  O         77.5940   36.5090   32.5940 O.2   234  GLY234     -0.2863
     61  N         72.9290   35.8280   36.2540 N.3   265  THR265     -0.1218
     62  CA        71.8730   35.4670   35.3080 C.3   265  THR265      0.1862
     63  C         70.9780   34.3730   35.9040 C.2   265  THR265      0.2287
     64  O         69.7720   34.4160   35.7120 O.2   265  THR265     -0.2866
     65  CB        72.5610   35.0610   33.9690 C.3   265  THR265      0.1770
     66  OG1       73.2540   36.2020   33.5240 O.3   265  THR265     -0.2211
     67  CG2       71.6190   34.7080   32.8580 C.3   265  THR265      0.0375
     68  N         74.1630   48.7860   32.8100 N.3   663  PHE663     -0.1241
     69  CA        72.7900   48.3490   33.0260 C.3   663  PHE663      0.1605
     70  C         72.7530   46.9890   33.6660 C.2   663  PHE663      0.2264
     71  O         73.7560   46.2670   33.6970 O.2   663  PHE663     -0.2867
     72  CB        72.0010   48.2070   31.7500 C.3   663  PHE663      0.0534
     73  CG        71.6340   49.4800   31.0260 C.ar  663  PHE663     -0.0203
     74  CD1       72.3760   49.8720   29.9310 C.ar  663  PHE663     -0.0042
     75  CD2       70.5390   50.1940   31.4480 C.ar  663  PHE663     -0.0042
     76  CE1       72.0030   50.9980   29.2430 C.ar  663  PHE663     -0.0003
     77  CE2       70.1840   51.3160   30.7470 C.ar  663  PHE663     -0.0003
     78  CZ        70.9060   51.7190   29.6490 C.ar  663  PHE663     -0.0000
     79  N         71.0190   43.4020   33.5220 N.3   665  ARG665     -0.1245
     80  CA        70.6510   42.4820   32.4480 C.3   665  ARG665      0.1563
     81  C         69.2080   42.5200   32.0140 C.2   665  ARG665      0.2260
     82  O         68.9630   42.9140   30.8900 O.2   665  ARG665     -0.2867
     83  CB        71.0260   41.0700   32.9070 C.3   665  ARG665      0.0307
     84  CG        71.2130   39.9590   31.8940 C.3   665  ARG665      0.0489
     85  CD        71.0430   38.6330   32.6020 C.3   665  ARG665      0.2205
     86  NE        69.8070   38.1690   32.0380 N.pl3 665  ARG665     -0.0865
     87  CZ        68.7450   37.6920   32.6940 C.cat 665  ARG665      0.5346
     88  NH1       67.6720   37.4500   31.9470 N.pl3 665  ARG665      0.1354
     89  NH2       68.7410   37.4410   34.0000 N.pl3 665  ARG665      0.1354
     90  N         67.9680   45.8860   30.5570 N.3   668  GLU668     -0.1245
     91  CA        68.4670   46.1900   29.2390 C.3   668  GLU668      0.1567
     92  C         67.7860   45.3150   28.2000 C.2   668  GLU668      0.2260
     93  O         67.5580   45.7960   27.0950 O.2   668  GLU668     -0.2867
     94  CB        69.9890   45.9840   29.1930 C.3   668  GLU668      0.0388
     95  CG        70.6580   46.6130   27.9780 C.3   668  GLU668      0.1160
     96  CD        72.1200   46.2950   27.6860 C.2   668  GLU668      0.3649
     97  OE1       72.5860   46.6110   26.5960 O.co2 668  GLU668     -0.2457
     98  OE2       72.8380   45.7250   28.4890 O.co2 668  GLU668     -0.2457
     99  N         74.8690   46.8210   23.0770 N.3   729  THR729     -0.1218
    100  CA        75.0730   45.3920   22.8460 C.3   729  THR729      0.1862
    101  C         74.0940   44.7970   21.8440 C.2   729  THR729      0.2287
    102  O         73.8230   43.6050   21.7960 O.2   729  THR729     -0.2866
    103  CB        74.9920   44.6700   24.1940 C.3   729  THR729      0.1770
    104  OG1       73.6950   44.8560   24.7410 O.3   729  THR729     -0.2211
    105  CG2       75.9910   45.2410   25.1680 C.3   729  THR729      0.0375
@<TRIPOS>BOND
     1     8     7    2
     2     9     6    1
     3     9    10    1
     4     5     6    1
     5     7     6    1
     6    11    10   ar
     7    11    13   ar
     8   102   101    2
     9   101   100    1
    10    10    12   ar
    11    13    15   ar
    12   100    99    1
    13   100   103    1
    14    12    14   ar
    15    15    14   ar
    16    15    16    1
    17   103   104    1
    18   103   105    1
    19    17    18    1
    20    20    19    2
    21    19    18    1
    22    19    25   am
    23    32    31    1
    24    32    33    1
    25    31    30    1
    26    18    21    1
    27    26    25    1
    28    26    27    1
    29    26    29    1
    30     3     4    2
    31     3     2    1
    32    97    96   ar
    33    27    28    2
    34    29    30    1
    35    21    22    1
    36    93    92    2
    37     1     2    1
    38    96    95    1
    39    96    98   ar
    40    95    94    1
    41    92    91    1
    42    22    24    1
    43    22    23    1
    44    40    34    1
    45    40    39    1
    46    34    35    1
    47    94    91    1
    48    91    90    1
    49    76    78   ar
    50    76    74   ar
    51    78    77   ar
    52    74    73   ar
    53    37    36    2
    54    39    38    1
    55    35    36    1
    56    35    38    1
    57    49    48    1
    58    77    75   ar
    59    36    41   am
    60    82    81    2
    61    73    75   ar
    62    73    72    1
    63    48    47    1
    64    47    46    1
    65    72    69    1
    66    41    42    1
    67    84    85    1
    68    84    83    1
    69    88    87    1
    70    81    80    1
    71    86    85    1
    72    86    87    2
    73    46    45    1
    74    42    45    1
    75    42    43    1
    76    80    83    1
    77    80    79    1
    78    60    59    2
    79    87    89    1
    80    68    69    1
    81    67    65    1
    82    69    70    1
    83    58    59    1
    84    58    57    1
    85    43    44    2
    86    66    65    1
    87    70    71    2
    88    65    62    1
    89    57    52   am
    90    56    54    1
    91    62    63    1
    92    62    61    1
    93    52    53    2
    94    52    51    1
    95    64    63    2
    96    54    51    1
    97    54    55    1
    98    51    50    1
