@<TRIPOS>MOLECULE
tmp/6acsA00.pdb
 84 81 0 0 0
SMALL
GASTEIGER

@<TRIPOS>ATOM
      1  N         23.1490   26.1180   38.4730 N.3    15  MET15      -0.1230
      2  CA        22.3640   25.1040   37.7720 C.3    15  MET15       0.1702
      3  C         21.3210   24.5600   38.7370 C.2    15  MET15       0.2592
      4  O         21.6610   23.8610   39.6970 O.2    15  MET15      -0.2718
      5  CB        23.2820   23.9890   37.2520 C.3    15  MET15       0.0401
      6  CG        24.3890   24.5230   36.3250 C.3    15  MET15       0.0596
      7  SD        25.6070   23.2690   35.8080 S.3    15  MET15      -0.1393
      8  CE        26.4860   22.9430   37.3400 C.3    15  MET15       0.0692
      9  N         20.0540   24.9150   38.5240 N.am   16  ASP16      -0.1960
     10  CA        19.0030   24.4940   39.4470 C.3    16  ASP16       0.1840
     11  C         17.7350   24.1430   38.6730 C.2    16  ASP16       0.2623
     12  O         17.5290   24.6050   37.5530 O.2    16  ASP16      -0.2715
     13  CB        18.6870   25.5970   40.4650 C.3    16  ASP16       0.1450
     14  CG        17.7830   25.1190   41.5960 C.2    16  ASP16       0.3671
     15  OD1       17.6760   23.8910   41.8460 O.co2  16  ASP16      -0.2456
     16  OD2       17.1580   25.9800   42.2340 O.co2  16  ASP16      -0.2456
     17  N         16.9090   23.2980   39.2680 N.am   17  GLY17      -0.1940
     18  CA        15.5890   22.9690   38.7350 C.3    17  GLY17       0.2014
     19  C         15.3910   21.5180   38.4020 C.2    17  GLY17       0.2639
     20  O         14.2490   21.1040   38.1560 O.2    17  GLY17      -0.2714
     21  N         16.4300   20.6870   38.4780 N.am   18  ASN18      -0.1958
     22  CA        16.2070   19.2670   38.2430 C.3    18  ASN18       0.1819
     23  C         15.2580   18.6830   39.2780 C.2    18  ASN18       0.2621
     24  O         14.5260   17.7330   38.9730 O.2    18  ASN18      -0.2715
     25  CB        17.5320   18.4980   38.2560 C.3    18  ASN18       0.1195
     26  CG        17.3940   17.0880   37.6900 C.2    18  ASN18       0.2630
     27  OD1       16.6120   16.8520   36.7600 O.2    18  ASN18      -0.2716
     28  ND2       18.1220   16.1380   38.2790 N.am   18  ASN18      -0.0877
     29  N         15.2350   19.2520   40.4920 N.am   19  ASN19      -0.1972
     30  CA        14.3190   18.7820   41.5300 C.3    19  ASN19       0.1688
     31  C         12.8590   18.9180   41.1190 C.2    19  ASN19       0.2292
     32  O         12.0170   18.1720   41.6260 O.2    19  ASN19      -0.2864
     33  CB        14.5360   19.5400   42.8490 C.3    19  ASN19       0.1181
     34  CG        14.2350   21.0330   42.7360 C.2    19  ASN19       0.2629
     35  OD1       14.6290   21.6890   41.7780 O.2    19  ASN19      -0.2716
     36  ND2       13.5350   21.5730   43.7350 N.am   19  ASN19      -0.0877
     37  N         26.4850   23.3440   40.9120 N.3    46  ALA46      -0.1245
     38  CA        25.4170   22.3330   40.8210 C.3    46  ALA46       0.1562
     39  C         24.6090   22.4300   42.1100 C.2    46  ALA46       0.2260
     40  O         24.9980   21.8950   43.1570 O.2    46  ALA46      -0.2867
     41  CB        26.0050   20.9400   40.5970 C.3    46  ALA46       0.0290
     42  N         21.8850   21.3100   43.4220 N.3    48  SER48      -0.1202
     43  CA        21.4650   20.1120   44.1360 C.3    48  SER48       0.2020
     44  C         22.6270   19.1790   44.4620 C.2    48  SER48       0.2619
     45  O         22.7770   18.7580   45.6130 O.2    48  SER48      -0.2717
     46  CB        20.4070   19.3590   43.3210 C.3    48  SER48       0.2103
     47  OG        20.0180   18.1800   44.0200 O.3    48  SER48      -0.2182
     48  N         23.4480   18.8310   43.4670 N.am   49  SER49      -0.1937
     49  CA        24.4340   17.7760   43.6790 C.3    49  SER49       0.2055
     50  C         25.6700   18.2310   44.4610 C.2    49  SER49       0.2642
     51  O         26.4470   17.3750   44.9040 O.2    49  SER49      -0.2714
     52  CB        24.8500   17.1860   42.3370 C.3    49  SER49       0.2130
     53  OG        23.7780   16.4340   41.7940 O.3    49  SER49      -0.2179
     54  N         25.8770   19.5340   44.6470 N.am   50  GLU50      -0.1976
     55  CA        26.9310   20.0120   45.5360 C.3    50  GLU50       0.1602
     56  C         26.3900   20.4500   46.8820 C.2    50  GLU50       0.2287
     57  O         27.1420   20.9930   47.7000 O.2    50  GLU50      -0.2864
     58  CB        27.7070   21.1550   44.8840 C.3    50  GLU50       0.0415
     59  CG        28.2280   20.8050   43.5260 C.3    50  GLU50       0.1163
     60  CD        29.1930   19.6220   43.5000 C.2    50  GLU50       0.3649
     61  OE1       30.0900   19.5470   44.3670 O.co2  50  GLU50      -0.2457
     62  OE2       29.0570   18.7720   42.5750 O.co2  50  GLU50      -0.2457
     63  N         29.7820   10.1100   42.0380 N.3    65  LEU65      -0.1245
     64  CA        29.2980   10.6770   40.7830 C.3    65  LEU65       0.1561
     65  C         30.1790   11.8260   40.3110 C.2    65  LEU65       0.2260
     66  O         30.4690   11.9530   39.1120 O.2    65  LEU65      -0.2867
     67  CB        27.8630   11.1570   40.9660 C.3    65  LEU65       0.0270
     68  CG        27.1220   11.5560   39.6950 C.3    65  LEU65       0.0019
     69  CD1       27.1230   10.4070   38.6970 C.3    65  LEU65       0.0001
     70  CD2       25.6990   11.9630   40.0430 C.3    65  LEU65       0.0001
     71  N         17.0120   23.4660   34.7820 N.3   198  TRP198     -0.1241
     72  CA        18.3290   23.1500   34.2260 C.3   198  TRP198      0.1605
     73  C         18.2920   22.0430   33.1710 C.2   198  TRP198      0.2264
     74  O         18.8790   22.2380   32.0950 O.2   198  TRP198     -0.2867
     75  CB        19.3290   22.7900   35.3390 C.3   198  TRP198      0.0550
     76  CG        20.6920   22.4970   34.7460 C.ar  198  TRP198      0.0003
     77  CD1       21.3150   21.2860   34.6760 C.ar  198  TRP198      0.0946
     78  CD2       21.5450   23.4300   34.0690 C.ar  198  TRP198      0.0152
     79  NE1       22.5200   21.4100   34.0220 N.ar  198  TRP198     -0.2442
     80  CE2       22.6810   22.7160   33.6300 C.ar  198  TRP198      0.0810
     81  CE3       21.4600   24.8010   33.7910 C.ar  198  TRP198      0.0012
     82  CZ2       23.7250   23.3250   32.9500 C.ar  198  TRP198      0.0191
     83  CZ3       22.4890   25.4040   33.1050 C.ar  198  TRP198      0.0001
     84  CH2       23.6090   24.6720   32.6860 C.ar  198  TRP198      0.0015
@<TRIPOS>BOND
     1    74    73    2
     2    84    82   ar
     3    84    83   ar
     4    82    80   ar
     5    83    81   ar
     6    73    72    1
     7    80    79   ar
     8    80    78   ar
     9    81    78   ar
    10    79    77   ar
    11    78    76   ar
    12    72    71    1
    13    72    75    1
    14    77    76   ar
    15    76    75    1
    16     7     6    1
    17     7     8    1
    18     6     5    1
    19    27    26    2
    20     5     2    1
    21    12    11    2
    22    26    25    1
    23    26    28   am
    24     2     1    1
    25     2     3    1
    26    20    19    2
    27    22    25    1
    28    22    21    1
    29    22    23    1
    30    19    21   am
    31    19    18    1
    32     9     3   am
    33     9    10    1
    34    11    17   am
    35    11    10    1
    36    69    68    1
    37    18    17    1
    38     3     4    2
    39    24    23    2
    40    66    65    2
    41    23    29   am
    42    10    13    1
    43    68    70    1
    44    68    67    1
    45    65    64    1
    46    13    14    1
    47    29    30    1
    48    41    38    1
    49    64    67    1
    50    64    63    1
    51    38    37    1
    52    38    39    1
    53    31    30    1
    54    31    32    2
    55    30    33    1
    56    14    15   ar
    57    14    16   ar
    58    35    34    2
    59    53    52    1
    60    39    40    2
    61    52    49    1
    62    62    60   ar
    63    34    33    1
    64    34    36   am
    65    46    47    1
    66    46    43    1
    67    42    43    1
    68    48    49    1
    69    48    44   am
    70    60    59    1
    71    60    61   ar
    72    59    58    1
    73    49    50    1
    74    43    44    1
    75    50    54   am
    76    50    51    2
    77    44    45    2
    78    54    55    1
    79    58    55    1
    80    55    56    1
    81    56    57    2
