@<TRIPOS>MOLECULE
tmp/6ad9A01.pdb
 243 231 0 0 0
SMALL
GASTEIGER

@<TRIPOS>ATOM
      1  N         -7.8330   -0.1690    1.2420 N.3    58  ILE58      -0.1245
      2  CA        -8.4120    1.1650    1.4230 C.3    58  ILE58       0.1561
      3  C         -9.8910    1.1740    0.9990 C.2    58  ILE58       0.2260
      4  O        -10.7230    1.7850    1.6620 O.2    58  ILE58      -0.2867
      5  CB        -7.5960    2.2340    0.6700 C.3    58  ILE58       0.0252
      6  CG1       -6.2530    2.4070    1.3740 C.3    58  ILE58       0.0019
      7  CG2       -8.3470    3.5730    0.6140 C.3    58  ILE58       0.0019
      8  CD1       -5.2250    3.1800    0.5670 C.3    58  ILE58       0.0001
      9  N        -11.9600   -1.3490    1.2660 N.3    60  ILE60      -0.1231
     10  CA       -12.7290   -2.0360    2.3220 C.3    60  ILE60       0.1692
     11  C        -12.9180   -1.1530    3.5500 C.2    60  ILE60       0.2592
     12  O        -14.0320   -0.9950    4.0200 O.2    60  ILE60      -0.2718
     13  CB       -12.0860   -3.3730    2.6980 C.3    60  ILE60       0.0266
     14  CG1      -12.2660   -4.3630    1.5340 C.3    60  ILE60       0.0019
     15  CG2      -12.7010   -3.9770    3.9820 C.3    60  ILE60       0.0020
     16  CD1      -11.2110   -5.4420    1.5250 C.3    60  ILE60       0.0001
     17  N        -11.8340   -0.5440    4.0200 N.am   61  PHE61      -0.1962
     18  CA       -11.8740    0.3000    5.2180 C.3    61  PHE61       0.1771
     19  C        -12.7210    1.5460    4.9740 C.2    61  PHE61       0.2619
     20  O        -13.5260    1.8830    5.8040 O.2    61  PHE61      -0.2715
     21  CB       -10.4660    0.6580    5.7360 C.3    61  PHE61       0.0574
     22  CG        -9.8380   -0.4330    6.5760 C.ar   61  PHE61      -0.0200
     23  CD1       -9.6300   -1.7140    6.0500 C.ar   61  PHE61      -0.0042
     24  CD2       -9.4560   -0.1860    7.8990 C.ar   61  PHE61      -0.0042
     25  CE1       -9.0440   -2.7220    6.8180 C.ar   61  PHE61      -0.0003
     26  CE2       -8.8880   -1.1930    8.6870 C.ar   61  PHE61      -0.0003
     27  CZ        -8.6760   -2.4660    8.1490 C.ar   61  PHE61      -0.0000
     28  N        -12.5910    2.1830    3.8230 N.am   62  GLN62      -0.1977
     29  CA       -13.3640    3.4090    3.5570 C.3    62  GLN62       0.1601
     30  C        -14.8730    3.1280    3.4150 C.2    62  GLN62       0.2287
     31  O        -15.6800    3.9890    3.7060 O.2    62  GLN62      -0.2864
     32  CB       -12.8620    4.1030    2.2910 C.3    62  GLN62       0.0394
     33  CG       -11.5440    4.8470    2.4570 C.3    62  GLN62       0.0908
     34  CD       -11.7200    6.1870    3.1050 C.2    62  GLN62       0.2608
     35  OE1      -11.8970    6.2710    4.3030 O.2    62  GLN62      -0.2717
     36  NE2      -11.7170    7.2480    2.3080 N.am   62  GLN62      -0.0878
     37  N        -16.4410    1.2400    5.3830 N.3    64  CYS64      -0.1221
     38  CA       -17.0700    1.1880    6.7010 C.3    64  CYS64       0.1808
     39  C        -17.6830    2.5110    7.1200 C.2    64  CYS64       0.2601
     40  O        -18.4680    2.5370    8.0380 O.2    64  CYS64      -0.2717
     41  CB       -16.0890    0.7410    7.7400 C.3    64  CYS64       0.0970
     42  SG       -15.5460   -0.9690    7.5620 S.3    64  CYS64      -0.0800
     43  N        -17.3320    3.6040    6.4570 N.am   65  GLN65      -0.1979
     44  CA       -17.7940    4.9330    6.8310 C.3    65  GLN65       0.1601
     45  C        -19.3280    5.1120    6.8620 C.2    65  GLN65       0.2287
     46  O        -19.8520    5.7340    7.7830 O.2    65  GLN65      -0.2864
     47  CB       -17.2040    5.9760    5.8760 C.3    65  GLN65       0.0394
     48  CG       -15.7850    6.4000    6.1790 C.3    65  GLN65       0.0908
     49  CD       -15.3870    7.6750    5.4440 C.2    65  GLN65       0.2608
     50  OE1      -16.1210    8.6580    5.4350 O.2    65  GLN65      -0.2717
     51  NE2      -14.2050    7.6600    4.8290 N.am   65  GLN65      -0.0878
     52  N        -20.5650    3.5110    9.9880 N.3    68  SER68      -0.1217
     53  CA       -20.1750    4.3110   11.1580 C.3    68  SER68       0.1889
     54  C        -21.0250    5.5790   11.2610 C.2    68  SER68       0.2288
     55  O        -21.4010    5.9640   12.3870 O.2    68  SER68      -0.2866
     56  CB       -18.6760    4.6410   11.1890 C.3    68  SER68       0.2089
     57  OG       -17.8970    3.4780   11.5080 O.3    68  SER68      -0.2183
     58  N        -16.8850    5.8210   19.0460 N.3   102  HIS102     -0.1241
     59  CA       -16.0630    4.7150   18.5210 C.3   102  HIS102      0.1621
     60  C        -15.9590    3.5970   19.5190 C.2   102  HIS102      0.2264
     61  O        -15.9640    2.4660   19.1250 O.2   102  HIS102     -0.2867
     62  CB       -14.6800    5.1790   18.0810 C.3   102  HIS102      0.0745
     63  CG       -14.6870    5.8410   16.7530 C.ar  102  HIS102      0.0817
     64  ND1      -14.2520    7.1390   16.5610 N.ar  102  HIS102     -0.2268
     65  CD2      -15.1030    5.3940   15.5420 C.ar  102  HIS102      0.1154
     66  CE1      -14.3810    7.4500   15.2810 C.ar  102  HIS102      0.1986
     67  NE2      -14.9050    6.4130   14.6440 N.ar  102  HIS102     -0.2212
     68  N        -19.1000    1.7610   18.9710 N.3   105  ILE105     -0.1231
     69  CA       -19.0630    1.0800   17.7120 C.3   105  ILE105      0.1692
     70  C        -18.2550   -0.2080   17.8140 C.2   105  ILE105      0.2592
     71  O        -18.6570   -1.2440   17.2670 O.2   105  ILE105     -0.2718
     72  CB       -18.5170    2.0190   16.6350 C.3   105  ILE105      0.0266
     73  CG1      -19.6020    3.0180   16.2350 C.3   105  ILE105      0.0019
     74  CG2      -18.1140    1.2780   15.3720 C.3   105  ILE105      0.0020
     75  CD1      -19.1020    4.2250   15.4580 C.3   105  ILE105      0.0001
     76  N        -17.0910   -0.1580   18.4810 N.am  106  TYR106     -0.1976
     77  CA       -16.3320   -1.3970   18.6750 C.3   106  TYR106      0.1639
     78  C        -17.0530   -2.3960   19.6130 C.2   106  TYR106      0.2290
     79  O        -16.9750   -3.6150   19.4300 O.2   106  TYR106     -0.2864
     80  CB       -14.8820   -1.0750   19.0930 C.3   106  TYR106      0.0560
     81  CG       -14.0120   -0.7450   17.8860 C.ar  106  TYR106     -0.0198
     82  CD1      -13.4570   -1.7520   17.1280 C.ar  106  TYR106     -0.0009
     83  CD2      -13.7690    0.5750   17.5030 C.ar  106  TYR106     -0.0009
     84  CE1      -12.6840   -1.4600   16.0200 C.ar  106  TYR106      0.0417
     85  CE2      -12.9790    0.8850   16.3900 C.ar  106  TYR106      0.0417
     86  CZ       -12.4500   -0.1370   15.6450 C.ar  106  TYR106      0.1957
     87  OH       -11.7040    0.1500   14.5380 O.3   106  TYR106     -0.2866
     88  N        -19.5140   -3.8680   17.4030 N.3   109  LEU109     -0.1245
     89  CA       -18.7920   -4.6950   16.4480 C.3   109  LEU109      0.1561
     90  C        -18.5810   -6.1230   16.9820 C.2   109  LEU109      0.2260
     91  O        -18.6720   -7.0900   16.2240 O.2   109  LEU109     -0.2867
     92  CB       -17.4320   -4.1250   16.1410 C.3   109  LEU109      0.0270
     93  CG       -16.7900   -4.8420   14.9600 C.3   109  LEU109      0.0019
     94  CD1      -17.6140   -4.6000   13.6940 C.3   109  LEU109      0.0001
     95  CD2      -15.3530   -4.3700   14.8200 C.3   109  LEU109      0.0001
     96  N        -16.8260  -11.4240   10.5230 N.3   118  VAL118     -0.1231
     97  CA       -17.6250  -10.2750   10.9760 C.3   118  VAL118      0.1692
     98  C        -18.8140  -10.0400   10.0380 C.2   118  VAL118      0.2592
     99  O        -18.6560  -10.1000    8.8490 O.2   118  VAL118     -0.2718
    100  CB       -16.7380   -8.9970   11.1100 C.3   118  VAL118      0.0266
    101  CG1      -16.1540   -8.5690    9.7620 C.3   118  VAL118      0.0020
    102  CG2      -17.5360   -7.8370   11.7410 C.3   118  VAL118      0.0020
    103  N        -20.0020   -9.7850   10.5670 N.am  119  LEU119     -0.1966
    104  CA       -21.1440   -9.4010    9.7250 C.3   119  LEU119      0.1728
    105  C        -21.0410   -7.9690    9.3050 C.2   119  LEU119      0.2616
    106  O        -20.6860   -7.1060   10.1120 O.2   119  LEU119     -0.2715
    107  CB       -22.4490   -9.5090   10.4620 C.3   119  LEU119      0.0311
    108  CG       -22.8800  -10.8740   10.9350 C.3   119  LEU119      0.0022
    109  CD1      -24.1200  -10.7210   11.7850 C.3   119  LEU119      0.0001
    110  CD2      -23.1430  -11.7540    9.7270 C.3   119  LEU119      0.0001
    111  N        -21.4250   -7.7080    8.0730 N.am  120  ILE120     -0.1977
    112  CA       -21.4170   -6.3850    7.5300 C.3   120  ILE120      0.1596
    113  C        -22.7750   -6.1040    6.8890 C.2   120  ILE120      0.2287
    114  O        -23.5800   -7.0300    6.6420 O.2   120  ILE120     -0.2864
    115  CB       -20.2780   -6.2150    6.5020 C.3   120  ILE120      0.0276
    116  CG1      -20.3890   -7.2380    5.3630 C.3   120  ILE120      0.0022
    117  CG2      -18.9190   -6.3180    7.2000 C.3   120  ILE120      0.0022
    118  CD1      -19.4680   -6.9340    4.1940 C.3   120  ILE120      0.0001
    119  N        -17.7240  -11.0300    6.2540 N.3   127  MET127     -0.1245
    120  CA       -16.3340  -10.9830    5.8440 C.3   127  MET127      0.1570
    121  C        -15.5420  -11.8890    6.7780 C.2   127  MET127      0.2261
    122  O        -15.6430  -11.7560    8.0220 O.2   127  MET127     -0.2867
    123  CB       -15.8570   -9.5330    6.0010 C.3   127  MET127      0.0387
    124  CG       -14.6710   -9.1060    5.1690 C.3   127  MET127      0.0595
    125  SD       -14.8780   -7.3470    4.7940 S.3   127  MET127     -0.1393
    126  CE       -15.2200   -7.3270    3.0430 C.3   127  MET127      0.0692
    127  N         -9.5040  -10.7730    5.9800 N.3   132  LEU132     -0.1245
    128  CA        -9.0890   -9.4870    6.5440 C.3   132  LEU132      0.1561
    129  C         -7.6190   -9.5070    6.9200 C.2   132  LEU132      0.2260
    130  O         -6.9170   -8.4930    6.8310 O.2   132  LEU132     -0.2867
    131  CB        -9.9930   -9.1110    7.7260 C.3   132  LEU132      0.0270
    132  CG       -11.3990   -8.6690    7.2790 C.3   132  LEU132      0.0019
    133  CD1      -12.3860   -8.7160    8.4390 C.3   132  LEU132      0.0001
    134  CD2      -11.2990   -7.2630    6.7240 C.3   132  LEU132      0.0001
    135  N         -3.0060   -2.8710    7.3140 N.3   139  PHE139     -0.1241
    136  CA        -4.4170   -3.2160    7.4080 C.3   139  PHE139      0.1605
    137  C         -4.6080   -4.6450    7.9130 C.2   139  PHE139      0.2264
    138  O         -5.3330   -4.8810    8.8900 O.2   139  PHE139     -0.2867
    139  CB        -5.1020   -3.0200    6.0650 C.3   139  PHE139      0.0534
    140  CG        -5.1230   -1.5770    5.5990 C.ar  139  PHE139     -0.0203
    141  CD1       -6.1140   -0.7030    6.0500 C.ar  139  PHE139     -0.0042
    142  CD2       -4.1700   -1.0920    4.7040 C.ar  139  PHE139     -0.0042
    143  CE1       -6.1460    0.6160    5.6260 C.ar  139  PHE139     -0.0003
    144  CE2       -4.1950    0.2360    4.2720 C.ar  139  PHE139     -0.0003
    145  CZ        -5.1830    1.0860    4.7240 C.ar  139  PHE139     -0.0000
    146  N         -4.5060   -5.1880   11.5810 N.3   142  PHE142     -0.1227
    147  CA        -5.3330   -4.3330   12.3900 C.3   142  PHE142      0.1736
    148  C         -6.4870   -5.0600   13.0170 C.2   142  PHE142      0.2595
    149  O         -6.7570   -4.8720   14.1940 O.2   142  PHE142     -0.2718
    150  CB        -5.8620   -3.1730   11.5750 C.3   142  PHE142      0.0547
    151  CG        -6.6970   -2.2390   12.3620 C.ar  142  PHE142     -0.0202
    152  CD1       -6.1060   -1.2610   13.1480 C.ar  142  PHE142     -0.0042
    153  CD2       -8.0800   -2.3430   12.3430 C.ar  142  PHE142     -0.0042
    154  CE1       -6.8810   -0.3780   13.8890 C.ar  142  PHE142     -0.0003
    155  CE2       -8.8660   -1.4640   13.0940 C.ar  142  PHE142     -0.0003
    156  CZ        -8.2570   -0.4720   13.8570 C.ar  142  PHE142     -0.0000
    157  N         -7.1660   -5.8930   12.2470 N.am  143  MET143     -0.1979
    158  CA        -8.4240   -6.4270   12.7320 C.3   143  MET143      0.1605
    159  C         -8.2080   -7.5810   13.6770 C.2   143  MET143      0.2287
    160  O         -9.0460   -7.8220   14.5250 O.2   143  MET143     -0.2864
    161  CB        -9.3700   -6.7680   11.5800 C.3   143  MET143      0.0413
    162  CG        -9.9750   -5.5400   10.8910 C.3   143  MET143      0.0598
    163  SD       -11.0450   -4.5260   11.9210 S.3   143  MET143     -0.1393
    164  CE       -12.6080   -5.4140   11.8530 C.3   143  MET143      0.0692
    165  N         -7.2210    2.5050   16.6020 N.3   228  HIS228     -0.1241
    166  CA        -7.9860    2.8410   15.4200 C.3   228  HIS228      0.1621
    167  C         -7.5590    4.2220   14.9290 C.2   228  HIS228      0.2264
    168  O         -7.2500    4.4060   13.7480 O.2   228  HIS228     -0.2867
    169  CB        -9.4640    2.7460   15.7810 C.3   228  HIS228      0.0745
    170  CG       -10.3860    3.3900   14.8200 C.ar  228  HIS228      0.0817
    171  ND1      -11.2760    2.6690   14.0660 N.ar  228  HIS228     -0.2268
    172  CD2      -10.6110    4.6950   14.5390 C.ar  228  HIS228      0.1154
    173  CE1      -11.9960    3.4970   13.3300 C.ar  228  HIS228      0.1986
    174  NE2      -11.6150    4.7310   13.6010 N.ar  228  HIS228     -0.2212
    175  N         -4.1730    4.0820   13.2470 N.3   231  LEU231     -0.1231
    176  CA        -4.1820    3.4970   11.9040 C.3   231  LEU231      0.1693
    177  C         -4.4770    4.6220   10.8920 C.2   231  LEU231      0.2591
    178  O         -3.7760    4.7540    9.9250 O.2   231  LEU231     -0.2718
    179  CB        -5.1660    2.3420   11.7840 C.3   231  LEU231      0.0284
    180  CG        -5.3120    1.7720   10.3650 C.3   231  LEU231      0.0019
    181  CD1       -3.9610    1.3280    9.8110 C.3   231  LEU231      0.0001
    182  CD2       -6.2940    0.5880   10.2890 C.3   231  LEU231      0.0001
    183  N         -5.4770    5.4560   11.1650 N.am  232  LEU232     -0.1980
    184  CA        -5.8300    6.5450   10.2650 C.3   232  LEU232      0.1596
    185  C         -4.7310    7.6350   10.1520 C.2   232  LEU232      0.2287
    186  O         -4.4890    8.1260    9.0600 O.2   232  LEU232     -0.2864
    187  CB        -7.1890    7.1210   10.6660 C.3   232  LEU232      0.0297
    188  CG        -7.8550    8.1410    9.7360 C.3   232  LEU232      0.0022
    189  CD1       -8.1620    7.5670    8.3550 C.3   232  LEU232      0.0001
    190  CD2       -9.1020    8.7120   10.4010 C.3   232  LEU232      0.0001
    191  N         -2.0270    6.1580    7.8530 N.3   235  ILE235     -0.1231
    192  CA        -2.4940    6.1190    6.4790 C.3   235  ILE235      0.1692
    193  C         -2.6210    7.5160    5.8760 C.2   235  ILE235      0.2591
    194  O         -2.2150    7.7110    4.7260 O.2   235  ILE235     -0.2718
    195  CB        -3.8050    5.3110    6.3400 C.3   235  ILE235      0.0266
    196  CG1       -3.5920    3.8650    6.8360 C.3   235  ILE235      0.0019
    197  CG2       -4.2900    5.2780    4.8950 C.3   235  ILE235      0.0020
    198  CD1       -2.4550    3.0860    6.2010 C.3   235  ILE235      0.0001
    199  N         -3.1450    8.4860    6.6270 N.am  236  LYS236     -0.1980
    200  CA        -3.1370    9.8870    6.1670 C.3   236  LYS236      0.1596
    201  C         -1.7160   10.3870    5.8150 C.2   236  LYS236      0.2287
    202  O         -1.5930   11.2890    5.0090 O.2   236  LYS236     -0.2864
    203  CB        -3.7540   10.8550    7.2110 C.3   236  LYS236      0.0298
    204  CG        -5.2550   10.7200    7.4960 C.3   236  LYS236      0.0038
    205  CD        -6.1900   11.1660    6.3710 C.3   236  LYS236      0.0206
    206  CE        -7.6640   11.0730    6.8170 C.3   236  LYS236      0.1093
    207  NZ        -8.6900   10.7630    5.7610 N.3   236  LYS236     -0.1314
    208  N         -7.9370   11.6750    0.7750 N.3   242  MET242     -0.1245
    209  CA        -8.8240   10.5310    1.0050 C.3   242  MET242      0.1570
    210  C        -10.1530   11.0220    1.5640 C.2   242  MET242      0.2261
    211  O        -10.1740   11.6400    2.6150 O.2   242  MET242     -0.2867
    212  CB        -8.1510    9.5830    1.9810 C.3   242  MET242      0.0387
    213  CG        -8.5770    8.1270    1.8750 C.3   242  MET242      0.0595
    214  SD        -7.5490    7.0380    2.9160 S.3   242  MET242     -0.1393
    215  CE        -7.4240    7.9490    4.4600 C.3   242  MET242      0.0692
    216  N        -13.6370   11.8240    3.3580 N.3   244  LEU244     -0.1245
    217  CA       -14.0920   11.5480    4.7220 C.3   244  LEU244      0.1561
    218  C        -15.4590   12.2120    4.9850 C.2   244  LEU244      0.2260
    219  O        -15.6300   13.4120    4.8060 O.2   244  LEU244     -0.2867
    220  CB       -13.0260   11.9880    5.7140 C.3   244  LEU244      0.0270
    221  CG       -13.2180   11.6370    7.1870 C.3   244  LEU244      0.0019
    222  CD1      -13.2820   10.1380    7.3810 C.3   244  LEU244      0.0001
    223  CD2      -12.1020   12.2130    8.0500 C.3   244  LEU244      0.0001
    224  N        -17.9000   12.3860   10.2470 N.3   248  LEU248     -0.1245
    225  CA       -16.6920   11.7940   10.8260 C.3   248  LEU248      0.1561
    226  C        -15.5330   12.7830   10.9270 C.2   248  LEU248      0.2260
    227  O        -14.6610   12.6370   11.7750 O.2   248  LEU248     -0.2867
    228  CB       -16.2710   10.5390   10.0630 C.3   248  LEU248      0.0270
    229  CG       -17.3210    9.4350   10.1060 C.3   248  LEU248      0.0019
    230  CD1      -17.0180    8.3790    9.0700 C.3   248  LEU248      0.0001
    231  CD2      -17.3830    8.8130   11.4890 C.3   248  LEU248      0.0001
    232  N        -13.2390   13.0420   14.2260 N.3   252  TYR252     -0.1241
    233  CA       -11.7960   12.9120   14.1680 C.3   252  TYR252      0.1605
    234  C        -11.0540   14.2190   14.3830 C.2   252  TYR252      0.2264
    235  O         -9.8530   14.2040   14.6740 O.2   252  TYR252     -0.2867
    236  CB       -11.3690   12.3360   12.8290 C.3   252  TYR252      0.0534
    237  CG       -11.7160   10.8770   12.6750 C.ar  252  TYR252     -0.0201
    238  CD1      -11.2760    9.9500   13.5970 C.ar  252  TYR252     -0.0009
    239  CD2      -12.4700   10.4250   11.6050 C.ar  252  TYR252     -0.0009
    240  CE1      -11.5660    8.6060   13.4640 C.ar  252  TYR252      0.0417
    241  CE2      -12.7590    9.0860   11.4460 C.ar  252  TYR252      0.0417
    242  CZ       -12.2990    8.1780   12.3820 C.ar  252  TYR252      0.1957
    243  OH       -12.5790    6.8610   12.2780 O.3   252  TYR252     -0.2866
@<TRIPOS>BOND
     1     8     6    1
     2     7     5    1
     3     5     6    1
     4     5     2    1
     5   208   209    1
     6     3     2    1
     7     3     4    2
     8   209   210    1
     9   209   212    1
    10     1     2    1
    11     9    10    1
    12    16    14    1
    13    14    13    1
    14   210   211    2
    15   213   212    1
    16   213   214    1
    17    32    33    1
    18    32    29    1
    19    36    34   am
    20    10    13    1
    21    10    11    1
    22    33    34    1
    23    13    15    1
    24   214   215    1
    25   126   125    1
    26    34    35    2
    27   216   217    1
    28    30    29    1
    29    30    31    2
    30    11    17   am
    31    11    12    2
    32    29    28    1
    33    28    19   am
    34    17    18    1
    35   118   116    1
    36   144   142   ar
    37   144   145   ar
    38   142   140   ar
    39   217   218    1
    40   217   220    1
    41   145   143   ar
    42   194   193    2
    43   125   124    1
    44   219   218    2
    45    51    49   am
    46   197   195    1
    47    19    18    1
    48    19    20    2
    49   202   201    2
    50   124   123    1
    51    18    21    1
    52   116   115    1
    53    37    38    1
    54    50    49    2
    55    49    48    1
    56   140   141   ar
    57   140   139    1
    58   143   141   ar
    59   220   221    1
    60    21    22    1
    61   207   206    1
    62   201   200    1
    63   120   123    1
    64   120   119    1
    65   120   121    1
    66   193   192    1
    67   193   199   am
    68    47    48    1
    69    47    44    1
    70   127   128    1
    71    23    22   ar
    72    23    25   ar
    73   139   136    1
    74   200   199    1
    75   200   203    1
    76   198   196    1
    77   195   192    1
    78   195   196    1
    79   205   206    1
    80   205   204    1
    81    43    44    1
    82    43    39   am
    83   192   191    1
    84   115   117    1
    85   115   112    1
    86   128   129    1
    87   128   131    1
    88    22    24   ar
    89   114   113    2
    90    38    39    1
    91    38    41    1
    92   134   132    1
    93   121   122    2
    94    25    27   ar
    95   130   129    2
    96    44    45    1
    97    45    46    2
    98   113   112    1
    99    39    40    2
   100   221   222    1
   101   221   223    1
   102   203   204    1
   103   132   131    1
   104   132   133    1
   105   135   136    1
   106   136   137    1
   107   112   111    1
   108    42    41    1
   109    24    26   ar
   110   137   138    2
   111   111   105   am
   112    27    26   ar
   113   189   188    1
   114    99    98    2
   115   186   185    2
   116   230   229    1
   117   105   104    1
   118   105   106    2
   119   104   107    1
   120   104   103    1
   121   110   108    1
   122   188   190    1
   123   188   187    1
   124   101   100    1
   125   181   180    1
   126   178   177    2
   127    52    53    1
   128    98   103   am
   129    98    97    1
   130   228   229    1
   131   228   225    1
   132   229   231    1
   133   185   184    1
   134   224   225    1
   135   184   187    1
   136   184   183    1
   137   182   180    1
   138   180   179    1
   139   107   108    1
   140    96    97    1
   141   225   226    1
   142   162   161    1
   143   162   163    1
   144   177   183   am
   145   177   176    1
   146   226   227    2
   147   108   109    1
   148    97   100    1
   149   100   102    1
   150    53    56    1
   151    53    54    1
   152    56    57    1
   153    54    55    2
   154   241   239   ar
   155   241   242   ar
   156   150   151    1
   157   150   147    1
   158   161   158    1
   159   146   147    1
   160   239   237   ar
   161   179   176    1
   162   164   163    1
   163   176   175    1
   164   157   158    1
   165   157   148   am
   166   243   242    1
   167   153   151   ar
   168   153   155   ar
   169   151   152   ar
   170   242   240   ar
   171   147   148    1
   172   237   236    1
   173   237   238   ar
   174   158   159    1
   175   236   233    1
   176   148   149    2
   177   155   156   ar
   178   152   154   ar
   179   173   174   ar
   180   173   171   ar
   181   240   238   ar
   182   174   172   ar
   183   159   160    2
   184    94    93    1
   185   168   167    2
   186   156   154   ar
   187   171   170   ar
   188   233   232    1
   189   233   234    1
   190   234   235    2
   191    87    86    1
   192   172   170   ar
   193    67    66   ar
   194    67    65   ar
   195    95    93    1
   196   170   169    1
   197   167   166    1
   198    93    92    1
   199    66    64   ar
   200    74    72    1
   201   166   169    1
   202   166   165    1
   203    75    73    1
   204    65    63   ar
   205    86    84   ar
   206    86    85   ar
   207    84    82   ar
   208    92    89    1
   209    91    90    2
   210    73    72    1
   211    85    83   ar
   212    89    90    1
   213    89    88    1
   214    64    63   ar
   215    72    69    1
   216    63    62    1
   217    82    81   ar
   218    71    70    2
   219    83    81   ar
   220    69    70    1
   221    69    68    1
   222    70    76   am
   223    81    80    1
   224    62    59    1
   225    76    77    1
   226    59    58    1
   227    59    60    1
   228    77    80    1
   229    77    78    1
   230    61    60    2
   231    79    78    2
