@<TRIPOS>MOLECULE
tmp/6addA01.pdb
 140 132 0 0 0
SMALL
GASTEIGER

@<TRIPOS>ATOM
      1  N        -27.9200    4.5570   -2.2620 N.3    26  GLY26      -0.1210
      2  CA       -29.2020    3.8920   -2.1580 C.3    26  GLY26       0.1956
      3  C        -29.9080    4.1770   -0.8520 C.2    26  GLY26       0.2612
      4  O        -30.3660    5.2960   -0.6030 O.2    26  GLY26      -0.2717
      5  N        -30.0190    3.1410   -0.0170 N.am   27  LYS27      -0.1965
      6  CA       -30.6290    3.3010    1.2990 C.3    27  LYS27       0.1728
      7  C        -29.7460    4.1280    2.2220 C.2    27  LYS27       0.2616
      8  O        -30.2490    4.9110    3.0360 O.2    27  LYS27      -0.2715
      9  CB       -30.9050    1.9340    1.9140 C.3    27  LYS27       0.0311
     10  CG       -32.0140    1.9140    2.9450 C.3    27  LYS27       0.0038
     11  CD       -32.4910    0.4840    3.2020 C.3    27  LYS27       0.0206
     12  CE       -33.9690    0.3170    2.8580 C.3    27  LYS27       0.1093
     13  NZ       -34.4240   -1.1010    2.9170 N.3    27  LYS27      -0.1314
     14  N        -28.4320    3.9280    2.1500 N.am   28  ILE28      -0.1963
     15  CA       -27.5160    4.5820    3.0860 C.3    28  ILE28       0.1727
     16  C        -27.1700    6.0000    2.6210 C.2    28  ILE28       0.2616
     17  O        -27.4780    6.9870    3.2960 O.2    28  ILE28      -0.2715
     18  CB       -26.2520    3.7260    3.2890 C.3    28  ILE28       0.0290
     19  CG1      -26.6140    2.3600    3.9000 C.3    28  ILE28       0.0022
     20  CG2      -25.2530    4.4690    4.1730 C.3    28  ILE28       0.0023
     21  CD1      -25.4310    1.4000    4.0490 C.3    28  ILE28       0.0001
     22  N        -26.5340    6.1310    1.4620 N.am   29  LEU29      -0.1963
     23  CA       -26.1020    7.4330    0.9700 C.3    29  LEU29       0.1728
     24  C        -26.9620    7.8800   -0.2060 C.2    29  LEU29       0.2616
     25  O        -27.3700    7.0750   -1.0480 O.2    29  LEU29      -0.2715
     26  CB       -24.6270    7.4230    0.5450 C.3    29  LEU29       0.0311
     27  CG       -23.5870    7.3350    1.6780 C.3    29  LEU29       0.0022
     28  CD1      -22.1740    7.5160    1.1410 C.3    29  LEU29       0.0001
     29  CD2      -23.8710    8.3310    2.8000 C.3    29  LEU29       0.0001
     30  N        -27.2600    9.1680   -0.2340 N.am   30  LEU30      -0.1977
     31  CA       -27.8740    9.7680   -1.4020 C.3    30  LEU30       0.1596
     32  C        -26.9160    9.6770   -2.5910 C.2    30  LEU30       0.2287
     33  O        -25.7010    9.8020   -2.4410 O.2    30  LEU30      -0.2864
     34  CB       -28.2300   11.2140   -1.0790 C.3    30  LEU30       0.0297
     35  CG       -28.9750   12.0300   -2.1170 C.3    30  LEU30       0.0022
     36  CD1      -30.3380   11.4210   -2.3990 C.3    30  LEU30       0.0001
     37  CD2      -29.1140   13.4010   -1.5470 C.3    30  LEU30       0.0001
     38  N        -24.7500   10.3780   -5.9360 N.3    32  LYS32      -0.1245
     39  CA       -24.0390   11.5470   -6.4410 C.3    32  LYS32       0.1561
     40  C        -23.3940   11.1810   -7.7680 C.2    32  LYS32       0.2260
     41  O        -22.5720   10.2630   -7.8280 O.2    32  LYS32      -0.2867
     42  CB       -22.9940   12.0400   -5.4320 C.3    32  LYS32       0.0271
     43  CG       -23.5860   12.6200   -4.1300 C.3    32  LYS32       0.0035
     44  CD       -24.3830   13.8940   -4.3770 C.3    32  LYS32       0.0206
     45  CE       -24.6480   14.6770   -3.0790 C.3    32  LYS32       0.1093
     46  NZ       -25.3110   13.9070   -2.0230 N.3    32  LYS32      -0.1314
     47  N        -24.6800   21.0990    7.2760 N.3    71  GLU71      -0.1231
     48  CA       -24.9920   19.6850    7.2610 C.3    71  GLU71       0.1699
     49  C        -23.7350   18.8990    6.9380 C.2    71  GLU71       0.2592
     50  O        -22.9690   19.2690    6.0400 O.2    71  GLU71      -0.2718
     51  CB       -26.0880   19.3880    6.2430 C.3    71  GLU71       0.0402
     52  CG       -26.1070   17.9600    5.8150 C.3    71  GLU71       0.1161
     53  CD       -27.1990   17.6650    4.8240 C.2    71  GLU71       0.3649
     54  OE1      -27.0360   17.9640    3.6280 O.co2  71  GLU71      -0.2457
     55  OE2      -28.2250   17.1220    5.2530 O.co2  71  GLU71      -0.2457
     56  N        -23.5140   17.8380    7.6840 N.am   72  ILE72      -0.1966
     57  CA       -22.5260   16.8330    7.3230 C.3    72  ILE72       0.1727
     58  C        -23.2010   15.8360    6.3850 C.2    72  ILE72       0.2616
     59  O        -24.2880   15.3300    6.6840 O.2    72  ILE72      -0.2715
     60  CB       -21.9700   16.1410    8.5780 C.3    72  ILE72       0.0290
     61  CG1      -21.0130   17.0870    9.2990 C.3    72  ILE72       0.0022
     62  CG2      -21.2520   14.8480    8.2090 C.3    72  ILE72       0.0023
     63  CD1      -20.4210   16.4890   10.5300 C.3    72  ILE72       0.0001
     64  N        -22.6010   15.6040    5.2190 N.am   73  ARG73      -0.1963
     65  CA       -23.2040   14.7290    4.2240 C.3    73  ARG73       0.1729
     66  C        -22.1040   13.9680    3.4990 C.2    73  ARG73       0.2616
     67  O        -20.9450   14.3970    3.4500 O.2    73  ARG73      -0.2715
     68  CB       -24.0610   15.5190    3.2100 C.3    73  ARG73       0.0348
     69  CG       -23.2640   16.5980    2.4450 C.3    73  ARG73       0.0492
     70  CD       -23.9550   17.0830    1.1920 C.3    73  ARG73       0.2205
     71  NE       -25.2480   17.7160    1.4710 N.pl3  73  ARG73      -0.0865
     72  CZ       -26.0420   18.2610    0.5420 C.cat  73  ARG73       0.5346
     73  NH1      -25.6780   18.2700   -0.7540 N.pl3  73  ARG73       0.1354
     74  NH2      -27.2140   18.7850    0.9120 N.pl3  73  ARG73       0.1354
     75  N        -22.4860   12.8270    2.9260 N.am   74  THR74      -0.1951
     76  CA       -21.6160   12.0920    2.0200 C.3    74  THR74       0.1897
     77  C        -20.3160   11.6810    2.7060 C.2    74  THR74       0.2313
     78  O        -19.2280   11.8310    2.1480 O.2    74  THR74      -0.2863
     79  CB       -21.3400   12.9130    0.7500 C.3    74  THR74       0.1794
     80  OG1      -22.5170   13.6660    0.4050 O.3    74  THR74      -0.2208
     81  CG2      -21.0140   11.9840   -0.4050 C.3    74  THR74       0.0378
     82  N        -27.2750   16.2120   10.5170 N.3   108  VAL108     -0.1231
     83  CA       -26.9350   15.0060    9.7770 C.3   108  VAL108      0.1692
     84  C        -28.1550   14.0880    9.7770 C.2   108  VAL108      0.2592
     85  O        -28.8980   14.0050   10.7610 O.2   108  VAL108     -0.2718
     86  CB       -25.6790   14.3140   10.3560 C.3   108  VAL108      0.0266
     87  CG1      -25.8990   13.9060   11.8170 C.3   108  VAL108      0.0020
     88  CG2      -25.2850   13.1110    9.4970 C.3   108  VAL108      0.0020
     89  N        -28.4000   13.4560    8.6400 N.am  109  LEU109     -0.1966
     90  CA       -29.4350   12.4440    8.5060 C.3   109  LEU109      0.1728
     91  C        -28.7320   11.1130    8.2950 C.2   109  LEU109      0.2616
     92  O        -27.9840   10.9590    7.3240 O.2   109  LEU109     -0.2715
     93  CB       -30.3630   12.7760    7.3390 C.3   109  LEU109      0.0311
     94  CG       -31.6130   11.9350    7.0940 C.3   109  LEU109      0.0022
     95  CD1      -32.5980   12.0530    8.2690 C.3   109  LEU109      0.0001
     96  CD2      -32.2710   12.3950    5.7990 C.3   109  LEU109      0.0001
     97  N        -28.9520   10.1570    9.1990 N.am  110  THR110     -0.1951
     98  CA       -28.0740    8.9960    9.1670 C.3   110  THR110      0.1897
     99  C        -28.7060    7.8240    9.8930 C.2   110  THR110      0.2313
    100  O        -29.5930    7.9870   10.7330 O.2   110  THR110     -0.2863
    101  CB       -26.7120    9.3260    9.7870 C.3   110  THR110      0.1794
    102  OG1      -25.8450    8.1820    9.7070 O.3   110  THR110     -0.2208
    103  CG2      -26.8770    9.7670   11.2500 C.3   110  THR110      0.0378
    104  N        -30.5550   16.7210   -0.9840 N.3   144  GLY144     -0.1225
    105  CA       -30.2420   16.6310    0.4310 C.3   144  GLY144      0.1811
    106  C        -30.9710   17.6800    1.2440 C.2   144  GLY144      0.2280
    107  O        -31.3780   17.4260    2.3830 O.2   144  GLY144     -0.2866
    108  N        -34.3840   16.5030    1.8100 N.3   147  GLU147     -0.1245
    109  CA       -34.3970   15.5200    2.8800 C.3   147  GLU147      0.1567
    110  C        -34.3110   16.2110    4.2360 C.2   147  GLU147      0.2260
    111  O        -35.0600   15.8700    5.1580 O.2   147  GLU147     -0.2867
    112  CB       -33.2530   14.5270    2.6890 C.3   147  GLU147      0.0388
    113  CG       -33.4420   13.6210    1.4840 C.3   147  GLU147      0.1160
    114  CD       -32.4290   12.4920    1.4230 C.2   147  GLU147      0.3649
    115  OE1      -31.5100   12.4620    2.2700 O.co2 147  GLU147     -0.2457
    116  OE2      -32.5470   11.6420    0.5100 O.co2 147  GLU147     -0.2457
    117  N        -37.7390    7.5550    0.7760 N.3   157  ASN157     -0.1225
    118  CA       -36.3340    7.2250    0.5870 C.3   157  ASN157      0.1785
    119  C        -35.5060    7.4050    1.8540 C.2   157  ASN157      0.2597
    120  O        -34.3470    6.9820    1.8720 O.2   157  ASN157     -0.2718
    121  CB       -35.7110    8.0920   -0.5220 C.3   157  ASN157      0.1169
    122  CG       -36.6320    8.2810   -1.7100 C.2   157  ASN157      0.2627
    123  OD1      -37.3140    7.3490   -2.1360 O.2   157  ASN157     -0.2716
    124  ND2      -36.6560    9.4990   -2.2550 N.am  157  ASN157     -0.0877
    125  N        -36.0580    8.0230    2.9030 N.am  158  ILE158     -0.1980
    126  CA       -35.2980    8.3260    4.1090 C.3   158  ILE158      0.1595
    127  C        -35.8600    7.6270    5.3370 C.2   158  ILE158      0.2287
    128  O        -35.3930    7.8800    6.4520 O.2   158  ILE158     -0.2864
    129  CB       -35.1970    9.8450    4.3580 C.3   158  ILE158      0.0276
    130  CG1      -36.5730   10.4500    4.6520 C.3   158  ILE158      0.0022
    131  CG2      -34.5210   10.5290    3.1780 C.3   158  ILE158      0.0022
    132  CD1      -36.5320   11.9400    5.0220 C.3   158  ILE158      0.0001
    133  N        -34.0350    6.6210    8.9030 N.3   161  ASN161     -0.1240
    134  CA       -32.8990    7.4660    9.2400 C.3   161  ASN161      0.1653
    135  C        -33.1890    8.2680   10.5030 C.2   161  ASN161      0.2266
    136  O        -34.3300    8.6420   10.7770 O.2   161  ASN161     -0.2867
    137  CB       -32.5730    8.4220    8.0910 C.3   161  ASN161      0.1155
    138  CG       -31.7660    7.7630    6.9920 C.2   161  ASN161      0.2627
    139  OD1      -30.5330    7.7070    7.0600 O.2   161  ASN161     -0.2716
    140  ND2      -32.4550    7.2670    5.9660 N.am  161  ASN161     -0.0877
@<TRIPOS>BOND
     1    41    40    2
     2    40    39    1
     3    39    38    1
     4    39    42    1
     5    42    43    1
     6    44    43    1
     7    44    45    1
     8    45    46    1
     9    32    33    2
    10    32    31    1
    11    36    35    1
    12     1     2    1
    13   124   122   am
    14     2     3    1
    15   123   122    2
    16    35    37    1
    17    35    34    1
    18   122   121    1
    19    31    34    1
    20    31    30    1
    21    25    24    2
    22   104   105    1
    23     3     4    2
    24     3     5   am
    25    73    72    1
    26   121   118    1
    27    81    79    1
    28    30    24   am
    29    24    23    1
    30     5     6    1
    31    80    79    1
    32   105   106    1
    33   116   114   ar
    34    72    74    1
    35    72    71    2
    36    26    23    1
    37    26    27    1
    38   118   117    1
    39   118   119    1
    40    79    76    1
    41    23    22    1
    42    28    27    1
    43    70    71    1
    44    70    69    1
    45   106   107    2
    46     6     9    1
    47     6     7    1
    48   114   113    1
    49   114   115   ar
    50    22    16   am
    51   113   112    1
    52    27    29    1
    53   108   109    1
    54   119   120    2
    55   119   125   am
    56     9    10    1
    57    76    77    1
    58    76    75    1
    59    78    77    2
    60    14     7   am
    61    14    15    1
    62     7     8    2
    63    69    68    1
    64    16    15    1
    65    16    17    2
    66   112   109    1
    67    12    13    1
    68    12    11    1
    69   109   110    1
    70   125   126    1
    71    75    66   am
    72    10    11    1
    73    15    18    1
    74   131   129    1
    75    68    65    1
    76    18    19    1
    77    18    20    1
    78    67    66    2
    79    66    65    1
    80    54    53   ar
    81    19    21    1
    82   126   129    1
    83   126   127    1
    84    65    64    1
    85   110   111    2
    86   129   130    1
    87   130   132    1
    88    53    55   ar
    89    53    52    1
    90    64    58   am
    91   127   128    2
    92    96    94    1
    93    52    51    1
    94   140   138   am
    95    50    49    2
    96    51    48    1
    97    58    59    2
    98    58    57    1
    99    49    48    1
   100    49    56   am
   101   138   139    2
   102   138   137    1
   103    94    93    1
   104    94    95    1
   105    48    47    1
   106    57    56    1
   107    57    60    1
   108    92    91    2
   109    93    90    1
   110   137   134    1
   111    62    60    1
   112    91    90    1
   113    91    97   am
   114    90    89    1
   115    60    61    1
   116    89    84   am
   117   133   134    1
   118    98    97    1
   119    98   101    1
   120    98    99    1
   121   134   135    1
   122    61    63    1
   123    88    86    1
   124   102   101    1
   125    83    84    1
   126    83    86    1
   127    83    82    1
   128    84    85    2
   129   101   103    1
   130    99   100    2
   131    86    87    1
   132   135   136    2
