@<TRIPOS>MOLECULE
tmp/6adgC00.pdb
 124 118 0 0 0
SMALL
GASTEIGER

@<TRIPOS>ATOM
      1  N        -83.9600   97.3170  -10.7850 N.3    98  VAL98      -0.1245
      2  CA       -85.1800   96.5370  -10.6270 C.3    98  VAL98       0.1561
      3  C        -84.9770   95.5410   -9.4940 C.2    98  VAL98       0.2260
      4  O        -84.0330   94.7560   -9.5140 O.2    98  VAL98      -0.2867
      5  CB       -85.5430   95.8010  -11.9230 C.3    98  VAL98       0.0252
      6  CG1      -87.0220   95.9570  -12.2230 C.3    98  VAL98       0.0019
      7  CG2      -84.7220   96.3490  -13.0730 C.3    98  VAL98       0.0019
      8  N        -84.8660   91.3790   -9.9930 N.3   101  TRP101     -0.1241
      9  CA       -83.8450   90.6730  -10.7410 C.3   101  TRP101      0.1605
     10  C        -82.7230   90.1810   -9.8520 C.2   101  TRP101      0.2264
     11  O        -81.6930   90.8210   -9.7190 O.2   101  TRP101     -0.2867
     12  CB       -83.2570   91.5960  -11.8050 C.3   101  TRP101      0.0550
     13  CG       -84.1910   91.9040  -12.9240 C.ar  101  TRP101      0.0003
     14  CD1      -85.4570   91.4380  -13.0850 C.ar  101  TRP101      0.0946
     15  CD2      -83.9290   92.7470  -14.0440 C.ar  101  TRP101      0.0152
     16  NE1      -86.0030   91.9380  -14.2360 N.ar  101  TRP101     -0.2442
     17  CE2      -85.0810   92.7470  -14.8440 C.ar  101  TRP101      0.0810
     18  CE3      -82.8320   93.5020  -14.4480 C.ar  101  TRP101      0.0012
     19  CZ2      -85.1680   93.4700  -16.0210 C.ar  101  TRP101      0.0191
     20  CZ3      -82.9200   94.2190  -15.6160 C.ar  101  TRP101      0.0001
     21  CH2      -84.0770   94.2000  -16.3890 C.ar  101  TRP101      0.0015
     22  N        -79.8680   88.0990  -16.5610 N.3   105  ILE105     -0.1245
     23  CA       -80.5490   88.1050  -17.8390 C.3   105  ILE105      0.1561
     24  C        -79.4590   88.2040  -18.8800 C.2   105  ILE105      0.2260
     25  O        -78.6600   89.1290  -18.8500 O.2   105  ILE105     -0.2867
     26  CB       -81.4560   89.3300  -17.9910 C.3   105  ILE105      0.0252
     27  CG1      -82.5440   89.3230  -16.9240 C.3   105  ILE105      0.0019
     28  CG2      -82.0700   89.3660  -19.3780 C.3   105  ILE105      0.0019
     29  CD1      -83.9400   89.4180  -17.4870 C.3   105  ILE105      0.0001
     30  N        -92.5530   91.0610  -28.6020 N.3   228  ILE228     -0.1245
     31  CA       -91.6380   91.9370  -27.9000 C.3   228  ILE228      0.1561
     32  C        -92.3600   92.7600  -26.8500 C.2   228  ILE228      0.2260
     33  O        -91.8360   92.9830  -25.7710 O.2   228  ILE228     -0.2867
     34  CB       -90.8660   92.8410  -28.8690 C.3   228  ILE228      0.0252
     35  CG1      -89.9440   93.7720  -28.0930 C.3   228  ILE228      0.0019
     36  CG2      -91.8240   93.6220  -29.7490 C.3   228  ILE228      0.0019
     37  CD1      -88.6500   93.1260  -27.6700 C.3   228  ILE228      0.0001
     38  N        -91.1160   92.3830  -22.8880 N.3   232  VAL232     -0.1245
     39  CA       -90.5660   93.4150  -22.0200 C.3   232  VAL232      0.1561
     40  C        -91.3300   93.5030  -20.7130 C.2   232  VAL232      0.2260
     41  O        -90.7400   93.6400  -19.6500 O.2   232  VAL232     -0.2867
     42  CB       -90.5770   94.7980  -22.6860 C.3   232  VAL232      0.0252
     43  CG1      -89.6240   94.8300  -23.8650 C.3   232  VAL232      0.0019
     44  CG2      -91.9850   95.1680  -23.1120 C.3   232  VAL232      0.0019
     45  N        -90.4360   90.5180  -18.7320 N.3   235  ALA235     -0.1231
     46  CA       -89.0800   90.5840  -18.2250 C.3   235  ALA235      0.1694
     47  C        -88.9800   91.4330  -16.9740 C.2   235  ALA235      0.2591
     48  O        -88.2890   91.0750  -16.0310 O.2   235  ALA235     -0.2718
     49  CB       -88.1480   91.1160  -19.2950 C.3   235  ALA235      0.0304
     50  N        -89.6630   92.5690  -16.9720 N.am  236  MET236     -0.1979
     51  CA       -89.6370   93.4680  -15.8240 C.3   236  MET236      0.1605
     52  C        -90.2530   92.8320  -14.5880 C.2   236  MET236      0.2287
     53  O        -89.7540   92.9880  -13.4810 O.2   236  MET236     -0.2864
     54  CB       -90.3590   94.7640  -16.1540 C.3   236  MET236      0.0413
     55  CG       -89.5770   95.6810  -17.0680 C.3   236  MET236      0.0598
     56  SD       -90.6590   96.9160  -17.7860 S.3   236  MET236     -0.1393
     57  CE       -89.7360   98.4010  -17.4230 C.3   236  MET236      0.0692
     58  N        -82.2720   85.8510  -23.4560 N.3   244  TRP244     -0.1241
     59  CA       -83.1320   86.5740  -24.3720 C.3   244  TRP244      0.1605
     60  C        -82.4440   86.7760  -25.7030 C.2   244  TRP244      0.2264
     61  O        -81.3870   87.3890  -25.7740 O.2   244  TRP244     -0.2867
     62  CB       -83.4650   87.9360  -23.7740 C.3   244  TRP244      0.0550
     63  CG       -84.5340   88.6870  -24.4820 C.ar  244  TRP244      0.0003
     64  CD1      -85.1020   88.3780  -25.6710 C.ar  244  TRP244      0.0946
     65  CD2      -85.1630   89.8850  -24.0370 C.ar  244  TRP244      0.0152
     66  NE1      -86.0480   89.3080  -26.0040 N.ar  244  TRP244     -0.2442
     67  CE2      -86.1060   90.2460  -25.0100 C.ar  244  TRP244      0.0810
     68  CE3      -85.0190   90.6900  -22.9080 C.ar  244  TRP244      0.0012
     69  CZ2      -86.9030   91.3730  -24.8880 C.ar  244  TRP244      0.0191
     70  CZ3      -85.8070   91.8030  -22.7880 C.ar  244  TRP244      0.0001
     71  CH2      -86.7370   92.1380  -23.7720 C.ar  244  TRP244      0.0015
     72  N        -82.2650   95.5350  -33.8400 N.3   249  TYR249     -0.1227
     73  CA       -82.7830   96.7540  -33.2350 C.3   249  TYR249      0.1736
     74  C        -83.2310   96.5560  -31.7930 C.2   249  TYR249      0.2595
     75  O        -82.9560   97.3790  -30.9330 O.2   249  TYR249     -0.2718
     76  CB       -83.9270   97.3190  -34.0750 C.3   249  TYR249      0.0548
     77  CG       -84.6190   98.5100  -33.4640 C.ar  249  TYR249     -0.0200
     78  CD1      -84.0320   99.7630  -33.4820 C.ar  249  TYR249     -0.0009
     79  CD2      -85.8620   98.3810  -32.8750 C.ar  249  TYR249     -0.0009
     80  CE1      -84.6650  100.8530  -32.9240 C.ar  249  TYR249      0.0417
     81  CE2      -86.4990   99.4640  -32.3120 C.ar  249  TYR249      0.0417
     82  CZ       -85.8980  100.6960  -32.3410 C.ar  249  TYR249      0.1957
     83  OH       -86.5410  101.7690  -31.7860 O.3   249  TYR249     -0.2866
     84  N        -83.9560   95.4720  -31.5480 N.am  250  ASP250     -0.1974
     85  CA       -84.4620   95.1570  -30.2230 C.3   250  ASP250      0.1709
     86  C        -83.3260   94.9150  -29.2540 C.2   250  ASP250      0.2293
     87  O        -83.3750   95.3360  -28.1100 O.2   250  ASP250     -0.2864
     88  CB       -85.3390   93.9170  -30.2820 C.3   250  ASP250      0.1436
     89  CG       -86.7200   94.2100  -30.7780 C.2   250  ASP250      0.3671
     90  OD1      -87.1840   95.3430  -30.5960 O.co2 250  ASP250     -0.2456
     91  OD2      -87.3500   93.3090  -31.3500 O.co2 250  ASP250     -0.2456
     92  N        -81.4410   98.3010  -28.0700 N.3   253  VAL253     -0.1231
     93  CA       -82.1310   99.0010  -27.0100 C.3   253  VAL253      0.1692
     94  C        -81.9890   98.2080  -25.7290 C.2   253  VAL253      0.2591
     95  O        -81.7490   98.7590  -24.6640 O.2   253  VAL253     -0.2718
     96  CB       -83.6260   99.1670  -27.3270 C.3   253  VAL253      0.0266
     97  CG1      -84.3360   99.8630  -26.1820 C.3   253  VAL253      0.0020
     98  CG2      -83.8130   99.9440  -28.6160 C.3   253  VAL253      0.0020
     99  N        -82.1280   96.8970  -25.8520 N.am  254  GLN254     -0.1979
    100  CA       -82.1780   96.0150  -24.7010 C.3   254  GLN254      0.1601
    101  C        -80.9090   96.0180  -23.8850 C.2   254  GLN254      0.2287
    102  O        -80.9590   96.0190  -22.6610 O.2   254  GLN254     -0.2864
    103  CB       -82.4470   94.5860  -25.1600 C.3   254  GLN254      0.0394
    104  CG       -83.8700   94.1370  -24.9340 C.3   254  GLN254      0.0908
    105  CD       -84.6840   95.2150  -24.2830 C.2   254  GLN254      0.2608
    106  OE1      -85.7620   95.5570  -24.7470 O.2   254  GLN254     -0.2717
    107  NE2      -84.1610   95.7740  -23.2090 N.am  254  GLN254     -0.0878
    108  N        -80.5620   99.3040  -21.8390 N.3   257  SER257     -0.1202
    109  CA       -81.6390   99.3860  -20.8730 C.3   257  SER257      0.2020
    110  C        -81.4820   98.3470  -19.7780 C.2   257  SER257      0.2618
    111  O        -81.6680   98.6410  -18.6040 O.2   257  SER257     -0.2717
    112  CB       -82.9830   99.2020  -21.5710 C.3   257  SER257      0.2103
    113  OG       -83.1770   97.9180  -22.0580 O.3   257  SER257     -0.2182
    114  N        -81.1260   97.1310  -20.1690 N.am  258  VAL258     -0.1979
    115  CA       -80.9540   96.0410  -19.2170 C.3   258  VAL258      0.1595
    116  C        -79.8150   96.3300  -18.2590 C.2   258  VAL258      0.2287
    117  O        -79.8940   96.0290  -17.0740 O.2   258  VAL258     -0.2864
    118  CB       -80.7000   94.6990  -19.9160 C.3   258  VAL258      0.0276
    119  CG1      -80.8340   93.5630  -18.9180 C.3   258  VAL258      0.0022
    120  CG2      -81.6660   94.5150  -21.0730 C.3   258  VAL258      0.0022
    121  N        -81.0280   98.6390  -15.5190 N.3   261  GLY261     -0.1225
    122  CA       -81.9330   98.0980  -14.5260 C.3   261  GLY261      0.1811
    123  C        -81.2320   97.2660  -13.4780 C.2   261  GLY261      0.2280
    124  O        -81.5180   97.3720  -12.2910 O.2   261  GLY261     -0.2866
@<TRIPOS>BOND
     1    76    77    1
     2    76    73    1
     3    72    73    1
     4    78    77   ar
     5    78    80   ar
     6    77    79   ar
     7    73    74    1
     8    80    82   ar
     9    79    81   ar
    10    82    81   ar
    11    82    83    1
    12    74    84   am
    13    74    75    2
    14    84    85    1
    15    91    89   ar
    16    89    90   ar
    17    89    88    1
    18    88    85    1
    19    85    86    1
    20    36    34    1
    21    86    87    2
    22    34    35    1
    23    34    31    1
    24    98    96    1
    25    30    31    1
    26    35    37    1
    27    92    93    1
    28    31    32    1
    29    96    93    1
    30    96    97    1
    31    93    94    1
    32    32    33    2
    33    66    64   ar
    34    66    67   ar
    35    99    94   am
    36    99   100    1
    37    61    60    2
    38    94    95    2
    39    60    59    1
    40    64    63   ar
    41   103   104    1
    42   103   100    1
    43    67    69   ar
    44    67    65   ar
    45   104   105    1
    46    69    71   ar
    47   106   105    2
    48   100   101    1
    49    63    65   ar
    50    63    62    1
    51    59    62    1
    52    59    58    1
    53   105   107   am
    54    65    68   ar
    55   101   102    2
    56    43    42    1
    57    71    70   ar
    58    44    42    1
    59    68    70   ar
    60    38    39    1
    61    42    39    1
    62   113   112    1
    63    39    40    1
    64   108   109    1
    65   112   109    1
    66   120   118    1
    67   109   110    1
    68    40    41    2
    69   114   110   am
    70   114   115    1
    71   118   115    1
    72   118   119    1
    73   110   111    2
    74    28    26    1
    75    49    46    1
    76   115   116    1
    77    24    25    2
    78    24    23    1
    79    45    46    1
    80   116   117    2
    81    46    47    1
    82    26    23    1
    83    26    27    1
    84    23    22    1
    85    56    57    1
    86    56    55    1
    87    29    27    1
    88    55    54    1
    89    47    50   am
    90    47    48    2
    91    50    51    1
    92    21    19   ar
    93    21    20   ar
    94    54    51    1
    95    19    17   ar
    96    51    52    1
    97    20    18   ar
    98   121   122    1
    99    17    16   ar
   100    17    15   ar
   101    52    53    2
   102   122   123    1
   103    18    15   ar
   104    16    14   ar
   105    15    13   ar
   106   123   124    2
   107    14    13   ar
   108     7     5    1
   109    13    12    1
   110     6     5    1
   111     5     2    1
   112    12     9    1
   113     1     2    1
   114     9     8    1
   115     9    10    1
   116     2     3    1
   117    10    11    2
   118     4     3    2
