@<TRIPOS>MOLECULE
tmp/6adqV11.pdb
 189 179 0 0 0
SMALL
GASTEIGER

@<TRIPOS>ATOM
      1  N        202.1910  201.0510  185.3260 N.3   150  PHE150     -0.1241
      2  CA       201.2380  201.2420  186.4170 C.3   150  PHE150      0.1605
      3  C        200.6520  199.9250  186.8950 C.2   150  PHE150      0.2264
      4  O        200.3930  199.7580  188.0910 O.2   150  PHE150     -0.2867
      5  CB       200.1120  202.1780  185.9840 C.3   150  PHE150      0.0534
      6  CG       200.5210  203.6150  185.8770 C.ar  150  PHE150     -0.0203
      7  CD1      201.6840  204.0610  186.4740 C.ar  150  PHE150     -0.0042
      8  CD2      199.7400  204.5210  185.1820 C.ar  150  PHE150     -0.0042
      9  CE1      202.0680  205.3750  186.3820 C.ar  150  PHE150     -0.0003
     10  CE2      200.1180  205.8460  185.0850 C.ar  150  PHE150     -0.0003
     11  CZ       201.2870  206.2720  185.6880 C.ar  150  PHE150     -0.0000
     12  N        203.2280  198.1060  188.9850 N.3   153  PHE153     -0.1227
     13  CA       203.2540  198.7720  190.2860 C.3   153  PHE153      0.1736
     14  C        202.0590  198.3980  191.1420 C.2   153  PHE153      0.2595
     15  O        202.1800  198.2960  192.3650 O.2   153  PHE153     -0.2718
     16  CB       203.3050  200.2760  190.1160 C.3   153  PHE153      0.0547
     17  CG       203.2240  201.0310  191.4040 C.ar  153  PHE153     -0.0202
     18  CD1      204.2630  200.9850  192.3130 C.ar  153  PHE153     -0.0042
     19  CD2      202.1200  201.8070  191.6930 C.ar  153  PHE153     -0.0042
     20  CE1      204.1940  201.6850  193.4960 C.ar  153  PHE153     -0.0003
     21  CE2      202.0450  202.5080  192.8750 C.ar  153  PHE153     -0.0003
     22  CZ       203.0830  202.4460  193.7760 C.ar  153  PHE153     -0.0000
     23  N        200.9030  198.1840  190.5220 N.am  154  PHE154     -0.1976
     24  CA       199.7880  197.6070  191.2560 C.3   154  PHE154      0.1639
     25  C        200.0730  196.1580  191.6150 C.2   154  PHE154      0.2290
     26  O        199.5580  195.6580  192.6190 O.2   154  PHE154     -0.2864
     27  CB       198.5100  197.7140  190.4270 C.3   154  PHE154      0.0560
     28  CG       198.0730  199.1290  190.1580 C.ar  154  PHE154     -0.0200
     29  CD1      198.4840  200.1730  190.9710 C.ar  154  PHE154     -0.0042
     30  CD2      197.2810  199.4180  189.0640 C.ar  154  PHE154     -0.0042
     31  CE1      198.0980  201.4640  190.7140 C.ar  154  PHE154     -0.0003
     32  CE2      196.8890  200.7130  188.8030 C.ar  154  PHE154     -0.0003
     33  CZ       197.2990  201.7360  189.6310 C.ar  154  PHE154     -0.0000
     34  N        204.7690  206.7560  196.3520 N.3   171  ALA171     -0.1231
     35  CA       204.3060  207.0790  195.0100 C.3   171  ALA171      0.1694
     36  C        202.8010  207.3110  194.9720 C.2   171  ALA171      0.2591
     37  O        202.3410  208.3920  194.5990 O.2   171  ALA171     -0.2718
     38  CB       204.7070  205.9660  194.0390 C.3   171  ALA171      0.0304
     39  N        202.0170  206.3150  195.3660 N.am  172  LEU172     -0.1980
     40  CA       200.5890  206.3590  195.0900 C.3   172  LEU172      0.1596
     41  C        199.8070  207.1840  196.1090 C.2   172  LEU172      0.2287
     42  O        198.6120  207.4200  195.9080 O.2   172  LEU172     -0.2864
     43  CB       200.0500  204.9230  195.0130 C.3   172  LEU172      0.0297
     44  CG       198.6830  204.5820  194.4110 C.3   172  LEU172      0.0022
     45  CD1      198.6800  204.9320  192.9540 C.3   172  LEU172      0.0001
     46  CD2      198.3510  203.1220  194.5910 C.3   172  LEU172      0.0001
     47  N        202.4260  211.5010  196.1200 N.3   175  ILE175     -0.1231
     48  CA       202.2870  212.2630  194.8920 C.3   175  ILE175      0.1692
     49  C        200.8150  212.5430  194.6150 C.2   175  ILE175      0.2592
     50  O        200.4700  213.5890  194.0590 O.2   175  ILE175     -0.2718
     51  CB       202.9730  211.5010  193.7470 C.3   175  ILE175      0.0266
     52  CG1      204.4440  211.2850  194.0750 C.3   175  ILE175      0.0019
     53  CG2      202.8930  212.2450  192.4410 C.3   175  ILE175      0.0020
     54  CD1      205.1360  210.3360  193.1330 C.3   175  ILE175      0.0001
     55  N        199.9230  211.6510  195.0440 N.am  176  THR176     -0.1953
     56  CA       198.5030  211.8230  194.7650 C.3   176  THR176      0.1897
     57  C        197.8880  212.8970  195.6530 C.2   176  THR176      0.2313
     58  O        197.0700  213.6960  195.1870 O.2   176  THR176     -0.2863
     59  CB       197.7800  210.4950  194.9450 C.3   176  THR176      0.1794
     60  OG1      198.4540  209.4920  194.1810 O.3   176  THR176     -0.2208
     61  CG2      196.3750  210.5910  194.4300 C.3   176  THR176      0.0378
     62  N        199.0130  217.0420  194.5600 N.3   179  ILE179     -0.1245
     63  CA       198.5250  217.5640  193.2850 C.3   179  ILE179      0.1561
     64  C        197.6760  218.7570  193.7010 C.2   179  ILE179      0.2260
     65  O        196.9060  218.6230  194.6610 O.2   179  ILE179     -0.2867
     66  CB       197.7360  216.5040  192.4970 C.3   179  ILE179      0.0252
     67  CG1      198.6480  215.3960  191.9860 C.3   179  ILE179      0.0019
     68  CG2      196.9730  217.0980  191.3350 C.3   179  ILE179      0.0019
     69  CD1      197.8980  214.2110  191.4960 C.3   179  ILE179      0.0001
     70  N        191.1840  213.1280  194.4990 N.3   186  MET186     -0.1245
     71  CA       191.4780  211.8800  193.8080 C.3   186  MET186      0.1570
     72  C        192.2090  210.8910  194.6990 C.2   186  MET186      0.2261
     73  O        192.0920  209.6850  194.4740 O.2   186  MET186     -0.2867
     74  CB       192.2820  212.1080  192.5240 C.3   186  MET186      0.0387
     75  CG       193.6880  212.6200  192.6950 C.3   186  MET186      0.0595
     76  SD       194.5350  212.6880  191.1080 S.3   186  MET186     -0.1393
     77  CE       193.6340  214.0010  190.2990 C.3   186  MET186      0.0692
     78  N        190.5910  207.3480  195.2770 N.3   190  LEU190     -0.1245
     79  CA       191.3620  206.1480  194.9850 C.3   190  LEU190      0.1561
     80  C        191.4330  205.2020  196.1700 C.2   190  LEU190      0.2260
     81  O        191.4620  203.9810  195.9820 O.2   190  LEU190     -0.2867
     82  CB       192.7710  206.5430  194.5510 C.3   190  LEU190      0.0270
     83  CG       193.7940  205.4670  194.2190 C.3   190  LEU190      0.0019
     84  CD1      193.3040  204.6210  193.0780 C.3   190  LEU190      0.0001
     85  CD2      195.0850  206.1420  193.8560 C.3   190  LEU190      0.0001
     86  N        209.7880  201.4780  187.2450 N.3   302  MET302     -0.1196
     87  CA       209.2690  202.6620  187.8990 C.3   302  MET302      0.1786
     88  C        210.3290  203.3290  188.7810 C.2   302  MET302      0.2306
     89  O        210.0590  204.3670  189.3970 O.2   302  MET302     -0.2863
     90  CB       207.9890  202.2790  188.6740 C.2   302  MET302      0.0070
     91  CG       207.1280  203.4350  189.1580 C.2   302  MET302      0.0282
     92  SD       205.5010  203.1220  189.7890 S.3   302  MET302     -0.1125
     93  CE       204.6550  203.0260  188.2280 C.3   302  MET302      0.0742
     94  N        210.7800  206.9790  188.3260 N.3   305  THR305     -0.1218
     95  CA       209.7910  207.9180  188.8400 C.3   305  THR305      0.1862
     96  C        210.2250  208.5070  190.1720 C.2   305  THR305      0.2287
     97  O        210.4540  209.7160  190.2790 O.2   305  THR305     -0.2866
     98  CB       208.4430  207.2340  188.9980 C.3   305  THR305      0.1770
     99  OG1      208.5810  206.1760  189.9480 O.3   305  THR305     -0.2211
    100  CG2      207.9860  206.6810  187.6720 C.3   305  THR305      0.0375
    101  N        204.4900  214.7170  189.4530 N.3   331  ALA331     -0.1231
    102  CA       203.1690  214.5140  188.8700 C.3   331  ALA331      0.1694
    103  C        202.9990  215.3410  187.6060 C.2   331  ALA331      0.2591
    104  O        202.2800  214.9330  186.6890 O.2   331  ALA331     -0.2718
    105  CB       202.0760  214.8560  189.8770 C.3   331  ALA331      0.0304
    106  N        203.6610  216.4950  187.5320 N.am  332  VAL332     -0.1980
    107  CA       203.8240  217.1510  186.2450 C.3   332  VAL332      0.1595
    108  C        204.8280  216.3840  185.4000 C.2   332  VAL332      0.2287
    109  O        204.5910  216.1250  184.2130 O.2   332  VAL332     -0.2864
    110  CB       204.2450  218.6160  186.4480 C.3   332  VAL332      0.0276
    111  CG1      204.5570  219.2760  185.1220 C.3   332  VAL332      0.0022
    112  CG2      203.1520  219.3770  187.1620 C.3   332  VAL332      0.0022
    113  N        206.1130  213.1700  185.3370 N.3   334  MET334     -0.1230
    114  CA       205.6070  211.9540  184.7110 C.3   334  MET334      0.1702
    115  C        204.5300  212.2630  183.6850 C.2   334  MET334      0.2593
    116  O        204.4170  211.5610  182.6770 O.2   334  MET334     -0.2718
    117  CB       205.0660  210.9950  185.7650 C.3   334  MET334      0.0401
    118  CG       206.1300  210.3310  186.5960 C.3   334  MET334      0.0596
    119  SD       205.3860  209.3410  187.8960 S.3   334  MET334     -0.1393
    120  CE       204.5660  208.0830  186.9270 C.3   334  MET334      0.0692
    121  N        203.7440  213.3160  183.9100 N.am  335  GLY335     -0.1942
    122  CA       202.8500  213.7790  182.8690 C.3   335  GLY335      0.2014
    123  C        203.5700  214.4840  181.7450 C.2   335  GLY335      0.2638
    124  O        203.0150  214.6200  180.6520 O.2   335  GLY335     -0.2714
    125  N        204.7960  214.9370  181.9940 N.am  336  LEU336     -0.1977
    126  CA       205.5860  215.5830  180.9570 C.3   336  LEU336      0.1596
    127  C        206.1800  214.5440  180.0180 C.2   336  LEU336      0.2287
    128  O        205.9140  214.5690  178.8100 O.2   336  LEU336     -0.2864
    129  CB       206.6710  216.4470  181.6100 C.3   336  LEU336      0.0297
    130  CG       207.4990  217.4740  180.8320 C.3   336  LEU336      0.0022
    131  CD1      208.7200  216.8830  180.1430 C.3   336  LEU336      0.0001
    132  CD2      206.6060  218.1680  179.8230 C.3   336  LEU336      0.0001
    133  N        205.6250  211.3800  179.5320 N.3   338  PHE338     -0.1227
    134  CA       204.6720  210.5580  178.8020 C.3   338  PHE338      0.1736
    135  C        204.0740  211.3440  177.6470 C.2   338  PHE338      0.2595
    136  O        203.9210  210.8140  176.5420 O.2   338  PHE338     -0.2718
    137  CB       203.5760  210.0490  179.7390 C.3   338  PHE338      0.0547
    138  CG       204.0500  209.0470  180.7710 C.ar  338  PHE338     -0.0202
    139  CD1      205.3040  208.4560  180.6890 C.ar  338  PHE338     -0.0042
    140  CD2      203.2190  208.6860  181.8210 C.ar  338  PHE338     -0.0042
    141  CE1      205.7150  207.5370  181.6310 C.ar  338  PHE338     -0.0003
    142  CE2      203.6310  207.7660  182.7680 C.ar  338  PHE338     -0.0003
    143  CZ       204.8810  207.1930  182.6710 C.ar  338  PHE338     -0.0000
    144  N        203.8470  212.6430  177.8530 N.am  339  ALA339     -0.1966
    145  CA       203.3780  213.4860  176.7660 C.3   339  ALA339      0.1728
    146  C        204.4600  213.7550  175.7370 C.2   339  ALA339      0.2616
    147  O        204.1420  214.2260  174.6420 O.2   339  ALA339     -0.2715
    148  CB       202.8440  214.8060  177.3090 C.3   339  ALA339      0.0334
    149  N        205.7200  213.4740  176.0560 N.am  340  LEU340     -0.1977
    150  CA       206.7500  213.4640  175.0350 C.3   340  LEU340      0.1596
    151  C        206.9590  212.0840  174.4500 C.2   340  LEU340      0.2287
    152  O        207.5200  211.9680  173.3570 O.2   340  LEU340     -0.2864
    153  CB       208.0740  213.9660  175.6020 C.3   340  LEU340      0.0297
    154  CG       208.0700  215.4240  176.0310 C.3   340  LEU340      0.0022
    155  CD1      209.4080  215.7810  176.6320 C.3   340  LEU340      0.0001
    156  CD2      207.7510  216.3080  174.8490 C.3   340  LEU340      0.0001
    157  N        203.5640  211.3550  172.1750 N.3   343  ALA343     -0.1245
    158  CA       203.3830  212.2510  171.0460 C.3   343  ALA343      0.1562
    159  C        204.6800  212.5930  170.3310 C.2   343  ALA343      0.2260
    160  O        204.7360  213.6200  169.6550 O.2   343  ALA343     -0.2867
    161  CB       202.6940  213.5340  171.5060 C.3   343  ALA343      0.0290
    162  N        204.5390  212.8290  166.0950 N.3   346  PHE346     -0.1227
    163  CA       203.9910  214.1020  165.6580 C.3   346  PHE346      0.1736
    164  C        204.9650  215.2420  165.9190 C.2   346  PHE346      0.2595
    165  O        205.0300  216.1850  165.1190 O.2   346  PHE346     -0.2718
    166  CB       202.6630  214.3430  166.3590 C.3   346  PHE346      0.0547
    167  CG       201.6450  213.2810  166.0870 C.ar  346  PHE346     -0.0202
    168  CD1      200.8870  213.3070  164.9310 C.ar  346  PHE346     -0.0042
    169  CD2      201.4600  212.2440  166.9840 C.ar  346  PHE346     -0.0042
    170  CE1      199.9520  212.3240  164.6830 C.ar  346  PHE346     -0.0003
    171  CE2      200.5340  211.2600  166.7400 C.ar  346  PHE346     -0.0003
    172  CZ       199.7780  211.3000  165.5910 C.ar  346  PHE346     -0.0000
    173  N        205.7590  215.1490  166.9960 N.am  347  ILE347     -0.1980
    174  CA       206.7610  216.1750  167.2890 C.3   347  ILE347      0.1595
    175  C        207.8110  216.2260  166.1930 C.2   347  ILE347      0.2287
    176  O        208.0770  217.2870  165.6200 O.2   347  ILE347     -0.2864
    177  CB       207.4010  215.9510  168.6710 C.3   347  ILE347      0.0276
    178  CG1      206.4330  216.3360  169.7800 C.3   347  ILE347      0.0022
    179  CG2      208.6690  216.7610  168.8220 C.3   347  ILE347      0.0022
    180  CD1      206.8890  215.9110  171.1460 C.3   347  ILE347      0.0001
    181  N        206.5210  217.3960  162.8660 N.3   350  LYS350     -0.1245
    182  CA       206.5050  218.8510  162.7740 C.3   350  LYS350      0.1561
    183  C        207.9110  219.4090  162.5880 C.2   350  LYS350      0.2260
    184  O        208.1130  220.3420  161.8030 O.2   350  LYS350     -0.2867
    185  CB       205.8510  219.4440  164.0200 C.3   350  LYS350      0.0271
    186  CG       205.6960  220.9480  163.9830 C.3   350  LYS350      0.0035
    187  CD       204.7650  221.3650  162.8650 C.3   350  LYS350      0.0206
    188  CE       203.3420  220.9280  163.1580 C.3   350  LYS350      0.1093
    189  NZ       202.3810  221.3730  162.1140 N.3   350  LYS350     -0.1314
@<TRIPOS>BOND
     1   184   183    2
     2   189   188    1
     3   183   182    1
     4   182   181    1
     5   182   185    1
     6   187   188    1
     7   187   186    1
     8   186   185    1
     9   170   168   ar
    10   170   172   ar
    11   168   167   ar
    12   165   164    2
    13   172   171   ar
    14   176   175    2
    15   163   164    1
    16   163   162    1
    17   163   166    1
    18   164   173   am
    19   167   166    1
    20   167   169   ar
    21   175   174    1
    22   171   169   ar
    23   173   174    1
    24   174   177    1
    25   177   179    1
    26   177   178    1
    27   160   159    2
    28   178   180    1
    29   159   158    1
    30   158   161    1
    31   158   157    1
    32   152   151    2
    33   151   150    1
    34   147   146    2
    35   156   154    1
    36   150   153    1
    37   150   149    1
    38   153   154    1
    39   146   149   am
    40   146   145    1
    41   154   155    1
    42   136   135    2
    43   145   148    1
    44   145   144    1
    45   135   144   am
    46   135   134    1
    47   134   133    1
    48   134   137    1
    49   128   127    2
    50   137   138    1
    51   132   130    1
    52   127   126    1
    53   131   130    1
    54   124   123    2
    55   139   138   ar
    56   139   141   ar
    57   138   140   ar
    58   130   129    1
    59   126   129    1
    60   126   125    1
    61   141   143   ar
    62   123   125   am
    63   123   122    1
    64   140   142   ar
    65   143   142   ar
    66   116   115    2
    67   122   121    1
    68   115   121   am
    69   115   114    1
    70   109   108    2
    71   114   113    1
    72   114   117    1
    73    10     8   ar
    74    10    11   ar
    75   111   110    1
    76     8     6   ar
    77     1     2    1
    78   108   107    1
    79    11     9   ar
    80   117   118    1
    81     6     5    1
    82     6     7   ar
    83     5     2    1
    84   107   110    1
    85   107   106    1
    86     9     7   ar
    87     2     3    1
    88   110   112    1
    89   118   119    1
    90   104   103    2
    91     3     4    2
    92   120   119    1
    93    86    87    1
    94   106   103   am
    95   103   102    1
    96   100    98    1
    97    87    90    1
    98    87    88    1
    99    93    92    1
   100    94    95    1
   101    90    91    2
   102    88    89    2
   103    32    30   ar
   104    32    33   ar
   105    95    98    1
   106    95    96    1
   107   102   101    1
   108   102   105    1
   109    12    13    1
   110    98    99    1
   111    30    28   ar
   112    91    92    1
   113    33    31   ar
   114    16    13    1
   115    16    17    1
   116    28    27    1
   117    28    29   ar
   118    96    97    2
   119    13    14    1
   120    77    76    1
   121    27    24    1
   122    23    14   am
   123    23    24    1
   124    31    29   ar
   125    76    75    1
   126    14    15    2
   127    24    25    1
   128    68    66    1
   129    17    19   ar
   130    17    18   ar
   131    69    67    1
   132    25    26    2
   133    19    21   ar
   134    67    66    1
   135    18    20   ar
   136    53    51    1
   137    66    63    1
   138    74    75    1
   139    74    71    1
   140    21    22   ar
   141    45    44    1
   142    84    83    1
   143    54    52    1
   144    63    64    1
   145    63    62    1
   146    20    22   ar
   147    64    65    2
   148    51    52    1
   149    51    48    1
   150    71    70    1
   151    71    72    1
   152    85    83    1
   153    38    35    1
   154    50    49    2
   155    60    59    1
   156    83    82    1
   157    44    46    1
   158    44    43    1
   159    61    59    1
   160    73    72    2
   161    82    79    1
   162    37    36    2
   163    49    48    1
   164    49    55   am
   165    56    59    1
   166    56    55    1
   167    56    57    1
   168    48    47    1
   169    36    35    1
   170    36    39   am
   171    79    78    1
   172    79    80    1
   173    35    34    1
   174    43    40    1
   175    40    39    1
   176    40    41    1
   177    58    57    2
   178    42    41    2
   179    81    80    2
