@<TRIPOS>MOLECULE
tmp/6adqV16.pdb
 89 86 0 0 0
SMALL
GASTEIGER

@<TRIPOS>ATOM
      1  N        182.9060  176.3660  156.9490 N.3    17  TYR17      -0.1227
      2  CA       183.3780  177.7220  156.7630 C.3    17  TYR17       0.1736
      3  C        183.9320  177.7900  155.3570 C.2    17  TYR17       0.2595
      4  O        183.9240  176.8000  154.6290 O.2    17  TYR17      -0.2718
      5  CB       184.4440  178.0270  157.8080 C.3    17  TYR17       0.0548
      6  CG       183.9520  177.7490  159.1930 C.ar   17  TYR17      -0.0200
      7  CD1      182.6500  178.0480  159.5660 C.ar   17  TYR17      -0.0009
      8  CD2      184.7340  177.0410  160.0820 C.ar   17  TYR17      -0.0009
      9  CE1      182.1890  177.7390  160.8020 C.ar   17  TYR17       0.0417
     10  CE2      184.2710  176.7230  161.3270 C.ar   17  TYR17       0.0417
     11  CZ       182.9960  177.0810  161.6760 C.ar   17  TYR17       0.1957
     12  OH       182.4950  176.7880  162.9120 O.3    17  TYR17      -0.2866
     13  N        184.4500  178.9430  154.9630 N.am   18  HIS18      -0.1962
     14  CA       185.2290  179.0440  153.7310 C.3    18  HIS18       0.1772
     15  C        186.5880  179.6910  153.9910 C.2    18  HIS18       0.2462
     16  O        186.9360  180.7010  153.3730 O.2    18  HIS18      -0.2730
     17  CB       184.4250  179.7950  152.6730 C.3    18  HIS18       0.0785
     18  CG       183.9220  181.1300  153.1190 C.ar   18  HIS18       0.0821
     19  ND1      184.6430  182.2900  152.9470 N.ar   18  HIS18      -0.2267
     20  CD2      182.7730  181.4880  153.7380 C.ar   18  HIS18       0.1154
     21  CE1      183.9540  183.3100  153.4260 C.ar   18  HIS18       0.1986
     22  NE2      182.8170  182.8490  153.9140 N.ar   18  HIS18      -0.2212
     23  N        187.4120  179.0970  154.8670 N.am   19  PRO19      -0.2727
     24  CA       188.5240  179.8620  155.4430 C.3    19  PRO19       0.1402
     25  C        189.7340  179.9920  154.5490 C.2    19  PRO19       0.2269
     26  O        190.5160  180.9270  154.7630 O.2    19  PRO19      -0.2865
     27  CB       188.8820  179.0600  156.6940 C.3    19  PRO19       0.0296
     28  CG       188.6030  177.6780  156.2990 C.3    19  PRO19       0.0237
     29  CD       187.4180  177.7100  155.3700 C.3    19  PRO19       0.0939
     30  N        190.8550  180.9900  151.7090 N.3    21  ALA21      -0.1231
     31  CA       191.3250  182.2720  151.1990 C.3    21  ALA21       0.1694
     32  C        192.0270  183.0540  152.2990 C.2    21  ALA21       0.2592
     33  O        193.2490  183.2290  152.2660 O.2    21  ALA21      -0.2718
     34  CB       190.1600  183.0740  150.6220 C.3    21  ALA21       0.0304
     35  N        191.2900  183.4080  153.3450 N.am   22  ALA22      -0.1966
     36  CA       191.8150  184.1630  154.4720 C.3    22  ALA22       0.1728
     37  C        192.6440  183.3240  155.4340 C.2    22  ALA22       0.2616
     38  O        192.8590  183.7580  156.5630 O.2    22  ALA22      -0.2715
     39  CB       190.6710  184.8290  155.2350 C.3    22  ALA22       0.0334
     40  N        193.0510  182.1200  155.0490 N.am   23  VAL23      -0.1977
     41  CA       194.1470  181.4220  155.6970 C.3    23  VAL23       0.1596
     42  C        195.4040  181.4730  154.8410 C.2    23  VAL23       0.2287
     43  O        196.5050  181.6650  155.3590 O.2    23  VAL23      -0.2864
     44  CB       193.7310  179.9690  156.0170 C.3    23  VAL23       0.0276
     45  CG1      194.8790  179.1700  156.5560 C.3    23  VAL23       0.0022
     46  CG2      192.6320  179.9680  157.0420 C.3    23  VAL23       0.0022
     47  N        196.0620  183.9280  152.8260 N.3    25  ARG25      -0.1245
     48  CA       196.5440  185.2990  153.0030 C.3    25  ARG25       0.1563
     49  C        197.3930  185.4400  154.2590 C.2    25  ARG25       0.2260
     50  O        198.2730  186.3040  154.3190 O.2    25  ARG25      -0.2867
     51  CB       195.3760  186.2850  153.0730 C.3    25  ARG25       0.0307
     52  CG       194.8970  186.9110  151.7660 C.3    25  ARG25       0.0489
     53  CD       194.1760  185.9280  150.8820 C.3    25  ARG25       0.2205
     54  NE       193.4010  186.5890  149.8470 N.pl3  25  ARG25      -0.0865
     55  CZ       192.1340  186.9510  150.0070 C.cat  25  ARG25       0.5346
     56  NH1      191.5200  186.7180  151.1630 N.pl3  25  ARG25       0.1354
     57  NH2      191.4790  187.5450  149.0190 N.pl3  25  ARG25       0.1354
     58  N        200.1520  205.7440  164.9440 N.3   136  ALA136     -0.1245
     59  CA       199.1240  205.2630  165.8560 C.3   136  ALA136      0.1562
     60  C        199.5630  203.9830  166.5390 C.2   136  ALA136      0.2260
     61  O        199.1640  203.7120  167.6780 O.2   136  ALA136     -0.2867
     62  CB       197.8130  205.0450  165.1120 C.3   136  ALA136      0.0290
     63  N        199.5850  203.5840  170.6010 N.3   140  ILE140     -0.1245
     64  CA       198.9800  202.5280  171.4080 C.3   140  ILE140      0.1561
     65  C        200.0460  201.6620  172.0720 C.2   140  ILE140      0.2260
     66  O        199.8240  201.1490  173.1720 O.2   140  ILE140     -0.2867
     67  CB       197.9840  201.6850  170.5960 C.3   140  ILE140      0.0252
     68  CG1      198.6660  200.9020  169.4900 C.3   140  ILE140      0.0019
     69  CG2      196.9180  202.5690  169.9920 C.3   140  ILE140      0.0019
     70  CD1      197.7300  199.9470  168.8180 C.3   140  ILE140      0.0001
     71  N        197.6270  195.8830  163.9910 N.3   226  LEU226     -0.1245
     72  CA       198.2980  196.9290  163.2280 C.3   226  LEU226      0.1561
     73  C        199.6400  196.4670  162.6790 C.2   226  LEU226      0.2260
     74  O        200.0460  196.9020  161.6020 O.2   226  LEU226     -0.2867
     75  CB       198.4830  198.1660  164.0960 C.3   226  LEU226      0.0270
     76  CG       197.4750  199.3090  164.0360 C.3   226  LEU226      0.0019
     77  CD1      196.0890  198.9210  164.4330 C.3   226  LEU226      0.0001
     78  CD2      197.9690  200.3720  164.9950 C.3   226  LEU226      0.0001
     79  N        198.2380  193.3710  159.6390 N.3   229  PHE229     -0.1241
     80  CA       197.5790  193.6810  158.3730 C.3   229  PHE229      0.1605
     81  C        198.3220  194.7640  157.6150 C.2   229  PHE229      0.2264
     82  O        198.7300  194.5680  156.4650 O.2   229  PHE229     -0.2867
     83  CB       196.1420  194.1070  158.6280 C.3   229  PHE229      0.0534
     84  CG       195.2990  193.0200  159.1680 C.ar  229  PHE229     -0.0203
     85  CD1      194.7780  192.0560  158.3310 C.ar  229  PHE229     -0.0042
     86  CD2      195.0400  192.9470  160.5170 C.ar  229  PHE229     -0.0042
     87  CE1      194.0030  191.0460  158.8300 C.ar  229  PHE229     -0.0003
     88  CE2      194.2650  191.9380  161.0240 C.ar  229  PHE229     -0.0003
     89  CZ       193.7450  190.9880  160.1790 C.ar  229  PHE229     -0.0000
@<TRIPOS>BOND
     1    57    55    1
     2    54    55    2
     3    54    53    1
     4    55    56    1
     5    34    31    1
     6    53    52    1
     7    31    30    1
     8    31    32    1
     9    52    51    1
    10    33    32    2
    11    32    35   am
    12    17    18    1
    13    17    14    1
    14    47    48    1
    15    19    18   ar
    16    19    21   ar
    17    48    51    1
    18    48    49    1
    19    18    20   ar
    20    35    36    1
    21    16    15    2
    22    21    22   ar
    23    14    15    1
    24    14    13    1
    25    20    22   ar
    26    15    23   am
    27    49    50    2
    28    36    39    1
    29    36    37    1
    30    25    26    2
    31    25    24    1
    32     4     3    2
    33    42    43    2
    34    42    41    1
    35    23    29    1
    36    23    24    1
    37    13     3   am
    38    40    37   am
    39    40    41    1
    40     3     2    1
    41    29    28    1
    42    37    38    2
    43    24    27    1
    44    41    44    1
    45    44    45    1
    46    44    46    1
    47    28    27    1
    48    82    81    2
    49     2     1    1
    50     2     5    1
    51    81    80    1
    52     5     6    1
    53    85    87   ar
    54    85    84   ar
    55    80    83    1
    56    80    79    1
    57    83    84    1
    58    87    89   ar
    59    84    86   ar
    60     6     7   ar
    61     6     8   ar
    62     7     9   ar
    63     8    10   ar
    64    89    88   ar
    65    86    88   ar
    66     9    11   ar
    67    10    11   ar
    68    74    73    2
    69    11    12    1
    70    73    72    1
    71    72    71    1
    72    72    75    1
    73    76    75    1
    74    76    77    1
    75    76    78    1
    76    58    59    1
    77    62    59    1
    78    59    60    1
    79    60    61    2
    80    70    68    1
    81    68    67    1
    82    69    67    1
    83    67    64    1
    84    63    64    1
    85    64    65    1
    86    65    66    2
