@<TRIPOS>MOLECULE
tmp/6adqV23.pdb
 160 155 0 0 0
SMALL
GASTEIGER

@<TRIPOS>ATOM
      1  N        213.2930  210.2810  190.3200 N.3   308  LEU308     -0.1245
      2  CA       212.9870  211.6700  190.0190 C.3   308  LEU308      0.1561
      3  C        212.4670  212.4140  191.2450 C.2   308  LEU308      0.2260
      4  O        212.6620  213.6280  191.3500 O.2   308  LEU308     -0.2867
      5  CB       211.9840  211.7280  188.8690 C.3   308  LEU308      0.0270
      6  CG       211.6120  213.0690  188.2500 C.3   308  LEU308      0.0019
      7  CD1      212.8360  213.7490  187.7000 C.3   308  LEU308      0.0001
      8  CD2      210.5860  212.8600  187.1570 C.3   308  LEU308      0.0001
      9  N        214.7120  215.6320  192.5240 N.3   312  TRP312     -0.1241
     10  CA       214.1240  216.9440  192.3470 C.3   312  TRP312      0.1605
     11  C        214.3310  217.7520  193.6220 C.2   312  TRP312      0.2264
     12  O        213.9340  217.3000  194.6990 O.2   312  TRP312     -0.2867
     13  CB       212.6520  216.8400  192.0010 C.3   312  TRP312      0.0550
     14  CG       212.1320  218.1270  191.5730 C.ar  312  TRP312      0.0003
     15  CD1      211.3730  218.9880  192.2950 C.ar  312  TRP312      0.0946
     16  CD2      212.3670  218.7480  190.3150 C.ar  312  TRP312      0.0152
     17  NE1      211.1090  220.1110  191.5560 N.ar  312  TRP312     -0.2442
     18  CE2      211.7070  219.9830  190.3320 C.ar  312  TRP312      0.0810
     19  CE3      213.0660  218.3720  189.1680 C.ar  312  TRP312      0.0012
     20  CZ2      211.7280  220.8470  189.2520 C.ar  312  TRP312      0.0191
     21  CZ3      213.0840  219.2250  188.1010 C.ar  312  TRP312      0.0001
     22  CH2      212.4190  220.4500  188.1450 C.ar  312  TRP312      0.0015
     23  N        205.9260  215.9450  186.0230 N.3   333  GLY333     -0.1225
     24  CA       207.0510  215.4160  185.2690 C.3   333  GLY333      0.1811
     25  C        206.7580  214.0860  184.6100 C.2   333  GLY333      0.2280
     26  O        207.0890  213.8880  183.4410 O.2   333  GLY333     -0.2866
     27  N        204.7960  214.9370  181.9940 N.3   336  LEU336     -0.1231
     28  CA       205.5860  215.5830  180.9570 C.3   336  LEU336      0.1693
     29  C        206.1800  214.5440  180.0180 C.2   336  LEU336      0.2591
     30  O        205.9140  214.5690  178.8100 O.2   336  LEU336     -0.2718
     31  CB       206.6710  216.4470  181.6100 C.3   336  LEU336      0.0284
     32  CG       207.4990  217.4740  180.8320 C.3   336  LEU336      0.0019
     33  CD1      208.7200  216.8830  180.1430 C.3   336  LEU336      0.0001
     34  CD2      206.6060  218.1680  179.8230 C.3   336  LEU336      0.0001
     35  N        206.9580  213.6060  180.5790 N.am  337  VAL337     -0.1980
     36  CA       207.7110  212.6260  179.7940 C.3   337  VAL337      0.1595
     37  C        206.7800  211.7450  178.9690 C.2   337  VAL337      0.2287
     38  O        207.0490  211.4740  177.7910 O.2   337  VAL337     -0.2864
     39  CB       208.6380  211.8050  180.7170 C.3   337  VAL337      0.0276
     40  CG1      207.8900  211.2010  181.8550 C.3   337  VAL337      0.0022
     41  CG2      209.2900  210.6860  179.9650 C.3   337  VAL337      0.0022
     42  N        219.9240  210.7520  174.6940 N.3   376  MET376     -0.1245
     43  CA       219.5730  211.6110  175.8230 C.3   376  MET376      0.1570
     44  C        218.5070  210.9670  176.6830 C.2   376  MET376      0.2261
     45  O        218.6270  210.9300  177.9090 O.2   376  MET376     -0.2867
     46  CB       219.0670  212.9700  175.3510 C.3   376  MET376      0.0387
     47  CG       220.0910  213.9040  174.8350 C.3   376  MET376      0.0595
     48  SD       219.3050  215.4380  174.3320 S.3   376  MET376     -0.1393
     49  CE       218.7510  216.0510  175.9130 C.3   376  MET376      0.0692
     50  N        219.1690  209.5490  180.3280 N.3   380  LEU380     -0.1245
     51  CA       218.4110  210.1960  181.3900 C.3   380  LEU380      0.1561
     52  C        217.6130  209.1710  182.1800 C.2   380  LEU380      0.2260
     53  O        217.5070  209.2750  183.4080 O.2   380  LEU380     -0.2867
     54  CB       217.4990  211.2720  180.8050 C.3   380  LEU380      0.0270
     55  CG       216.7410  212.1350  181.8060 C.3   380  LEU380      0.0019
     56  CD1      217.7360  212.8340  182.6850 C.3   380  LEU380      0.0001
     57  CD2      215.8870  213.1570  181.0900 C.3   380  LEU380      0.0001
     58  N        218.1880  208.4860  186.1260 N.3   384  LEU384     -0.1245
     59  CA       217.0990  208.4890  187.0960 C.3   384  LEU384      0.1561
     60  C        216.9090  207.1250  187.7350 C.2   384  LEU384      0.2260
     61  O        216.4770  207.0390  188.8870 O.2   384  LEU384     -0.2867
     62  CB       215.8080  208.9610  186.4340 C.3   384  LEU384      0.0270
     63  CG       215.4670  210.4470  186.5390 C.3   384  LEU384      0.0019
     64  CD1      216.4640  211.3310  185.8610 C.3   384  LEU384      0.0001
     65  CD2      214.1150  210.6710  185.9110 C.3   384  LEU384      0.0001
     66  N        221.2780  214.6330  185.7570 N.3   412  MET412     -0.1230
     67  CA       220.0780  214.7860  184.9350 C.3   412  MET412      0.1702
     68  C        220.0270  216.1100  184.1860 C.2   412  MET412      0.2592
     69  O        219.1220  216.3040  183.3700 O.2   412  MET412     -0.2718
     70  CB       218.8220  214.6590  185.7900 C.3   412  MET412      0.0401
     71  CG       218.6090  215.8210  186.7260 C.3   412  MET412      0.0596
     72  SD       217.1320  215.6090  187.7280 S.3   412  MET412     -0.1393
     73  CE       217.1510  217.1270  188.6730 C.3   412  MET412      0.0692
     74  N        220.9610  217.0210  184.4480 N.am  413  VAL413     -0.1966
     75  CA       221.0230  218.2880  183.7550 C.3   413  VAL413      0.1727
     76  C        222.2050  218.3520  182.7930 C.2   413  VAL413      0.2616
     77  O        222.1010  219.0020  181.7480 O.2   413  VAL413     -0.2715
     78  CB       221.0970  219.4300  184.7890 C.3   413  VAL413      0.0290
     79  CG1      220.8140  220.7710  184.1620 C.3   413  VAL413      0.0023
     80  CG2      220.1750  219.1570  185.9470 C.3   413  VAL413      0.0023
     81  N        223.3100  217.6690  183.0930 N.am  414  VAL414     -0.1977
     82  CA       224.5040  217.7790  182.2700 C.3   414  VAL414      0.1596
     83  C        224.8130  216.5020  181.4830 C.2   414  VAL414      0.2287
     84  O        225.3550  216.5920  180.3750 O.2   414  VAL414     -0.2864
     85  CB       225.7260  218.2290  183.1140 C.3   414  VAL414      0.0276
     86  CG1      226.2360  217.1520  184.0400 C.3   414  VAL414      0.0022
     87  CG2      226.8490  218.7490  182.2390 C.3   414  VAL414      0.0022
     88  N        222.6200  214.2640  179.9650 N.3   416  PRO416     -0.2102
     89  CA       222.0010  214.3270  178.6330 C.3   416  PRO416      0.1504
     90  C        222.7120  215.2370  177.6520 C.2   416  PRO416      0.2576
     91  O        222.7430  214.9100  176.4670 O.2   416  PRO416     -0.2718
     92  CB       220.5800  214.8080  178.9320 C.3   416  PRO416      0.0282
     93  CG       220.2980  214.2320  180.2170 C.3   416  PRO416      0.0208
     94  CD       221.5610  214.3030  180.9920 C.3   416  PRO416      0.0893
     95  N        223.3300  216.3310  178.0920 N.am  417  ALA417     -0.1966
     96  CA       224.0860  217.1500  177.1480 C.3   417  ALA417      0.1728
     97  C        225.3550  216.4390  176.6880 C.2   417  ALA417      0.2616
     98  O        225.6920  216.4650  175.4940 O.2   417  ALA417     -0.2715
     99  CB       224.4170  218.5000  177.7750 C.3   417  ALA417      0.0334
    100  N        226.0470  215.7710  177.6160 N.am  418  ILE418     -0.1977
    101  CA       227.2540  215.0240  177.2770 C.3   418  ILE418      0.1596
    102  C        226.9200  213.8650  176.3530 C.2   418  ILE418      0.2287
    103  O        227.5890  213.6510  175.3340 O.2   418  ILE418     -0.2864
    104  CB       227.9590  214.5390  178.5570 C.3   418  ILE418      0.0276
    105  CG1      228.4930  215.7270  179.3540 C.3   418  ILE418      0.0022
    106  CG2      229.0820  213.5760  178.2370 C.3   418  ILE418      0.0022
    107  CD1      228.9990  215.3580  180.7270 C.3   418  ILE418      0.0001
    108  N        224.3020  213.6430  174.4610 N.3   420  TYR420     -0.1227
    109  CA       223.8480  214.1730  173.1820 C.3   420  TYR420      0.1736
    110  C        225.0280  214.4730  172.2820 C.2   420  TYR420      0.2595
    111  O        225.0020  214.1470  171.0920 O.2   420  TYR420     -0.2718
    112  CB       223.0240  215.4430  173.3800 C.3   420  TYR420      0.0548
    113  CG       222.5080  216.0390  172.0870 C.ar  420  TYR420     -0.0200
    114  CD1      221.4020  215.5060  171.4540 C.ar  420  TYR420     -0.0009
    115  CD2      223.1300  217.1330  171.5010 C.ar  420  TYR420     -0.0009
    116  CE1      220.9300  216.0380  170.2760 C.ar  420  TYR420      0.0417
    117  CE2      222.6680  217.6690  170.3230 C.ar  420  TYR420      0.0417
    118  CZ       221.5690  217.1180  169.7170 C.ar  420  TYR420      0.1957
    119  OH       221.1080  217.6560  168.5440 O.3   420  TYR420     -0.2866
    120  N        226.0580  215.1170  172.8360 N.am  421  PHE421     -0.1962
    121  CA       227.2620  215.4130  172.0680 C.3   421  PHE421      0.1771
    122  C        227.9240  214.1340  171.5760 C.2   421  PHE421      0.2619
    123  O        228.2120  213.9870  170.3780 O.2   421  PHE421     -0.2715
    124  CB       228.2260  216.2180  172.9310 C.3   421  PHE421      0.0574
    125  CG       229.4590  216.6330  172.2200 C.ar  421  PHE421     -0.0200
    126  CD1      229.4380  217.7130  171.3570 C.ar  421  PHE421     -0.0042
    127  CD2      230.6390  215.9400  172.4040 C.ar  421  PHE421     -0.0042
    128  CE1      230.5710  218.1030  170.7000 C.ar  421  PHE421     -0.0003
    129  CE2      231.7670  216.3180  171.7480 C.ar  421  PHE421     -0.0003
    130  CZ       231.7390  217.4080  170.8990 C.ar  421  PHE421     -0.0000
    131  N        228.1210  213.1780  172.4890 N.am  422  VAL422     -0.1977
    132  CA       228.7890  211.9280  172.1510 C.3   422  VAL422      0.1596
    133  C        227.9360  211.1070  171.1970 C.2   422  VAL422      0.2287
    134  O        228.4490  210.5360  170.2360 O.2   422  VAL422     -0.2864
    135  CB       229.1410  211.1570  173.4340 C.3   422  VAL422      0.0276
    136  CG1      229.6870  209.7890  173.1170 C.3   422  VAL422      0.0022
    137  CG2      230.1670  211.9260  174.2230 C.3   422  VAL422      0.0022
    138  N        225.4680  212.2210  169.0050 N.3   424  TYR424     -0.1227
    139  CA       225.3820  212.8500  167.6950 C.3   424  TYR424      0.1736
    140  C        226.6750  212.6770  166.9210 C.2   424  TYR424      0.2595
    141  O        226.6680  212.1630  165.7940 O.2   424  TYR424     -0.2718
    142  CB       225.0240  214.3250  167.8590 C.3   424  TYR424      0.0548
    143  CG       224.9840  215.1210  166.5840 C.ar  424  TYR424     -0.0200
    144  CD1      224.0830  214.8150  165.5930 C.ar  424  TYR424     -0.0009
    145  CD2      225.7840  216.2380  166.4160 C.ar  424  TYR424     -0.0009
    146  CE1      224.0290  215.5440  164.4250 C.ar  424  TYR424      0.0417
    147  CE2      225.7240  216.9920  165.2560 C.ar  424  TYR424      0.0417
    148  CZ       224.8350  216.6400  164.2690 C.ar  424  TYR424      0.1957
    149  OH       224.7730  217.3720  163.1110 O.3   424  TYR424     -0.2866
    150  N        227.8090  213.0220  167.5340 N.am  425  ARG425     -0.1980
    151  CA       229.0480  212.8780  166.7900 C.3   425  ARG425      0.1597
    152  C        229.4680  211.4250  166.6410 C.2   425  ARG425      0.2287
    153  O        230.1600  211.0920  165.6750 O.2   425  ARG425     -0.2864
    154  CB       230.1420  213.7180  167.4310 C.3   425  ARG425      0.0334
    155  CG       229.8590  215.1850  167.2210 C.3   425  ARG425      0.0492
    156  CD       230.9900  216.0600  167.6340 C.3   425  ARG425      0.2205
    157  NE       230.7080  217.4460  167.3060 N.pl3 425  ARG425     -0.0865
    158  CZ       231.5710  218.4360  167.4660 C.cat 425  ARG425      0.5346
    159  NH1      232.7890  218.1980  167.9280 N.pl3 425  ARG425      0.1354
    160  NH2      231.2180  219.6660  167.1410 N.pl3 425  ARG425      0.1354
@<TRIPOS>BOND
     1   149   148    1
     2   148   146   ar
     3   148   147   ar
     4   146   144   ar
     5   147   145   ar
     6   144   143   ar
     7   153   152    2
     8   141   140    2
     9   145   143   ar
    10   143   142    1
    11   152   151    1
    12   151   154    1
    13   151   150    1
    14   140   150   am
    15   140   139    1
    16   160   158    1
    17   155   154    1
    18   155   156    1
    19   157   158    2
    20   157   156    1
    21   158   159    1
    22   139   142    1
    23   139   138    1
    24   119   118    1
    25   118   116   ar
    26   118   117   ar
    27   134   133    2
    28   116   114   ar
    29   117   115   ar
    30   123   122    2
    31   128   130   ar
    32   128   126   ar
    33   130   129   ar
    34   111   110    2
    35   133   132    1
    36   126   125   ar
    37   114   113   ar
    38   115   113   ar
    39   122   121    1
    40   122   131   am
    41   129   127   ar
    42   121   120    1
    43   121   124    1
    44   113   112    1
    45   132   131    1
    46   132   135    1
    47   125   127   ar
    48   125   124    1
    49   110   120   am
    50   110   109    1
    51   136   135    1
    52   109   112    1
    53   109   108    1
    54   135   137    1
    55    48    47    1
    56    48    49    1
    57    42    43    1
    58    47    46    1
    59   103   102    2
    60    46    43    1
    61    98    97    2
    62    43    44    1
    63   102   101    1
    64    91    90    2
    65    44    45    2
    66    97    96    1
    67    97   100   am
    68    96    99    1
    69    96    95    1
    70   101   100    1
    71   101   104    1
    72    90    95   am
    73    90    89    1
    74    38    37    2
    75   106   104    1
    76   104   105    1
    77    89    92    1
    78    89    88    1
    79    30    29    2
    80    92    93    1
    81    37    36    1
    82   105   107    1
    83    36    35    1
    84    36    39    1
    85    34    32    1
    86    41    39    1
    87    88    94    1
    88    29    35   am
    89    29    28    1
    90    33    32    1
    91    93    94    1
    92    50    51    1
    93    84    83    2
    94    39    40    1
    95    54    51    1
    96    54    55    1
    97    32    31    1
    98    28    31    1
    99    28    27    1
   100    57    55    1
   101    51    52    1
   102    83    82    1
   103    77    76    2
   104    55    56    1
   105    52    53    2
   106    87    85    1
   107    82    81    1
   108    82    85    1
   109    76    81   am
   110    76    75    1
   111    85    86    1
   112    69    68    2
   113    26    25    2
   114    75    74    1
   115    75    78    1
   116    79    78    1
   117    68    74   am
   118    68    67    1
   119    25    24    1
   120    78    80    1
   121    67    66    1
   122    67    70    1
   123    24    23    1
   124    70    71    1
   125    64    63    1
   126    65    63    1
   127    58    59    1
   128    62    63    1
   129    62    59    1
   130    71    72    1
   131    59    60    1
   132     8     6    1
   133     7     6    1
   134    72    73    1
   135    60    61    2
   136    21    22   ar
   137    21    19   ar
   138    22    20   ar
   139     6     5    1
   140     5     2    1
   141    19    16   ar
   142    20    18   ar
   143     2     1    1
   144     2     3    1
   145    16    18   ar
   146    16    14   ar
   147    18    17   ar
   148     3     4    2
   149    17    15   ar
   150    14    13    1
   151    14    15   ar
   152    13    10    1
   153    10     9    1
   154    10    11    1
   155    11    12    2
