@<TRIPOS>MOLECULE
tmp/6adqD02.pdb
 98 98 0 0 0
SMALL
GASTEIGER

@<TRIPOS>ATOM
      1  N        143.0590  183.7840  170.4740 N.3    91  TRP91      -0.1241
      2  CA       142.9700  184.7240  171.5810 C.3    91  TRP91       0.1605
      3  C        142.0060  184.3450  172.7110 C.2    91  TRP91       0.2264
      4  O        142.3630  184.6140  173.8610 O.2    91  TRP91      -0.2867
      5  CB       142.6590  186.1240  171.0550 C.3    91  TRP91       0.0550
      6  CG       143.8100  186.6860  170.3070 C.ar   91  TRP91       0.0003
      7  CD1      143.9330  186.7970  168.9610 C.ar   91  TRP91       0.0946
      8  CD2      145.0420  187.1500  170.8610 C.ar   91  TRP91       0.0152
      9  NE1      145.1500  187.3370  168.6380 N.ar   91  TRP91      -0.2442
     10  CE2      145.8510  187.5590  169.7910 C.ar   91  TRP91       0.0810
     11  CE3      145.5300  187.2780  172.1610 C.ar   91  TRP91       0.0012
     12  CZ2      147.1180  188.0810  169.9770 C.ar   91  TRP91       0.0191
     13  CZ3      146.7860  187.7950  172.3440 C.ar   91  TRP91       0.0001
     14  CH2      147.5660  188.1920  171.2590 C.ar   91  TRP91       0.0015
     15  N        146.9440  192.3850  184.1040 N.3   119  ALA119     -0.1245
     16  CA       147.7900  192.8190  182.9930 C.3   119  ALA119      0.1562
     17  C        147.7110  191.8500  181.8180 C.2   119  ALA119      0.2260
     18  O        147.6720  192.2760  180.6560 O.2   119  ALA119     -0.2867
     19  CB       149.2330  192.9810  183.4600 C.3   119  ALA119      0.0290
     20  N        144.3650  192.5270  180.0920 N.3   122  ILE122     -0.1231
     21  CA       144.4380  193.6890  179.2060 C.3   122  ILE122      0.1692
     22  C        145.1930  193.3460  177.9290 C.2   122  ILE122      0.2592
     23  O        144.7470  193.6800  176.8240 O.2   122  ILE122     -0.2718
     24  CB       145.0750  194.8880  179.9310 C.3   122  ILE122      0.0266
     25  CG1      144.2710  195.2640  181.1700 C.3   122  ILE122      0.0019
     26  CG2      145.1720  196.0790  179.0160 C.3   122  ILE122      0.0020
     27  CD1      142.8330  195.5490  180.9100 C.3   122  ILE122      0.0001
     28  N        146.2960  192.6010  178.0540 N.am  123  THR123     -0.1953
     29  CA       147.0950  192.2410  176.8850 C.3   123  THR123      0.1897
     30  C        146.3390  191.3040  175.9480 C.2   123  THR123      0.2313
     31  O        146.2810  191.5400  174.7350 O.2   123  THR123     -0.2863
     32  CB       148.4050  191.6050  177.3310 C.3   123  THR123      0.1794
     33  OG1      149.1220  192.5320  178.1530 O.3   123  THR123     -0.2208
     34  CG2      149.2530  191.2550  176.1290 C.3   123  THR123      0.0378
     35  N        143.3390  193.0510  174.3010 N.3   126  CYS126     -0.1221
     36  CA       143.8600  193.8020  173.1640 C.3   126  CYS126      0.1808
     37  C        144.1680  192.8880  171.9880 C.2   126  CYS126      0.2601
     38  O        143.8160  193.2000  170.8480 O.2   126  CYS126     -0.2717
     39  CB       145.1040  194.5860  173.5700 C.3   126  CYS126      0.0970
     40  SG       144.7780  196.0160  174.6100 S.3   126  CYS126     -0.0800
     41  N        144.7720  191.7320  172.2510 N.am  127  GLY127     -0.1957
     42  CA       145.0730  190.8050  171.1710 C.3   127  GLY127      0.1869
     43  C        143.8390  190.2370  170.4970 C.2   127  GLY127      0.2309
     44  O        143.8660  189.9210  169.3070 O.2   127  GLY127     -0.2863
     45  N        142.0890  193.6520  168.5790 N.3   130  PHE130     -0.1241
     46  CA       142.8300  194.2290  167.4730 C.3   130  PHE130      0.1605
     47  C        143.1200  193.2200  166.3860 C.2   130  PHE130      0.2264
     48  O        143.7440  193.5910  165.3890 O.2   130  PHE130     -0.2867
     49  CB       144.1650  194.8310  167.9170 C.3   130  PHE130      0.0534
     50  CG       144.0490  195.9690  168.8760 C.ar  130  PHE130     -0.0203
     51  CD1      143.3200  197.0910  168.5480 C.ar  130  PHE130     -0.0042
     52  CD2      144.8050  195.9840  170.0340 C.ar  130  PHE130     -0.0042
     53  CE1      143.2470  198.1460  169.4180 C.ar  130  PHE130     -0.0003
     54  CE2      144.7370  197.0330  170.9060 C.ar  130  PHE130     -0.0003
     55  CZ       143.9700  198.1210  170.5960 C.ar  130  PHE130     -0.0000
     56  N        145.0410  194.8450  162.8240 N.3   134  TRP134     -0.1227
     57  CA       146.4620  195.1070  162.6500 C.3   134  TRP134      0.1737
     58  C        146.7860  195.2030  161.1720 C.2   134  TRP134      0.2596
     59  O        146.6090  194.2340  160.4300 O.2   134  TRP134     -0.2718
     60  CB       147.3140  194.0080  163.2750 C.3   134  TRP134      0.0564
     61  CG       147.3280  193.9720  164.7480 C.ar  134  TRP134      0.0003
     62  CD1      146.7310  193.0540  165.5460 C.ar  134  TRP134      0.0946
     63  CD2      147.9720  194.9030  165.6150 C.ar  134  TRP134      0.0152
     64  NE1      146.9640  193.3500  166.8610 N.ar  134  TRP134     -0.2442
     65  CE2      147.7260  194.4840  166.9290 C.ar  134  TRP134      0.0810
     66  CE3      148.7350  196.0510  165.4050 C.ar  134  TRP134      0.0012
     67  CZ2      148.2140  195.1700  168.0290 C.ar  134  TRP134      0.0191
     68  CZ3      149.2200  196.7270  166.4950 C.ar  134  TRP134      0.0001
     69  CH2      148.9570  196.2890  167.7910 C.ar  134  TRP134      0.0015
     70  N        147.2970  196.3500  160.7470 N.am  135  GLY135     -0.1943
     71  CA       147.7460  196.5060  159.3860 C.3   135  GLY135      0.1998
     72  C        149.0050  195.7090  159.1170 C.2   135  GLY135      0.2481
     73  O        149.6090  195.1280  160.0250 O.2   135  GLY135     -0.2729
     74  N        149.4170  195.6500  157.8580 N.am  136  PRO136     -0.2715
     75  CA       150.6590  194.9540  157.5240 C.3   136  PRO136      0.1536
     76  C        151.8570  195.7120  158.0670 C.2   136  PRO136      0.2598
     77  O        151.7920  196.9090  158.3500 O.2   136  PRO136     -0.2715
     78  CB       150.6600  194.9410  155.9950 C.3   136  PRO136      0.0310
     79  CG       149.2390  195.1680  155.6130 C.3   136  PRO136      0.0237
     80  CD       148.6900  196.0770  156.6550 C.3   136  PRO136      0.0939
     81  N        152.9560  194.9850  158.2320 N.am  137  GLU137     -0.1964
     82  CA       154.1620  195.5690  158.8010 C.3   137  GLU137      0.1733
     83  C        154.7840  196.5560  157.8260 C.2   137  GLU137      0.2616
     84  O        155.0970  196.2060  156.6840 O.2   137  GLU137     -0.2715
     85  CB       155.1540  194.4760  159.1710 C.3   137  GLU137      0.0429
     86  CG       154.7100  193.6850  160.3650 C.3   137  GLU137      0.1163
     87  CD       155.6950  192.6260  160.7560 C.2   137  GLU137      0.3649
     88  OE1      156.6430  192.3790  159.9830 O.co2 137  GLU137     -0.2457
     89  OE2      155.5310  192.0560  161.8530 O.co2 137  GLU137     -0.2457
     90  N        154.9640  197.7910  158.2850 N.am  138  LYS138     -0.1977
     91  CA       155.3930  198.8730  157.4160 C.3   138  LYS138      0.1596
     92  C        156.8800  198.8320  157.0970 C.2   138  LYS138      0.2287
     93  O        157.3110  199.5750  156.2080 O.2   138  LYS138     -0.2864
     94  CB       155.0340  200.2150  158.0520 C.3   138  LYS138      0.0298
     95  CG       153.5370  200.4620  158.1510 C.3   138  LYS138      0.0038
     96  CD       153.2260  201.8450  158.7000 C.3   138  LYS138      0.0206
     97  CE       152.9300  201.8060  160.1920 C.3   138  LYS138      0.1093
     98  NZ       154.1510  201.6220  161.0230 N.3   138  LYS138     -0.1314
@<TRIPOS>BOND
     1    79    78    1
     2    79    80    1
     3    78    75    1
     4    93    92    2
     5    80    74    1
     6    84    83    2
     7    92    91    1
     8    91    94    1
     9    91    90    1
    10    75    74    1
    11    75    76    1
    12    83    90   am
    13    83    82    1
    14    74    72   am
    15    94    95    1
    16    76    81   am
    17    76    77    2
    18    95    96    1
    19    81    82    1
    20    96    97    1
    21    82    85    1
    22    72    71    1
    23    72    73    2
    24    85    86    1
    25    71    70    1
    26    88    87   ar
    27    97    98    1
    28    86    87    1
    29    59    58    2
    30    70    58   am
    31    87    89   ar
    32    58    57    1
    33    57    56    1
    34    57    60    1
    35    60    61    1
    36    61    62   ar
    37    61    63   ar
    38    48    47    2
    39    66    63   ar
    40    66    68   ar
    41    62    64   ar
    42    63    65   ar
    43    47    46    1
    44    68    69   ar
    45    64    65   ar
    46    65    67   ar
    47    46    49    1
    48    46    45    1
    49    69    67   ar
    50    49    50    1
    51    51    50   ar
    52    51    53   ar
    53     9     7   ar
    54     9    10   ar
    55    50    52   ar
    56     7     6   ar
    57    44    43    2
    58    53    55   ar
    59    10    12   ar
    60    10     8   ar
    61    12    14   ar
    62    52    54   ar
    63     6     8   ar
    64     6     5    1
    65     1     2    1
    66    43    42    1
    67    55    54   ar
    68    38    37    2
    69     8    11   ar
    70     5     2    1
    71    42    41    1
    72    14    13   ar
    73     2     3    1
    74    37    41   am
    75    37    36    1
    76    11    13   ar
    77     3     4    2
    78    36    39    1
    79    36    35    1
    80    39    40    1
    81    31    30    2
    82    30    29    1
    83    34    32    1
    84    23    22    2
    85    29    32    1
    86    29    28    1
    87    32    33    1
    88    22    28   am
    89    22    21    1
    90    26    24    1
    91    21    24    1
    92    21    20    1
    93    24    25    1
    94    18    17    2
    95    27    25    1
    96    17    16    1
    97    16    19    1
    98    16    15    1
