@<TRIPOS>MOLECULE
tmp/6adqV09.pdb
 95 89 0 0 0
SMALL
GASTEIGER

@<TRIPOS>ATOM
      1  N        220.1110  207.4580  184.3100 N.3   383  LEU383     -0.1245
      2  CA       220.5140  208.2950  185.4250 C.3   383  LEU383      0.1561
      3  C        219.4500  208.2970  186.5130 C.2   383  LEU383      0.2260
      4  O        219.7690  208.1700  187.6990 O.2   383  LEU383     -0.2867
      5  CB       220.8030  209.7050  184.9130 C.3   383  LEU383      0.0270
      6  CG       221.4910  210.7500  185.7850 C.3   383  LEU383      0.0019
      7  CD1      220.5300  211.4890  186.6730 C.3   383  LEU383      0.0001
      8  CD2      222.5550  210.0810  186.6170 C.3   383  LEU383      0.0001
      9  N        219.6930  204.8230  187.9650 N.3   386  PHE386     -0.1227
     10  CA       220.9480  204.6560  188.6990 C.3   386  PHE386      0.1736
     11  C        221.1710  205.6910  189.7820 C.2   386  PHE386      0.2595
     12  O        222.2420  205.6910  190.3890 O.2   386  PHE386     -0.2718
     13  CB       222.1550  204.6700  187.7600 C.3   386  PHE386      0.0547
     14  CG       222.3700  203.3850  187.0260 C.ar  386  PHE386     -0.0202
     15  CD1      221.6430  202.2540  187.3540 C.ar  386  PHE386     -0.0042
     16  CD2      223.3350  203.2930  186.0390 C.ar  386  PHE386     -0.0042
     17  CE1      221.8420  201.0690  186.6880 C.ar  386  PHE386     -0.0003
     18  CE2      223.5470  202.1020  185.3730 C.ar  386  PHE386     -0.0003
     19  CZ       222.7970  200.9900  185.6970 C.ar  386  PHE386     -0.0000
     20  N        220.2240  206.5860  190.0260 N.am  387  ALA387     -0.1980
     21  CA       220.2140  207.3630  191.2530 C.3   387  ALA387      0.1597
     22  C        218.9020  207.1680  191.9990 C.2   387  ALA387      0.2287
     23  O        218.5160  208.0210  192.7990 O.2   387  ALA387     -0.2864
     24  CB       220.4770  208.8350  190.9570 C.3   387  ALA387      0.0319
     25  N        218.4930  203.6140  193.0140 N.3   389  MET389     -0.1245
     26  CA       219.2370  202.7780  193.9460 C.3   389  MET389      0.1570
     27  C        220.4440  203.5180  194.5240 C.2   389  MET389      0.2261
     28  O        221.4200  202.8950  194.9580 O.2   389  MET389     -0.2867
     29  CB       219.6210  201.4390  193.3070 C.3   389  MET389      0.0387
     30  CG       220.6750  201.4110  192.2400 C.3   389  MET389      0.0595
     31  SD       220.0640  201.7420  190.6120 S.3   389  MET389     -0.1393
     32  CE       219.2140  200.2200  190.2940 C.3   389  MET389      0.0692
     33  N        221.4640  202.0120  197.8660 N.3   392  ILE392     -0.1231
     34  CA       222.3270  200.8410  197.9090 C.3   392  ILE392      0.1692
     35  C        223.5870  201.0150  197.0660 C.2   392  ILE392      0.2591
     36  O        224.5720  200.3020  197.3020 O.2   392  ILE392     -0.2718
     37  CB       221.5090  199.5910  197.5480 C.3   392  ILE392      0.0266
     38  CG1      220.9360  199.6520  196.1410 C.3   392  ILE392      0.0019
     39  CG2      220.3310  199.4710  198.4870 C.3   392  ILE392      0.0020
     40  CD1      221.7490  198.9520  195.0640 C.3   392  ILE392      0.0001
     41  N        223.5930  201.9400  196.0980 N.am  393  ILE393     -0.1980
     42  CA       224.8510  202.3050  195.4500 C.3   393  ILE393      0.1595
     43  C        225.7940  202.9390  196.4560 C.2   393  ILE393      0.2287
     44  O        226.9270  202.4820  196.6190 O.2   393  ILE393     -0.2864
     45  CB       224.6260  203.2220  194.2350 C.3   393  ILE393      0.0276
     46  CG1      224.1250  202.4110  193.0510 C.3   393  ILE393      0.0022
     47  CG2      225.9030  203.9220  193.8450 C.3   393  ILE393      0.0022
     48  CD1      223.8470  203.2340  191.8340 C.3   393  ILE393      0.0001
     49  N        227.0900  200.0830  198.8230 N.3   396  LYS396     -0.1231
     50  CA       228.0900  199.1130  198.3890 C.3   396  LYS396      0.1693
     51  C        229.2970  199.8060  197.7740 C.2   396  LYS396      0.2592
     52  O        230.4130  199.7120  198.2920 O.2   396  LYS396     -0.2718
     53  CB       227.4630  198.1290  197.3980 C.3   396  LYS396      0.0285
     54  CG       226.3400  197.2440  197.9520 C.3   396  LYS396      0.0035
     55  CD       226.8510  196.0260  198.7310 C.3   396  LYS396      0.0206
     56  CE       226.8330  196.2140  200.2430 C.3   396  LYS396      0.1093
     57  NZ       227.2150  194.9720  200.9710 N.3   396  LYS396     -0.1314
     58  N        229.0850  200.5130  196.6740 N.am  397  PHE397     -0.1976
     59  CA       230.1060  201.3750  196.0930 C.3   397  PHE397      0.1639
     60  C        230.2500  202.5730  197.0130 C.2   397  PHE397      0.2290
     61  O        229.4620  203.5120  196.9240 O.2   397  PHE397     -0.2864
     62  CB       229.6860  201.8160  194.6970 C.3   397  PHE397      0.0560
     63  CG       229.5190  200.6890  193.7230 C.ar  397  PHE397     -0.0200
     64  CD1      230.6070  200.1820  193.0430 C.ar  397  PHE397     -0.0042
     65  CD2      228.2720  200.1400  193.4850 C.ar  397  PHE397     -0.0042
     66  CE1      230.4610  199.1490  192.1480 C.ar  397  PHE397     -0.0003
     67  CE2      228.1190  199.1040  192.5900 C.ar  397  PHE397     -0.0003
     68  CZ       229.2170  198.6090  191.9220 C.ar  397  PHE397     -0.0000
     69  N        230.2780  205.5750  198.5550 N.3   399  ILE399     -0.1245
     70  CA       230.1240  206.9630  198.1420 C.3   399  ILE399      0.1561
     71  C        229.2500  207.6030  199.2110 C.2   399  ILE399      0.2260
     72  O        228.4240  206.9230  199.8250 O.2   399  ILE399     -0.2867
     73  CB       229.4780  207.0710  196.7310 C.3   399  ILE399      0.0252
     74  CG1      230.3470  206.4060  195.6720 C.3   399  ILE399      0.0019
     75  CG2      229.2590  208.5010  196.2780 C.3   399  ILE399      0.0019
     76  CD1      229.6800  206.3110  194.3340 C.3   399  ILE399      0.0001
     77  N        226.1850  211.0460  195.9510 N.3   404  THR404     -0.1218
     78  CA       225.6100  210.3910  194.7830 C.3   404  THR404      0.1862
     79  C        224.2310  210.9250  194.4220 C.2   404  THR404      0.2287
     80  O        223.8790  210.9290  193.2370 O.2   404  THR404     -0.2866
     81  CB       225.5730  208.8750  194.9680 C.3   404  THR404      0.1770
     82  OG1      224.7980  208.2810  193.9220 O.3   404  THR404     -0.2211
     83  CG2      225.0280  208.4980  196.2870 C.3   404  THR404      0.0375
     84  N        225.2800  213.8640  192.5010 N.3   407  ILE407     -0.1231
     85  CA       225.7490  213.3760  191.2080 C.3   407  ILE407      0.1692
     86  C        224.5700  213.1330  190.2880 C.2   407  ILE407      0.2592
     87  O        224.5890  213.5370  189.1280 O.2   407  ILE407     -0.2718
     88  CB       226.6090  212.1070  191.3760 C.3   407  ILE407      0.0266
     89  CG1      228.0000  212.4370  191.9070 C.3   407  ILE407      0.0019
     90  CG2      226.7610  211.3660  190.0770 C.3   407  ILE407      0.0020
     91  CD1      228.7790  211.2120  192.3170 C.3   407  ILE407      0.0001
     92  N        223.4990  212.5400  190.8100 N.am  408  GLY408     -0.1957
     93  CA       222.2820  212.4250  190.0230 C.3   408  GLY408      0.1869
     94  C        221.6280  213.7650  189.7340 C.2   408  GLY408      0.2309
     95  O        221.1420  214.0020  188.6240 O.2   408  GLY408     -0.2863
@<TRIPOS>BOND
     1     1     2    1
     2     5     2    1
     3     5     6    1
     4    18    19   ar
     5    18    16   ar
     6     2     3    1
     7    19    17   ar
     8     6     8    1
     9     6     7    1
    10    16    14   ar
    11     3     4    2
    12    17    15   ar
    13    14    15   ar
    14    14    13    1
    15    13    10    1
    16     9    10    1
    17    95    94    2
    18    10    11    1
    19    87    86    2
    20    94    93    1
    21    11    20   am
    22    11    12    2
    23    93    92    1
    24    20    21    1
    25    90    88    1
    26    86    92   am
    27    86    85    1
    28    32    31    1
    29    31    30    1
    30    24    21    1
    31    85    88    1
    32    85    84    1
    33    21    22    1
    34    88    89    1
    35    48    46    1
    36    89    91    1
    37    68    66   ar
    38    68    67   ar
    39    22    23    2
    40    66    64   ar
    41    30    29    1
    42    67    65   ar
    43    25    26    1
    44    64    63   ar
    45    46    45    1
    46    80    79    2
    47    29    26    1
    48    65    63   ar
    49    63    62    1
    50    47    45    1
    51    82    81    1
    52    26    27    1
    53    45    42    1
    54    76    74    1
    55    79    78    1
    56    27    28    2
    57    62    59    1
    58    78    81    1
    59    78    77    1
    60    81    83    1
    61    40    38    1
    62    42    41    1
    63    42    43    1
    64    74    73    1
    65    59    58    1
    66    59    60    1
    67    41    35   am
    68    38    37    1
    69    75    73    1
    70    43    44    2
    71    58    51   am
    72    73    70    1
    73    61    60    2
    74    35    36    2
    75    35    34    1
    76    53    54    1
    77    53    50    1
    78    37    34    1
    79    37    39    1
    80    51    52    2
    81    51    50    1
    82    33    34    1
    83    54    55    1
    84    70    69    1
    85    70    71    1
    86    50    49    1
    87    55    56    1
    88    71    72    2
    89    56    57    1
