@<TRIPOS>MOLECULE
tmp/6adqD03.pdb
 99 98 0 0 0
SMALL
GASTEIGER

@<TRIPOS>ATOM
      1  N        139.2500  181.3000  162.5240 N.3    88  HIS88      -0.1241
      2  CA       140.1730  180.7710  163.5250 C.3    88  HIS88       0.1621
      3  C        140.8850  181.8570  164.3310 C.2    88  HIS88       0.2264
      4  O        141.3710  182.8450  163.7780 O.2    88  HIS88      -0.2867
      5  CB       141.2010  179.8970  162.8040 C.3    88  HIS88       0.0745
      6  CG       142.0150  180.6480  161.8020 C.ar   88  HIS88       0.0817
      7  ND1      143.1380  181.3640  162.1530 N.ar   88  HIS88      -0.2268
      8  CD2      141.8500  180.8300  160.4720 C.ar   88  HIS88       0.1154
      9  CE1      143.6370  181.9460  161.0800 C.ar   88  HIS88       0.1986
     10  NE2      142.8780  181.6340  160.0450 N.ar   88  HIS88      -0.2212
     11  N        143.1530  182.2750  168.2270 N.3    90  TRP90      -0.1227
     12  CA       143.7560  181.7150  169.4260 C.3    90  TRP90       0.1737
     13  C        143.8240  182.7220  170.5560 C.2    90  TRP90       0.2595
     14  O        144.6340  182.5660  171.4710 O.2    90  TRP90      -0.2718
     15  CB       145.1560  181.1970  169.1150 C.3    90  TRP90       0.0564
     16  CG       146.0590  182.2620  168.6210 C.ar   90  TRP90       0.0003
     17  CD1      146.9080  183.0330  169.3570 C.ar   90  TRP90       0.0946
     18  CD2      146.1780  182.7100  167.2750 C.ar   90  TRP90       0.0152
     19  NE1      147.5600  183.9230  168.5490 N.ar   90  TRP90      -0.2442
     20  CE2      147.1270  183.7450  167.2630 C.ar   90  TRP90       0.0810
     21  CE3      145.5760  182.3310  166.0720 C.ar   90  TRP90       0.0012
     22  CZ2      147.4880  184.4050  166.0990 C.ar   90  TRP90       0.0191
     23  CZ3      145.9350  182.9880  164.9180 C.ar   90  TRP90       0.0001
     24  CH2      146.8820  184.0140  164.9370 C.ar   90  TRP90       0.0015
     25  N        143.0590  183.7840  170.4740 N.am   91  TRP91      -0.1976
     26  CA       142.9700  184.7240  171.5810 C.3    91  TRP91       0.1640
     27  C        142.0060  184.3450  172.7110 C.2    91  TRP91       0.2290
     28  O        142.3630  184.6140  173.8610 O.2    91  TRP91      -0.2864
     29  CB       142.6590  186.1240  171.0550 C.3    91  TRP91       0.0576
     30  CG       143.8100  186.6860  170.3070 C.ar   91  TRP91       0.0006
     31  CD1      143.9330  186.7970  168.9610 C.ar   91  TRP91       0.0946
     32  CD2      145.0420  187.1500  170.8610 C.ar   91  TRP91       0.0152
     33  NE1      145.1500  187.3370  168.6380 N.ar   91  TRP91      -0.2442
     34  CE2      145.8510  187.5590  169.7910 C.ar   91  TRP91       0.0810
     35  CE3      145.5300  187.2780  172.1610 C.ar   91  TRP91       0.0012
     36  CZ2      147.1180  188.0810  169.9770 C.ar   91  TRP91       0.0191
     37  CZ3      146.7860  187.7950  172.3440 C.ar   91  TRP91       0.0001
     38  CH2      147.5660  188.1920  171.2590 C.ar   91  TRP91       0.0015
     39  N        141.3690  181.4490  174.1570 N.3    93  ILE93      -0.1231
     40  CA       142.1290  180.6030  175.0770 C.3    93  ILE93       0.1692
     41  C        143.0890  181.4380  175.9200 C.2    93  ILE93       0.2591
     42  O        143.2690  181.1780  177.1180 O.2    93  ILE93      -0.2718
     43  CB       142.8410  179.4860  174.2830 C.3    93  ILE93       0.0266
     44  CG1      143.7850  178.6650  175.1520 C.3    93  ILE93       0.0019
     45  CG2      143.5730  180.0230  173.1130 C.3    93  ILE93       0.0020
     46  CD1      143.1090  177.7910  176.1110 C.3    93  ILE93       0.0001
     47  N        143.6380  182.5100  175.3480 N.am   94  LEU94      -0.1980
     48  CA       144.4850  183.4000  176.1270 C.3    94  LEU94       0.1596
     49  C        143.6730  184.3170  177.0330 C.2    94  LEU94       0.2287
     50  O        144.1510  184.6640  178.1170 O.2    94  LEU94      -0.2864
     51  CB       145.3770  184.2180  175.1980 C.3    94  LEU94       0.0297
     52  CG       146.3460  183.3670  174.3830 C.3    94  LEU94       0.0022
     53  CD1      147.1630  184.2270  173.4450 C.3    94  LEU94       0.0001
     54  CD2      147.2400  182.5650  175.2950 C.3    94  LEU94       0.0001
     55  N        143.0140  181.9580  179.9750 N.3    97  LEU97      -0.1231
     56  CA       144.2010  181.7940  180.8090 C.3    97  LEU97       0.1693
     57  C        144.5060  183.0550  181.6040 C.2    97  LEU97       0.2592
     58  O        144.8630  182.9730  182.7820 O.2    97  LEU97      -0.2718
     59  CB       145.4010  181.3960  179.9590 C.3    97  LEU97       0.0284
     60  CG       145.4090  179.9450  179.5050 C.3    97  LEU97       0.0019
     61  CD1      146.5040  179.7120  178.4970 C.3    97  LEU97       0.0001
     62  CD2      145.6500  179.0990  180.7190 C.3    97  LEU97       0.0001
     63  N        144.3030  184.2280  181.0020 N.am   98  SER98      -0.1952
     64  CA       144.5430  185.4850  181.7000 C.3    98  SER98       0.1924
     65  C        143.5460  185.6970  182.8300 C.2    98  SER98       0.2314
     66  O        143.9240  186.0550  183.9540 O.2    98  SER98      -0.2863
     67  CB       144.4580  186.6300  180.7040 C.3    98  SER98       0.2116
     68  OG       145.4610  186.5250  179.7130 O.3    98  SER98      -0.2180
     69  N        144.2800  183.2330  185.6390 N.3   101  THR101     -0.1218
     70  CA       145.3840  183.6870  186.4840 C.3   101  THR101      0.1862
     71  C        144.9420  184.8020  187.4180 C.2   101  THR101      0.2287
     72  O        145.3030  184.8050  188.6020 O.2   101  THR101     -0.2866
     73  CB       146.5650  184.1620  185.6430 C.3   101  THR101      0.1770
     74  OG1      146.1160  185.1210  184.6800 O.3   101  THR101     -0.2211
     75  CG2      147.2610  183.0100  184.9600 C.3   101  THR101      0.0375
     76  N        147.6340  190.5460  182.0960 N.3   120  PHE120     -0.1241
     77  CA       147.4460  189.5920  181.0100 C.3   120  PHE120      0.1605
     78  C        146.0510  189.6840  180.4110 C.2   120  PHE120      0.2264
     79  O        145.8800  189.4050  179.2220 O.2   120  PHE120     -0.2867
     80  CB       147.6940  188.1520  181.4590 C.3   120  PHE120      0.0534
     81  CG       149.1200  187.8310  181.7480 C.ar  120  PHE120     -0.0203
     82  CD1      150.0810  188.0200  180.7790 C.ar  120  PHE120     -0.0042
     83  CD2      149.4740  187.1890  182.9200 C.ar  120  PHE120     -0.0042
     84  CE1      151.3930  187.6960  181.0230 C.ar  120  PHE120     -0.0003
     85  CE2      150.7850  186.8510  183.1680 C.ar  120  PHE120     -0.0003
     86  CZ       151.7450  187.1010  182.2170 C.ar  120  PHE120     -0.0000
     87  N        146.2960  192.6010  178.0540 N.3   123  THR123     -0.1203
     88  CA       147.0950  192.2410  176.8850 C.3   123  THR123      0.1994
     89  C        146.3390  191.3040  175.9480 C.2   123  THR123      0.2618
     90  O        146.2810  191.5400  174.7350 O.2   123  THR123     -0.2717
     91  CB       148.4050  191.6050  177.3310 C.3   123  THR123      0.1784
     92  OG1      149.1220  192.5320  178.1530 O.3   123  THR123     -0.2211
     93  CG2      149.2530  191.2550  176.1290 C.3   123  THR123      0.0376
     94  N        145.7110  190.2620  176.4910 N.am  124  SER124     -0.1951
     95  CA       144.9960  189.3150  175.6480 C.3   124  SER124      0.1924
     96  C        143.7010  189.8970  175.1000 C.2   124  SER124      0.2314
     97  O        143.2940  189.5360  173.9940 O.2   124  SER124     -0.2863
     98  CB       144.7100  188.0390  176.4250 C.3   124  SER124      0.2116
     99  OG       143.8390  188.3070  177.5040 O.3   124  SER124     -0.2180
@<TRIPOS>BOND
     1    10     8   ar
     2    10     9   ar
     3     8     6   ar
     4     9     7   ar
     5     6     7   ar
     6     6     5    1
     7     1     2    1
     8     5     2    1
     9     2     3    1
    10     4     3    2
    11    23    24   ar
    12    23    21   ar
    13    24    22   ar
    14    21    18   ar
    15    22    20   ar
    16    20    18   ar
    17    20    19   ar
    18    18    16   ar
    19    11    12    1
    20    19    17   ar
    21    16    15    1
    22    16    17   ar
    23    33    31   ar
    24    33    34   ar
    25    31    30   ar
    26    15    12    1
    27    12    13    1
    28    34    36   ar
    29    34    32   ar
    30    36    38   ar
    31    30    32   ar
    32    30    29    1
    33    25    13   am
    34    25    26    1
    35    13    14    2
    36    32    35   ar
    37    29    26    1
    38    38    37   ar
    39    26    27    1
    40    35    37   ar
    41    27    28    2
    42    45    43    1
    43    53    52    1
    44    97    96    2
    45    39    40    1
    46    43    40    1
    47    43    44    1
    48    52    51    1
    49    52    54    1
    50    90    89    2
    51    40    41    1
    52    96    95    1
    53    44    46    1
    54    51    48    1
    55    47    41   am
    56    47    48    1
    57    95    98    1
    58    95    94    1
    59    41    42    2
    60    89    94   am
    61    89    88    1
    62    48    49    1
    63    93    91    1
    64    98    99    1
    65    88    91    1
    66    88    87    1
    67    49    50    2
    68    91    92    1
    69    61    60    1
    70    79    78    2
    71    60    59    1
    72    60    62    1
    73    68    67    1
    74    59    56    1
    75    55    56    1
    76    78    77    1
    77    67    64    1
    78    82    84   ar
    79    82    81   ar
    80    56    57    1
    81    63    57   am
    82    63    64    1
    83    77    80    1
    84    77    76    1
    85    84    86   ar
    86    80    81    1
    87    57    58    2
    88    64    65    1
    89    81    83   ar
    90    86    85   ar
    91    65    66    2
    92    83    85   ar
    93    74    73    1
    94    75    73    1
    95    69    70    1
    96    73    70    1
    97    70    71    1
    98    71    72    2
