@<TRIPOS>MOLECULE
tmp/6adqV19.pdb
 126 117 0 0 0
SMALL
GASTEIGER

@<TRIPOS>ATOM
      1  N        205.1820  207.9070  159.2800 N.3   132  ARG132     -0.1245
      2  CA       203.8310  208.0930  158.7130 C.3   132  ARG132      0.1563
      3  C        202.8760  206.8980  158.6990 C.2   132  ARG132      0.2260
      4  O        201.7160  207.0910  159.0850 O.2   132  ARG132     -0.2867
      5  CB       203.9370  208.7050  157.3060 C.3   132  ARG132      0.0307
      6  CG       202.5770  208.8950  156.6120 C.3   132  ARG132      0.0489
      7  CD       202.6350  209.7800  155.3920 C.3   132  ARG132      0.2205
      8  NE       202.7890  211.1750  155.7850 N.pl3 132  ARG132     -0.0865
      9  CZ       201.7700  211.9700  156.0990 C.cat 132  ARG132      0.5346
     10  NH1      200.5330  211.5040  156.0590 N.pl3 132  ARG132      0.1354
     11  NH2      201.9840  213.2280  156.4470 N.pl3 132  ARG132      0.1354
     12  N        202.3430  205.8150  163.2370 N.3   135  GLU135     -0.1231
     13  CA       202.3950  206.6100  164.4610 C.3   135  GLU135      0.1699
     14  C        201.2910  206.2360  165.4350 C.2   135  GLU135      0.2592
     15  O        201.4830  206.3660  166.6480 O.2   135  GLU135     -0.2718
     16  CB       202.3480  208.1120  164.1790 C.3   135  GLU135      0.0402
     17  CG       201.0920  208.5990  163.5470 C.3   135  GLU135      0.1161
     18  CD       201.2530  208.7340  162.0790 C.2   135  GLU135      0.3649
     19  OE1      202.3100  208.3280  161.5750 O.co2 135  GLU135     -0.2457
     20  OE2      200.3210  209.2270  161.4340 O.co2 135  GLU135     -0.2457
     21  N        200.1520  205.7440  164.9440 N.am  136  ALA136     -0.1980
     22  CA       199.1240  205.2630  165.8560 C.3   136  ALA136      0.1597
     23  C        199.5630  203.9830  166.5390 C.2   136  ALA136      0.2287
     24  O        199.1640  203.7120  167.6780 O.2   136  ALA136     -0.2864
     25  CB       197.8130  205.0450  165.1120 C.3   136  ALA136      0.0319
     26  N        201.5750  205.1540  169.3210 N.3   139  VAL139     -0.1231
     27  CA       200.7590  205.7230  170.3930 C.3   139  VAL139      0.1692
     28  C        200.1280  204.6240  171.2390 C.2   139  VAL139      0.2591
     29  O        200.1650  204.6810  172.4760 O.2   139  VAL139     -0.2718
     30  CB       199.7080  206.6850  169.8110 C.3   139  VAL139      0.0266
     31  CG1      198.7030  207.0830  170.8570 C.3   139  VAL139      0.0020
     32  CG2      200.3890  207.9290  169.3020 C.3   139  VAL139      0.0020
     33  N        199.5850  203.5840  170.6010 N.am  140  ILE140     -0.1980
     34  CA       198.9800  202.5280  171.4080 C.3   140  ILE140      0.1595
     35  C        200.0460  201.6620  172.0720 C.2   140  ILE140      0.2287
     36  O        199.8240  201.1490  173.1720 O.2   140  ILE140     -0.2864
     37  CB       197.9840  201.6850  170.5960 C.3   140  ILE140      0.0276
     38  CG1      198.6660  200.9020  169.4900 C.3   140  ILE140      0.0022
     39  CG2      196.9180  202.5690  169.9920 C.3   140  ILE140      0.0022
     40  CD1      197.7300  199.9470  168.8180 C.3   140  ILE140      0.0001
     41  N        200.9980  203.8630  175.1840 N.3   143  LEU143     -0.1245
     42  CA       199.9680  203.6760  176.2040 C.3   143  LEU143      0.1561
     43  C        200.0450  202.2950  176.8270 C.2   143  LEU143      0.2260
     44  O        199.7770  202.1330  178.0220 O.2   143  LEU143     -0.2867
     45  CB       198.5840  203.8850  175.6050 C.3   143  LEU143      0.0270
     46  CG       198.2610  205.3030  175.1700 C.3   143  LEU143      0.0019
     47  CD1      196.9110  205.3330  174.4990 C.3   143  LEU143      0.0001
     48  CD2      198.2790  206.2120  176.3710 C.3   143  LEU143      0.0001
     49  N        202.6540  202.5100  179.4050 N.3   146  ILE146     -0.1245
     50  CA       202.1560  203.2110  180.5940 C.3   146  ILE146      0.1561
     51  C        201.3330  202.2630  181.4510 C.2   146  ILE146      0.2260
     52  O        201.4850  202.2040  182.6790 O.2   146  ILE146     -0.2867
     53  CB       201.3070  204.4360  180.2090 C.3   146  ILE146      0.0252
     54  CG1      202.0150  205.3490  179.2240 C.3   146  ILE146      0.0019
     55  CG2      200.9170  205.2130  181.4440 C.3   146  ILE146      0.0019
     56  CD1      203.3220  205.7730  179.6420 C.3   146  ILE146      0.0001
     57  N        194.8470  196.3840  173.7790 N.3   219  LEU219     -0.1245
     58  CA       195.8580  197.1250  173.0390 C.3   219  LEU219      0.1561
     59  C        196.9000  196.2120  172.4050 C.2   219  LEU219      0.2260
     60  O        197.3870  196.5290  171.3260 O.2   219  LEU219     -0.2867
     61  CB       196.5270  198.1610  173.9360 C.3   219  LEU219      0.0270
     62  CG       195.9630  199.5830  173.9650 C.3   219  LEU219      0.0019
     63  CD1      194.6000  199.6910  174.5780 C.3   219  LEU219      0.0001
     64  CD2      196.9180  200.4570  174.7390 C.3   219  LEU219      0.0001
     65  N        203.7440  213.3160  183.9100 N.3   335  GLY335     -0.1225
     66  CA       202.8500  213.7790  182.8690 C.3   335  GLY335      0.1811
     67  C        203.5700  214.4840  181.7450 C.2   335  GLY335      0.2280
     68  O        203.0150  214.6200  180.6520 O.2   335  GLY335     -0.2866
     69  N        205.6250  211.3800  179.5320 N.3   338  PHE338     -0.1227
     70  CA       204.6720  210.5580  178.8020 C.3   338  PHE338      0.1736
     71  C        204.0740  211.3440  177.6470 C.2   338  PHE338      0.2595
     72  O        203.9210  210.8140  176.5420 O.2   338  PHE338     -0.2718
     73  CB       203.5760  210.0490  179.7390 C.3   338  PHE338      0.0547
     74  CG       204.0500  209.0470  180.7710 C.ar  338  PHE338     -0.0202
     75  CD1      205.3040  208.4560  180.6890 C.ar  338  PHE338     -0.0042
     76  CD2      203.2190  208.6860  181.8210 C.ar  338  PHE338     -0.0042
     77  CE1      205.7150  207.5370  181.6310 C.ar  338  PHE338     -0.0003
     78  CE2      203.6310  207.7660  182.7680 C.ar  338  PHE338     -0.0003
     79  CZ       204.8810  207.1930  182.6710 C.ar  338  PHE338     -0.0000
     80  N        203.8470  212.6430  177.8530 N.am  339  ALA339     -0.1980
     81  CA       203.3780  213.4860  176.7660 C.3   339  ALA339      0.1597
     82  C        204.4600  213.7550  175.7370 C.2   339  ALA339      0.2287
     83  O        204.1420  214.2260  174.6420 O.2   339  ALA339     -0.2864
     84  CB       202.8440  214.8060  177.3090 C.3   339  ALA339      0.0319
     85  N        204.3830  209.5590  174.2360 N.3   342  ILE342     -0.1231
     86  CA       203.2450  209.2690  173.3760 C.3   342  ILE342      0.1692
     87  C        203.3630  210.0450  172.0760 C.2   342  ILE342      0.2591
     88  O        203.3000  209.4750  170.9820 O.2   342  ILE342     -0.2718
     89  CB       201.9270  209.6000  174.0970 C.3   342  ILE342      0.0266
     90  CG1      201.7220  208.6870  175.2980 C.3   342  ILE342      0.0019
     91  CG2      200.7600  209.4810  173.1480 C.3   342  ILE342      0.0020
     92  CD1      200.6170  209.1360  176.2060 C.3   342  ILE342      0.0001
     93  N        203.5640  211.3550  172.1750 N.am  343  ALA343     -0.1980
     94  CA       203.3830  212.2510  171.0460 C.3   343  ALA343      0.1597
     95  C        204.6800  212.5930  170.3310 C.2   343  ALA343      0.2287
     96  O        204.7360  213.6200  169.6550 O.2   343  ALA343     -0.2864
     97  CB       202.6940  213.5340  171.5060 C.3   343  ALA343      0.0319
     98  N        204.5390  212.8290  166.0950 N.3   346  PHE346     -0.1241
     99  CA       203.9910  214.1020  165.6580 C.3   346  PHE346      0.1605
    100  C        204.9650  215.2420  165.9190 C.2   346  PHE346      0.2264
    101  O        205.0300  216.1850  165.1190 O.2   346  PHE346     -0.2867
    102  CB       202.6630  214.3430  166.3590 C.3   346  PHE346      0.0534
    103  CG       201.6450  213.2810  166.0870 C.ar  346  PHE346     -0.0203
    104  CD1      200.8870  213.3070  164.9310 C.ar  346  PHE346     -0.0042
    105  CD2      201.4600  212.2440  166.9840 C.ar  346  PHE346     -0.0042
    106  CE1      199.9520  212.3240  164.6830 C.ar  346  PHE346     -0.0003
    107  CE2      200.5340  211.2600  166.7400 C.ar  346  PHE346     -0.0003
    108  CZ       199.7780  211.3000  165.5910 C.ar  346  PHE346     -0.0000
    109  N        207.5490  214.8780  163.2320 N.3   349  LYS349     -0.1231
    110  CA       206.8830  215.1620  161.9710 C.3   349  LYS349      0.1693
    111  C        206.7450  216.6610  161.7760 C.2   349  LYS349      0.2591
    112  O        206.8470  217.1590  160.6510 O.2   349  LYS349     -0.2718
    113  CB       205.5160  214.4830  161.9520 C.3   349  LYS349      0.0285
    114  CG       204.7670  214.5700  160.6450 C.3   349  LYS349      0.0035
    115  CD       203.4010  213.9170  160.7680 C.3   349  LYS349      0.0206
    116  CE       203.4170  212.4820  160.2790 C.3   349  LYS349      0.1093
    117  NZ       204.0090  211.5420  161.2640 N.3   349  LYS349     -0.1314
    118  N        206.5210  217.3960  162.8660 N.am  350  LYS350     -0.1980
    119  CA       206.5050  218.8510  162.7740 C.3   350  LYS350      0.1596
    120  C        207.9110  219.4090  162.5880 C.2   350  LYS350      0.2287
    121  O        208.1130  220.3420  161.8030 O.2   350  LYS350     -0.2864
    122  CB       205.8510  219.4440  164.0200 C.3   350  LYS350      0.0298
    123  CG       205.6960  220.9480  163.9830 C.3   350  LYS350      0.0038
    124  CD       204.7650  221.3650  162.8650 C.3   350  LYS350      0.0206
    125  CE       203.3420  220.9280  163.1580 C.3   350  LYS350      0.1093
    126  NZ       202.3810  221.3730  162.1140 N.3   350  LYS350     -0.1314
@<TRIPOS>BOND
     1     7     8    1
     2     7     6    1
     3     8     9    2
     4    10     9    1
     5     9    11    1
     6     6     5    1
     7     5     2    1
     8     3     2    1
     9     3     4    2
    10     2     1    1
    11   116   115    1
    12   116   117    1
    13   114   115    1
    14   114   113    1
    15   112   111    2
    16    20    18   ar
    17    19    18   ar
    18   111   110    1
    19   111   118   am
    20   121   120    2
    21   113   110    1
    22   110   109    1
    23    18    17    1
    24   126   125    1
    25   120   119    1
    26   119   118    1
    27   119   122    1
    28   124   125    1
    29   124   123    1
    30    12    13    1
    31    17    16    1
    32   123   122    1
    33    16    13    1
    34    13    14    1
    35   106   104   ar
    36   106   108   ar
    37   104   103   ar
    38    21    14   am
    39    21    22    1
    40    25    22    1
    41   101   100    2
    42    14    15    2
    43   108   107   ar
    44    99   100    1
    45    99    98    1
    46    99   102    1
    47    22    23    1
    48   103   102    1
    49   103   105   ar
    50    23    24    2
    51   107   105   ar
    52    40    38    1
    53    32    30    1
    54    26    27    1
    55    38    37    1
    56    96    95    2
    57    30    27    1
    58    30    31    1
    59    39    37    1
    60    95    94    1
    61    27    28    1
    62    37    34    1
    63    33    28   am
    64    33    34    1
    65    88    87    2
    66    94    97    1
    67    94    93    1
    68    28    29    2
    69    60    59    2
    70    34    35    1
    71    35    36    2
    72    87    93   am
    73    87    86    1
    74    59    58    1
    75    58    57    1
    76    58    61    1
    77    91    89    1
    78    86    89    1
    79    86    85    1
    80    61    62    1
    81    62    63    1
    82    62    64    1
    83    89    90    1
    84    47    46    1
    85    83    82    2
    86    46    45    1
    87    46    48    1
    88    41    42    1
    89    90    92    1
    90    45    42    1
    91    82    81    1
    92    42    43    1
    93    72    71    2
    94    81    84    1
    95    81    80    1
    96    43    44    2
    97    71    80   am
    98    71    70    1
    99    70    69    1
   100    70    73    1
   101    54    56    1
   102    54    53    1
   103    49    50    1
   104    73    74    1
   105    53    50    1
   106    53    55    1
   107    50    51    1
   108    68    67    2
   109    75    74   ar
   110    75    77   ar
   111    74    76   ar
   112    51    52    2
   113    77    79   ar
   114    67    66    1
   115    76    78   ar
   116    79    78   ar
   117    66    65    1
