@<TRIPOS>MOLECULE
tmp/6adqV20.pdb
 95 89 0 0 0
SMALL
GASTEIGER

@<TRIPOS>ATOM
      1  N        199.5850  203.5840  170.6010 N.3   140  ILE140     -0.1245
      2  CA       198.9800  202.5280  171.4080 C.3   140  ILE140      0.1561
      3  C        200.0460  201.6620  172.0720 C.2   140  ILE140      0.2260
      4  O        199.8240  201.1490  173.1720 O.2   140  ILE140     -0.2867
      5  CB       197.9840  201.6850  170.5960 C.3   140  ILE140      0.0252
      6  CG1      198.6660  200.9020  169.4900 C.3   140  ILE140      0.0019
      7  CG2      196.9180  202.5690  169.9920 C.3   140  ILE140      0.0019
      8  CD1      197.7300  199.9470  168.8180 C.3   140  ILE140      0.0001
      9  N        192.0760  192.1200  186.0180 N.3   210  LEU210     -0.1231
     10  CA       191.3020  192.3330  184.8100 C.3   210  LEU210      0.1693
     11  C        191.3940  193.7420  184.2520 C.2   210  LEU210      0.2591
     12  O        191.6420  193.8890  183.0590 O.2   210  LEU210     -0.2718
     13  CB       189.8330  191.9690  185.0590 C.3   210  LEU210      0.0284
     14  CG       188.8910  192.1020  183.8610 C.3   210  LEU210      0.0019
     15  CD1      187.9860  190.9160  183.7720 C.3   210  LEU210      0.0001
     16  CD2      188.0160  193.3320  183.9880 C.3   210  LEU210      0.0001
     17  N        191.1730  194.7760  185.0670 N.am  211  LEU211     -0.1980
     18  CA       190.7970  196.0740  184.5120 C.3   211  LEU211      0.1596
     19  C        191.9460  196.7490  183.7690 C.2   211  LEU211      0.2287
     20  O        191.7330  197.3090  182.6920 O.2   211  LEU211     -0.2864
     21  CB       190.2390  196.9790  185.6050 C.3   211  LEU211      0.0297
     22  CG       189.8070  198.3680  185.1410 C.3   211  LEU211      0.0022
     23  CD1      188.8190  198.2860  183.9900 C.3   211  LEU211      0.0001
     24  CD2      189.1930  199.1080  186.3060 C.3   211  LEU211      0.0001
     25  N        192.9030  193.8730  180.9740 N.3   214  GLY214     -0.1210
     26  CA       191.9440  193.8780  179.8830 C.3   214  GLY214      0.1956
     27  C        192.2800  194.9270  178.8450 C.2   214  GLY214      0.2611
     28  O        192.2410  194.6550  177.6420 O.2   214  GLY214     -0.2717
     29  N        192.6640  196.1230  179.2960 N.am  215  ILE215     -0.1979
     30  CA       193.0640  197.1650  178.3620 C.3   215  ILE215      0.1595
     31  C        194.3970  196.8130  177.7230 C.2   215  ILE215      0.2287
     32  O        194.6200  197.0960  176.5430 O.2   215  ILE215     -0.2864
     33  CB       193.1210  198.5310  179.0700 C.3   215  ILE215      0.0276
     34  CG1      191.8290  198.7970  179.8320 C.3   215  ILE215      0.0022
     35  CG2      193.2670  199.6440  178.0600 C.3   215  ILE215      0.0022
     36  CD1      190.5900  198.8050  178.9800 C.3   215  ILE215      0.0001
     37  N        195.4870  193.7120  177.1130 N.3   217  LEU217     -0.1231
     38  CA       195.2110  192.6760  176.1260 C.3   217  LEU217      0.1693
     39  C        194.5030  193.2470  174.9070 C.2   217  LEU217      0.2592
     40  O        194.7820  192.8310  173.7790 O.2   217  LEU217     -0.2718
     41  CB       194.3830  191.5610  176.7600 C.3   217  LEU217      0.0284
     42  CG       194.0360  190.3910  175.8480 C.3   217  LEU217      0.0019
     43  CD1      195.3000  189.7590  175.3500 C.3   217  LEU217      0.0001
     44  CD2      193.1940  189.3770  176.5820 C.3   217  LEU217      0.0001
     45  N        193.6130  194.2230  175.1070 N.am  218  ALA218     -0.1966
     46  CA       192.9470  194.8620  173.9770 C.3   218  ALA218      0.1728
     47  C        193.9290  195.6640  173.1340 C.2   218  ALA218      0.2616
     48  O        193.8790  195.6140  171.8990 O.2   218  ALA218     -0.2715
     49  CB       191.8140  195.7540  174.4760 C.3   218  ALA218      0.0334
     50  N        194.8470  196.3840  173.7790 N.am  219  LEU219     -0.1977
     51  CA       195.8580  197.1250  173.0390 C.3   219  LEU219      0.1596
     52  C        196.9000  196.2120  172.4050 C.2   219  LEU219      0.2287
     53  O        197.3870  196.5290  171.3260 O.2   219  LEU219     -0.2864
     54  CB       196.5270  198.1610  173.9360 C.3   219  LEU219      0.0297
     55  CG       195.9630  199.5830  173.9650 C.3   219  LEU219      0.0022
     56  CD1      194.6000  199.6910  174.5780 C.3   219  LEU219      0.0001
     57  CD2      196.9180  200.4570  174.7390 C.3   219  LEU219      0.0001
     58  N        194.8850  194.8510  169.2470 N.3   222  ALA222     -0.1245
     59  CA       194.8580  195.8760  168.2090 C.3   222  ALA222      0.1562
     60  C        196.2560  196.2160  167.7250 C.2   222  ALA222      0.2260
     61  O        196.4470  196.5450  166.5560 O.2   222  ALA222     -0.2867
     62  CB       194.1670  197.1310  168.7270 C.3   222  ALA222      0.0290
     63  N        197.4220  193.5380  165.5120 N.3   225  ALA225     -0.1231
     64  CA       196.6470  193.6660  164.2820 C.3   225  ALA225      0.1694
     65  C        197.1970  194.7730  163.3920 C.2   225  ALA225      0.2591
     66  O        197.2110  194.6400  162.1640 O.2   225  ALA225     -0.2718
     67  CB       195.1800  193.9260  164.6060 C.3   225  ALA225      0.0304
     68  N        197.6270  195.8830  163.9910 N.am  226  LEU226     -0.1980
     69  CA       198.2980  196.9290  163.2280 C.3   226  LEU226      0.1596
     70  C        199.6400  196.4670  162.6790 C.2   226  LEU226      0.2287
     71  O        200.0460  196.9020  161.6020 O.2   226  LEU226     -0.2864
     72  CB       198.4830  198.1660  164.0960 C.3   226  LEU226      0.0297
     73  CG       197.4750  199.3090  164.0360 C.3   226  LEU226      0.0022
     74  CD1      196.0890  198.9210  164.4330 C.3   226  LEU226      0.0001
     75  CD2      197.9690  200.3720  164.9950 C.3   226  LEU226      0.0001
     76  N        198.2380  193.3710  159.6390 N.3   229  PHE229     -0.1227
     77  CA       197.5790  193.6810  158.3730 C.3   229  PHE229      0.1736
     78  C        198.3220  194.7640  157.6150 C.2   229  PHE229      0.2595
     79  O        198.7300  194.5680  156.4650 O.2   229  PHE229     -0.2718
     80  CB       196.1420  194.1070  158.6280 C.3   229  PHE229      0.0547
     81  CG       195.2990  193.0200  159.1680 C.ar  229  PHE229     -0.0202
     82  CD1      194.7780  192.0560  158.3310 C.ar  229  PHE229     -0.0042
     83  CD2      195.0400  192.9470  160.5170 C.ar  229  PHE229     -0.0042
     84  CE1      194.0030  191.0460  158.8300 C.ar  229  PHE229     -0.0003
     85  CE2      194.2650  191.9380  161.0240 C.ar  229  PHE229     -0.0003
     86  CZ       193.7450  190.9880  160.1790 C.ar  229  PHE229     -0.0000
     87  N        198.4530  195.9310  158.2250 N.am  230  GLN230     -0.1979
     88  CA       199.4550  196.8980  157.8200 C.3   230  GLN230      0.1601
     89  C        200.8080  196.2300  157.9690 C.2   230  GLN230      0.2287
     90  O        201.1910  195.9010  159.0910 O.2   230  GLN230     -0.2864
     91  CB       199.3680  198.1190  158.7080 C.3   230  GLN230      0.0394
     92  CG       200.2280  199.2580  158.3320 C.3   230  GLN230      0.0908
     93  CD       200.2120  200.2640  159.4240 C.2   230  GLN230      0.2608
     94  OE1      199.8040  199.9570  160.5350 O.2   230  GLN230     -0.2717
     95  NE2      200.5620  201.4850  159.1050 N.am  230  GLN230     -0.0878
@<TRIPOS>BOND
     1    79    78    2
     2    78    87   am
     3    78    77    1
     4    88    89    1
     5    88    87    1
     6    88    91    1
     7    89    90    2
     8    82    84   ar
     9    82    81   ar
    10    92    91    1
    11    92    93    1
    12    77    80    1
    13    77    76    1
    14    80    81    1
    15    84    86   ar
    16    95    93   am
    17    81    83   ar
    18    93    94    2
    19    86    85   ar
    20    83    85   ar
    21    71    70    2
    22    66    65    2
    23    70    69    1
    24    69    68    1
    25    69    72    1
    26    65    68   am
    27    65    64    1
    28    73    72    1
    29    73    74    1
    30    73    75    1
    31    64    67    1
    32    64    63    1
    33    61    60    2
    34    60    59    1
    35    59    62    1
    36    59    58    1
    37     8     6    1
    38     6     5    1
    39     7     5    1
    40     5     2    1
    41     1     2    1
    42    53    52    2
    43     2     3    1
    44    48    47    2
    45     3     4    2
    46    52    51    1
    47    51    50    1
    48    51    54    1
    49    47    50   am
    50    47    46    1
    51    40    39    2
    52    54    55    1
    53    55    56    1
    54    55    57    1
    55    46    49    1
    56    46    45    1
    57    39    45   am
    58    39    38    1
    59    43    42    1
    60    42    44    1
    61    42    41    1
    62    38    41    1
    63    38    37    1
    64    32    31    2
    65    28    27    2
    66    31    30    1
    67    35    33    1
    68    30    33    1
    69    30    29    1
    70    27    29   am
    71    27    26    1
    72    36    34    1
    73    33    34    1
    74    26    25    1
    75    20    19    2
    76    12    11    2
    77    19    18    1
    78    15    14    1
    79    14    16    1
    80    14    13    1
    81    23    22    1
    82    11    10    1
    83    11    17   am
    84    18    17    1
    85    18    21    1
    86    10    13    1
    87    10     9    1
    88    22    21    1
    89    22    24    1
