@<TRIPOS>MOLECULE
tmp/6adqD00.pdb
 114 111 0 0 0
SMALL
GASTEIGER

@<TRIPOS>ATOM
      1  N        130.9750  190.2880  158.8620 N.3    84  PHE84      -0.1227
      2  CA       132.1700  189.5260  159.1690 C.3    84  PHE84       0.1736
      3  C        131.9290  188.6430  160.3730 C.2    84  PHE84       0.2595
      4  O        131.5360  189.1230  161.4370 O.2    84  PHE84      -0.2718
      5  CB       133.3370  190.4620  159.4530 C.3    84  PHE84       0.0547
      6  CG       134.6200  189.7570  159.7620 C.ar   84  PHE84      -0.0202
      7  CD1      135.3790  189.2050  158.7490 C.ar   84  PHE84      -0.0042
      8  CD2      135.0680  189.6510  161.0650 C.ar   84  PHE84      -0.0042
      9  CE1      136.5640  188.5660  159.0310 C.ar   84  PHE84      -0.0003
     10  CE2      136.2480  189.0220  161.3520 C.ar   84  PHE84      -0.0003
     11  CZ       136.9980  188.4780  160.3360 C.ar   84  PHE84      -0.0000
     12  N        132.1650  187.3550  160.2090 N.am   85  PHE85      -0.1962
     13  CA       132.3930  186.5070  161.3620 C.3    85  PHE85       0.1771
     14  C        133.8800  186.2560  161.4630 C.2    85  PHE85       0.2619
     15  O        134.6060  186.3200  160.4710 O.2    85  PHE85      -0.2715
     16  CB       131.6530  185.1780  161.2650 C.3    85  PHE85       0.0574
     17  CG       130.1760  185.2960  161.4050 C.ar   85  PHE85      -0.0200
     18  CD1      129.5790  186.4760  161.8040 C.ar   85  PHE85      -0.0042
     19  CD2      129.3830  184.1990  161.1760 C.ar   85  PHE85      -0.0042
     20  CE1      128.2320  186.5580  161.9200 C.ar   85  PHE85      -0.0003
     21  CE2      128.0390  184.2750  161.2990 C.ar   85  PHE85      -0.0003
     22  CZ       127.4640  185.4540  161.6770 C.ar   85  PHE85      -0.0000
     23  N        134.3260  185.9860  162.6540 N.am   86  ALA86      -0.1977
     24  CA       135.7340  185.7060  162.8060 C.3    86  ALA86       0.1597
     25  C        136.0170  184.2740  162.3810 C.2    86  ALA86       0.2287
     26  O        135.3030  183.3590  162.7930 O.2    86  ALA86      -0.2864
     27  CB       136.1780  185.9200  164.2400 C.3    86  ALA86       0.0319
     28  N        142.4560  184.7000  176.6210 N.3    95  ILE95      -0.1245
     29  CA       141.5420  185.4190  177.5130 C.3    95  ILE95       0.1561
     30  C        141.2540  184.5880  178.7480 C.2    95  ILE95       0.2260
     31  O        141.2800  185.0880  179.8780 O.2    95  ILE95      -0.2867
     32  CB       140.2200  185.7580  176.8000 C.3    95  ILE95       0.0252
     33  CG1      140.4390  186.5580  175.5330 C.3    95  ILE95       0.0019
     34  CG2      139.3110  186.5370  177.7300 C.3    95  ILE95       0.0019
     35  CD1      141.0240  187.8440  175.7630 C.3    95  ILE95       0.0001
     36  N        142.2660  185.4580  182.5540 N.3    99  PHE99      -0.1241
     37  CA       141.2420  185.6750  183.5620 C.3    99  PHE99       0.1605
     38  C        141.2900  184.5970  184.6340 C.2    99  PHE99       0.2264
     39  O        140.9430  184.8600  185.7870 O.2    99  PHE99      -0.2867
     40  CB       139.8730  185.7390  182.8940 C.3    99  PHE99       0.0534
     41  CG       138.7800  186.1970  183.8000 C.ar   99  PHE99      -0.0203
     42  CD1      138.7200  187.5120  184.2140 C.ar   99  PHE99      -0.0042
     43  CD2      137.7910  185.3270  184.2100 C.ar   99  PHE99      -0.0042
     44  CE1      137.7060  187.9460  185.0460 C.ar   99  PHE99      -0.0003
     45  CE2      136.7700  185.7540  185.0360 C.ar   99  PHE99      -0.0003
     46  CZ       136.7330  187.0670  185.4590 C.ar   99  PHE99      -0.0000
     47  N        145.4870  190.6870  185.7510 N.3   118  VAL118     -0.1245
     48  CA       144.7900  191.8060  185.1250 C.3   118  VAL118      0.1561
     49  C        145.6130  192.3660  183.9690 C.2   118  VAL118      0.2260
     50  O        145.0620  192.7200  182.9210 O.2   118  VAL118     -0.2867
     51  CB       144.4410  192.8730  186.1810 C.3   118  VAL118      0.0252
     52  CG1      143.9510  194.1540  185.5490 C.3   118  VAL118      0.0019
     53  CG2      143.3450  192.3540  187.0800 C.3   118  VAL118      0.0019
     54  N        145.0450  190.0360  181.2180 N.3   121  VAL121     -0.1231
     55  CA       143.7010  190.2570  180.6920 C.3   121  VAL121      0.1692
     56  C        143.7000  191.4270  179.7270 C.2   121  VAL121      0.2591
     57  O        143.1480  191.3290  178.6310 O.2   121  VAL121     -0.2718
     58  CB       142.6880  190.4560  181.8350 C.3   121  VAL121      0.0266
     59  CG1      141.4060  191.0370  181.3160 C.3   121  VAL121      0.0020
     60  CG2      142.3460  189.1340  182.4570 C.3   121  VAL121      0.0020
     61  N        144.3650  192.5270  180.0920 N.am  122  ILE122     -0.1980
     62  CA       144.4380  193.6890  179.2060 C.3   122  ILE122      0.1595
     63  C        145.1930  193.3460  177.9290 C.2   122  ILE122      0.2287
     64  O        144.7470  193.6800  176.8240 O.2   122  ILE122     -0.2864
     65  CB       145.0750  194.8880  179.9310 C.3   122  ILE122      0.0276
     66  CG1      144.2710  195.2640  181.1700 C.3   122  ILE122      0.0022
     67  CG2      145.1720  196.0790  179.0160 C.3   122  ILE122      0.0022
     68  CD1      142.8330  195.5490  180.9100 C.3   122  ILE122      0.0001
     69  N        143.0230  190.7700  175.8530 N.3   125  VAL125     -0.1245
     70  CA       141.8290  191.4320  175.3370 C.3   125  VAL125      0.1561
     71  C        142.1960  192.3620  174.1920 C.2   125  VAL125      0.2260
     72  O        141.4860  192.4170  173.1810 O.2   125  VAL125     -0.2867
     73  CB       141.0830  192.1510  176.4770 C.3   125  VAL125      0.0252
     74  CG1      140.1220  193.1670  175.9550 C.3   125  VAL125      0.0019
     75  CG2      140.2660  191.1540  177.2530 C.3   125  VAL125      0.0019
     76  N        142.7420  190.1150  171.2370 N.3   128  LEU128     -0.1231
     77  CA       141.4900  189.6810  170.6320 C.3   128  LEU128      0.1693
     78  C        140.8710  190.8010  169.8120 C.2   128  LEU128      0.2591
     79  O        140.4710  190.5970  168.6630 O.2   128  LEU128     -0.2718
     80  CB       140.5270  189.1970  171.7160 C.3   128  LEU128      0.0284
     81  CG       139.1760  188.6010  171.3250 C.3   128  LEU128      0.0019
     82  CD1      138.8650  187.4630  172.2480 C.3   128  LEU128      0.0001
     83  CD2      138.0630  189.6230  171.4440 C.3   128  LEU128      0.0001
     84  N        140.7930  191.9990  170.3830 N.am  129  VAL129     -0.1980
     85  CA       140.0050  193.0490  169.7560 C.3   129  VAL129      0.1595
     86  C        140.7590  193.7460  168.6250 C.2   129  VAL129      0.2287
     87  O        140.1270  194.3590  167.7570 O.2   129  VAL129     -0.2864
     88  CB       139.5600  194.0300  170.8490 C.3   129  VAL129      0.0276
     89  CG1      140.7000  194.8720  171.2510 C.3   129  VAL129      0.0022
     90  CG2      138.3770  194.8700  170.4230 C.3   129  VAL129      0.0022
     91  N        141.6520  191.6240  163.9720 N.3   132  TYR132     -0.1227
     92  CA       141.2780  191.9040  162.5970 C.3   132  TYR132      0.1736
     93  C        141.4070  193.3890  162.2830 C.2   132  TYR132      0.2595
     94  O        140.6530  193.9310  161.4740 O.2   132  TYR132     -0.2718
     95  CB       139.8790  191.3680  162.3200 C.3   132  TYR132      0.0548
     96  CG       139.8820  189.8680  162.4320 C.ar  132  TYR132     -0.0200
     97  CD1      140.3320  189.0780  161.3870 C.ar  132  TYR132     -0.0009
     98  CD2      139.5000  189.2430  163.6080 C.ar  132  TYR132     -0.0009
     99  CE1      140.3660  187.7080  161.4980 C.ar  132  TYR132      0.0417
    100  CE2      139.5350  187.8770  163.7280 C.ar  132  TYR132      0.0417
    101  CZ       139.9660  187.1170  162.6700 C.ar  132  TYR132      0.1957
    102  OH       139.9990  185.7530  162.7840 O.3   132  TYR132     -0.2866
    103  N        142.3750  194.0560  162.9200 N.am  133  TYR133     -0.1976
    104  CA       142.6620  195.4520  162.6280 C.3   133  TYR133      0.1639
    105  C        144.1430  195.7890  162.5640 C.2   133  TYR133      0.2290
    106  O        144.4720  196.9460  162.2910 O.2   133  TYR133     -0.2864
    107  CB       141.9990  196.3520  163.6660 C.3   133  TYR133      0.0560
    108  CG       140.5060  196.3400  163.5840 C.ar  133  TYR133     -0.0198
    109  CD1      139.8300  197.1800  162.7150 C.ar  133  TYR133     -0.0009
    110  CD2      139.7710  195.4700  164.3630 C.ar  133  TYR133     -0.0009
    111  CE1      138.4580  197.1600  162.6430 C.ar  133  TYR133      0.0417
    112  CE2      138.4200  195.4270  164.2840 C.ar  133  TYR133      0.0417
    113  CZ       137.7610  196.2780  163.4380 C.ar  133  TYR133      0.1957
    114  OH       136.3920  196.2250  163.4000 O.3   133  TYR133     -0.2866
@<TRIPOS>BOND
     1     7     9   ar
     2     7     6   ar
     3     1     2    1
     4     9    11   ar
     5     2     5    1
     6     2     3    1
     7     5     6    1
     8     6     8   ar
     9    12     3   am
    10    12    13    1
    11    11    10   ar
    12     3     4    2
    13    15    14    2
    14     8    10   ar
    15    19    21   ar
    16    19    17   ar
    17    16    13    1
    18    16    17    1
    19    21    22   ar
    20    13    14    1
    21    97    99   ar
    22    97    96   ar
    23    17    18   ar
    24    14    23   am
    25    94    93    2
    26    99   101   ar
    27    22    20   ar
    28    18    20   ar
    29    93    92    1
    30    93   103   am
    31   106   105    2
    32    95    96    1
    33    95    92    1
    34    25    26    2
    35    25    24    1
    36    96    98   ar
    37   105   104    1
    38    92    91    1
    39   104   103    1
    40   104   107    1
    41   111   109   ar
    42   111   113   ar
    43    23    24    1
    44   101   102    1
    45   101   100   ar
    46   109   108   ar
    47    24    27    1
    48   114   113    1
    49   113   112   ar
    50   108   107    1
    51   108   110   ar
    52    98   100   ar
    53   112   110   ar
    54    87    86    2
    55    86    85    1
    56    79    78    2
    57    85    84    1
    58    85    88    1
    59    78    84   am
    60    78    77    1
    61    90    88    1
    62    77    76    1
    63    77    80    1
    64    88    89    1
    65    81    83    1
    66    81    80    1
    67    81    82    1
    68    72    71    2
    69    71    70    1
    70    70    69    1
    71    70    73    1
    72    33    35    1
    73    33    32    1
    74    74    73    1
    75    73    75    1
    76    28    29    1
    77    32    29    1
    78    32    34    1
    79    64    63    2
    80    29    30    1
    81    63    62    1
    82    57    56    2
    83    30    31    2
    84    67    65    1
    85    62    65    1
    86    62    61    1
    87    56    61   am
    88    56    55    1
    89    65    66    1
    90    55    54    1
    91    55    58    1
    92    68    66    1
    93    59    58    1
    94    58    60    1
    95    36    37    1
    96    40    37    1
    97    40    41    1
    98    50    49    2
    99    37    38    1
   100    41    43   ar
   101    41    42   ar
   102    49    48    1
   103    43    45   ar
   104    42    44   ar
   105    38    39    2
   106    45    46   ar
   107    44    46   ar
   108    48    47    1
   109    48    51    1
   110    52    51    1
   111    51    53    1
