@<TRIPOS>MOLECULE
tmp/6adqV06.pdb
 233 225 0 0 0
SMALL
GASTEIGER

@<TRIPOS>ATOM
      1  N        215.2120  190.0590  160.4530 N.3    34  HIS34      -0.1226
      2  CA       216.1820  190.7640  161.2710 C.3    34  HIS34       0.1752
      3  C        215.9230  190.4530  162.7370 C.2    34  HIS34       0.2596
      4  O        214.7870  190.2090  163.1470 O.2    34  HIS34      -0.2718
      5  CB       216.1290  192.2650  161.0210 C.3    34  HIS34       0.0759
      6  CG       217.2480  193.0180  161.6640 C.ar   34  HIS34       0.0818
      7  ND1      217.1870  193.4830  162.9580 N.ar   34  HIS34      -0.2268
      8  CD2      218.4660  193.3740  161.1950 C.ar   34  HIS34       0.1154
      9  CE1      218.3150  194.0990  163.2560 C.ar   34  HIS34       0.1986
     10  NE2      219.1080  194.0480  162.2030 N.ar   34  HIS34      -0.2212
     11  N        217.0010  190.4370  163.5200 N.am   35  TRP35      -0.1962
     12  CA       216.9340  189.9040  164.8740 C.3    35  TRP35       0.1771
     13  C        216.1500  190.8170  165.7970 C.2    35  TRP35       0.2620
     14  O        215.4090  190.3460  166.6670 O.2    35  TRP35      -0.2715
     15  CB       218.3410  189.6960  165.4110 C.3    35  TRP35       0.0590
     16  CG       219.1680  190.9290  165.5270 C.ar   35  TRP35       0.0006
     17  CD1      219.9930  191.4460  164.5820 C.ar   35  TRP35       0.0946
     18  CD2      219.2540  191.8030  166.6560 C.ar   35  TRP35       0.0152
     19  NE1      220.5880  192.5890  165.0460 N.ar   35  TRP35      -0.2442
     20  CE2      220.1460  192.8300  166.3180 C.ar   35  TRP35       0.0810
     21  CE3      218.6570  191.8200  167.9160 C.ar   35  TRP35       0.0012
     22  CZ2      220.4590  193.8560  167.1910 C.ar   35  TRP35       0.0191
     23  CZ3      218.9670  192.8420  168.7780 C.ar   35  TRP35       0.0001
     24  CH2      219.8600  193.8450  168.4130 C.ar   35  TRP35       0.0015
     25  N        216.2780  192.1250  165.5900 N.am   36  SER36      -0.1950
     26  CA       215.6100  193.1230  166.4060 C.3    36  SER36       0.1924
     27  C        214.1030  193.0580  166.2640 C.2    36  SER36       0.2314
     28  O        213.3810  193.4130  167.2000 O.2    36  SER36      -0.2863
     29  CB       216.1260  194.4960  166.0130 C.3    36  SER36       0.2116
     30  OG       217.4950  194.6370  166.3320 O.3    36  SER36      -0.2180
     31  N        212.3390  191.4230  169.1460 N.3    39  LEU39      -0.1245
     32  CA       212.4630  191.9880  170.4930 C.3    39  LEU39       0.1561
     33  C        211.1070  192.2410  171.1310 C.2    39  LEU39       0.2260
     34  O        210.8600  191.8300  172.2720 O.2    39  LEU39      -0.2867
     35  CB       213.2640  193.2840  170.4550 C.3    39  LEU39       0.0270
     36  CG       214.7530  193.1500  170.1940 C.3    39  LEU39       0.0019
     37  CD1      215.3590  194.5210  170.0690 C.3    39  LEU39       0.0001
     38  CD2      215.3830  192.3810  171.3220 C.3    39  LEU39       0.0001
     39  N        213.1960  197.7850  175.7290 N.3   119  VAL119     -0.1245
     40  CA       214.1240  197.3810  174.6700 C.3   119  VAL119      0.1561
     41  C        213.4770  197.5370  173.3050 C.2   119  VAL119      0.2260
     42  O        214.0900  198.0440  172.3570 O.2   119  VAL119     -0.2867
     43  CB       214.5980  195.9340  174.8950 C.3   119  VAL119      0.0252
     44  CG1      215.3930  195.4330  173.7160 C.3   119  VAL119      0.0019
     45  CG2      215.4480  195.8590  176.1020 C.3   119  VAL119      0.0019
     46  N        213.1990  201.0690  172.3420 N.3   122  ALA122     -0.1231
     47  CA       214.4870  201.4960  171.8090 C.3   122  ALA122      0.1694
     48  C        214.6640  201.0390  170.3680 C.2   122  ALA122      0.2591
     49  O        215.1780  201.7950  169.5390 O.2   122  ALA122     -0.2718
     50  CB       215.6210  200.9700  172.6810 C.3   122  ALA122      0.0304
     51  N        214.2030  199.8270  170.0460 N.am  123  ARG123     -0.1980
     52  CA       214.2880  199.3250  168.6740 C.3   123  ARG123      0.1597
     53  C        213.5110  200.2160  167.7210 C.2   123  ARG123      0.2287
     54  O        214.0680  200.7800  166.7730 O.2   123  ARG123     -0.2864
     55  CB       213.7320  197.9070  168.5770 C.3   123  ARG123      0.0334
     56  CG       214.2030  197.1640  167.3330 C.3   123  ARG123      0.0492
     57  CD       213.4450  197.3310  165.9930 C.3   123  ARG123      0.2205
     58  NE       212.0940  196.7850  165.9240 N.pl3 123  ARG123     -0.0865
     59  CZ       211.2320  197.1110  164.9660 C.cat 123  ARG123      0.5346
     60  NH1      211.5790  197.9960  164.0520 N.pl3 123  ARG123      0.1354
     61  NH2      210.0230  196.5780  164.9350 N.pl3 123  ARG123      0.1354
     62  N        214.9840  203.9910  167.6060 N.3   126  PHE126     -0.1227
     63  CA       216.2470  204.2930  166.9410 C.3   126  PHE126      0.1736
     64  C        216.2810  203.7900  165.5090 C.2   126  PHE126      0.2596
     65  O        217.0130  204.3400  164.6850 O.2   126  PHE126     -0.2718
     66  CB       217.4230  203.7100  167.7200 C.3   126  PHE126      0.0547
     67  CG       217.6660  204.3860  169.0250 C.ar  126  PHE126     -0.0202
     68  CD1      218.1830  205.6540  169.0590 C.ar  126  PHE126     -0.0042
     69  CD2      217.4200  203.7430  170.2150 C.ar  126  PHE126     -0.0042
     70  CE1      218.4080  206.2760  170.2520 C.ar  126  PHE126     -0.0003
     71  CE2      217.6370  204.3620  171.4100 C.ar  126  PHE126     -0.0003
     72  CZ       218.1360  205.6280  171.4290 C.ar  126  PHE126     -0.0000
     73  N        215.4810  202.7870  165.1800 N.am  127  THR127     -0.1953
     74  CA       215.3890  202.3620  163.7980 C.3   127  THR127      0.1897
     75  C        214.3520  203.1420  163.0130 C.2   127  THR127      0.2313
     76  O        214.2630  202.9640  161.7980 O.2   127  THR127     -0.2863
     77  CB       215.0840  200.8740  163.7320 C.3   127  THR127      0.1794
     78  OG1      213.8610  200.6090  164.4240 O.3   127  THR127     -0.2208
     79  CG2      216.2040  200.1080  164.3870 C.3   127  THR127      0.0378
     80  N        214.5090  196.7960  157.5190 N.3   235  PHE235     -0.1241
     81  CA       215.6960  197.5470  157.1570 C.3   235  PHE235      0.1605
     82  C        215.8740  197.4930  155.6460 C.2   235  PHE235      0.2264
     83  O        215.4470  196.5340  155.0070 O.2   235  PHE235     -0.2867
     84  CB       216.9310  196.9730  157.8380 C.3   235  PHE235      0.0534
     85  CG       216.9570  197.1890  159.3090 C.ar  235  PHE235     -0.0203
     86  CD1      217.4170  198.3760  159.8410 C.ar  235  PHE235     -0.0042
     87  CD2      216.5040  196.2080  160.1620 C.ar  235  PHE235     -0.0042
     88  CE1      217.4320  198.5710  161.1980 C.ar  235  PHE235     -0.0003
     89  CE2      216.5150  196.4000  161.5150 C.ar  235  PHE235     -0.0003
     90  CZ       216.9840  197.5780  162.0310 C.ar  235  PHE235     -0.0000
     91  N        218.7400  203.0780  159.5430 N.3   363  ARG363     -0.1231
     92  CA       219.6870  202.6030  160.5330 C.3   363  ARG363      0.1679
     93  C        219.9600  203.7250  161.5250 C.2   363  ARG363      0.2434
     94  O        219.9940  204.8950  161.1330 O.2   363  ARG363     -0.2733
     95  CB       220.9830  202.1460  159.8630 C.3   363  ARG363      0.0321
     96  CG       220.7890  200.9420  158.9790 C.3   363  ARG363      0.0489
     97  CD       222.0370  200.5220  158.2270 C.3   363  ARG363      0.2205
     98  NE       223.0840  199.9730  159.0750 N.pl3 363  ARG363     -0.0865
     99  CZ       224.2920  200.5050  159.1940 C.cat 363  ARG363      0.5346
    100  NH1      225.1920  199.9430  159.9830 N.pl3 363  ARG363      0.1354
    101  NH2      224.6060  201.5830  158.4980 N.pl3 363  ARG363      0.1354
    102  N        220.1150  203.4180  162.8130 N.am  364  PRO364     -0.2718
    103  CA       220.2420  204.4850  163.8140 C.3   364  PRO364      0.1535
    104  C        221.5180  205.2940  163.7240 C.2   364  PRO364      0.2598
    105  O        221.6240  206.3060  164.4200 O.2   364  PRO364     -0.2715
    106  CB       220.1580  203.7270  165.1410 C.3   364  PRO364      0.0310
    107  CG       220.4690  202.3390  164.8080 C.3   364  PRO364      0.0237
    108  CD       220.0030  202.0930  163.4320 C.3   364  PRO364      0.0939
    109  N        222.4810  204.9120  162.8910 N.am  365  ARG365     -0.1978
    110  CA       223.5460  205.8480  162.5890 C.3   365  ARG365      0.1597
    111  C        223.1440  206.8310  161.5040 C.2   365  ARG365      0.2287
    112  O        223.6670  207.9450  161.4830 O.2   365  ARG365     -0.2864
    113  CB       224.8210  205.1130  162.1840 C.3   365  ARG365      0.0334
    114  CG       224.7920  204.4530  160.8320 C.3   365  ARG365      0.0492
    115  CD       226.0870  203.7340  160.5750 C.3   365  ARG365      0.2205
    116  NE       226.2260  202.5440  161.3980 N.pl3 365  ARG365     -0.0865
    117  CZ       227.3450  201.8390  161.4890 C.cat 365  ARG365      0.5346
    118  NH1      227.4000  200.7610  162.2560 N.pl3 365  ARG365      0.1354
    119  NH2      228.4170  202.2180  160.8160 N.pl3 365  ARG365      0.1354
    120  N        218.7890  209.8360  166.8830 N.3   371  THR371     -0.1218
    121  CA       219.5040  208.8880  167.7270 C.3   371  THR371      0.1862
    122  C        220.1140  209.5820  168.9380 C.2   371  THR371      0.2287
    123  O        220.1660  209.0080  170.0270 O.2   371  THR371     -0.2866
    124  CB       220.5850  208.1950  166.9040 C.3   371  THR371      0.1770
    125  OG1      219.9900  207.6300  165.7310 O.3   371  THR371     -0.2211
    126  CG2      221.2180  207.0820  167.6720 C.3   371  THR371      0.0375
    127  N        219.3320  208.9220  172.7240 N.3   375  SER375     -0.1217
    128  CA       220.3430  208.5510  173.6980 C.3   375  SER375      0.1889
    129  C        220.3550  209.4990  174.8880 C.2   375  SER375      0.2288
    130  O        220.7380  209.0840  175.9840 O.2   375  SER375     -0.2866
    131  CB       221.7140  208.4960  173.0400 C.3   375  SER375      0.2089
    132  OG       222.6960  208.1160  173.9800 O.3   375  SER375     -0.2183
    133  N        217.6390  207.7460  176.8020 N.3   378  ILE378     -0.1231
    134  CA       218.1540  206.4990  177.3730 C.3   378  ILE378      0.1692
    135  C        219.0330  206.7950  178.5730 C.2   378  ILE378      0.2591
    136  O        218.8620  206.2120  179.6440 O.2   378  ILE378     -0.2718
    137  CB       218.9310  205.6790  176.3250 C.3   378  ILE378      0.0266
    138  CG1      218.0530  205.2320  175.1610 C.3   378  ILE378      0.0019
    139  CG2      219.5430  204.4540  176.9620 C.3   378  ILE378      0.0020
    140  CD1      216.9060  204.3940  175.5330 C.3   378  ILE378      0.0001
    141  N        219.9700  207.7270  178.4220 N.am  379  ALA379     -0.1980
    142  CA       220.8920  208.0120  179.5090 C.3   379  ALA379      0.1597
    143  C        220.2270  208.7960  180.6280 C.2   379  ALA379      0.2287
    144  O        220.6430  208.6830  181.7810 O.2   379  ALA379     -0.2864
    145  CB       222.0980  208.7630  178.9700 C.3   379  ALA379      0.0319
    146  N        218.6590  206.0180  182.4810 N.3   382  LEU382     -0.1245
    147  CA       219.7050  205.3220  183.2220 C.3   382  LEU382      0.1561
    148  C        220.2020  206.1390  184.3970 C.2   382  LEU382      0.2260
    149  O        220.6700  205.5750  185.3860 O.2   382  LEU382     -0.2867
    150  CB       220.8870  204.9860  182.3170 C.3   382  LEU382      0.0270
    151  CG       220.9680  203.6060  181.6810 C.3   382  LEU382      0.0019
    152  CD1      221.0370  202.5830  182.7860 C.3   382  LEU382      0.0001
    153  CD2      219.8050  203.3310  180.7750 C.3   382  LEU382      0.0001
    154  N        219.6930  204.8230  187.9650 N.3   386  PHE386     -0.1241
    155  CA       220.9480  204.6560  188.6990 C.3   386  PHE386      0.1605
    156  C        221.1710  205.6910  189.7820 C.2   386  PHE386      0.2264
    157  O        222.2420  205.6910  190.3890 O.2   386  PHE386     -0.2867
    158  CB       222.1550  204.6700  187.7600 C.3   386  PHE386      0.0534
    159  CG       222.3700  203.3850  187.0260 C.ar  386  PHE386     -0.0203
    160  CD1      221.6430  202.2540  187.3540 C.ar  386  PHE386     -0.0042
    161  CD2      223.3350  203.2930  186.0390 C.ar  386  PHE386     -0.0042
    162  CE1      221.8420  201.0690  186.6880 C.ar  386  PHE386     -0.0003
    163  CE2      223.5470  202.1020  185.3730 C.ar  386  PHE386     -0.0003
    164  CZ       222.7970  200.9900  185.6970 C.ar  386  PHE386     -0.0000
    165  N        224.4460  215.3230  181.9790 N.3   415  LEU415     -0.1245
    166  CA       224.7460  214.0700  181.3020 C.3   415  LEU415      0.1561
    167  C        223.8910  213.8310  180.0540 C.2   415  LEU415      0.2260
    168  O        224.3960  213.1910  179.1290 O.2   415  LEU415     -0.2867
    169  CB       224.6370  212.9090  182.2990 C.3   415  LEU415      0.0270
    170  CG       225.1040  211.5110  181.8900 C.3   415  LEU415      0.0019
    171  CD1      225.7650  210.8290  183.0420 C.3   415  LEU415      0.0001
    172  CD2      223.9280  210.6810  181.4910 C.3   415  LEU415      0.0001
    173  N        226.0470  215.7710  177.6160 N.3   418  ILE418     -0.1231
    174  CA       227.2540  215.0240  177.2770 C.3   418  ILE418      0.1692
    175  C        226.9200  213.8650  176.3530 C.2   418  ILE418      0.2591
    176  O        227.5890  213.6510  175.3340 O.2   418  ILE418     -0.2718
    177  CB       227.9590  214.5390  178.5570 C.3   418  ILE418      0.0266
    178  CG1      228.4930  215.7270  179.3540 C.3   418  ILE418      0.0019
    179  CG2      229.0820  213.5760  178.2370 C.3   418  ILE418      0.0020
    180  CD1      228.9990  215.3580  180.7270 C.3   418  ILE418      0.0001
    181  N        225.8510  213.1340  176.6610 N.am  419  VAL419     -0.1980
    182  CA       225.5050  211.9880  175.8410 C.3   419  VAL419      0.1595
    183  C        224.8570  212.4280  174.5360 C.2   419  VAL419      0.2287
    184  O        224.9380  211.6920  173.5570 O.2   419  VAL419     -0.2864
    185  CB       224.6180  211.0020  176.6220 C.3   419  VAL419      0.0276
    186  CG1      223.1780  211.4330  176.6300 C.3   419  VAL419      0.0022
    187  CG2      224.7670  209.6000  176.0980 C.3   419  VAL419      0.0022
    188  N        228.1210  213.1780  172.4890 N.3   422  VAL422     -0.1231
    189  CA       228.7890  211.9280  172.1510 C.3   422  VAL422      0.1692
    190  C        227.9360  211.1070  171.1970 C.2   422  VAL422      0.2591
    191  O        228.4490  210.5360  170.2360 O.2   422  VAL422     -0.2718
    192  CB       229.1410  211.1570  173.4340 C.3   422  VAL422      0.0266
    193  CG1      229.6870  209.7890  173.1170 C.3   422  VAL422      0.0020
    194  CG2      230.1670  211.9260  174.2230 C.3   422  VAL422      0.0020
    195  N        226.6150  211.1350  171.3680 N.am  423  ALA423     -0.1980
    196  CA       225.7220  210.3420  170.5370 C.3   423  ALA423      0.1597
    197  C        225.6170  210.9010  169.1300 C.2   423  ALA423      0.2287
    198  O        225.6730  210.1440  168.1570 O.2   423  ALA423     -0.2864
    199  CB       224.3460  210.2970  171.1820 C.3   423  ALA423      0.0319
    200  N        228.9810  210.5330  167.4980 N.3   426  TRP426     -0.1227
    201  CA       229.3110  209.1300  167.3500 C.3   426  TRP426      0.1737
    202  C        228.4840  208.4970  166.2510 C.2   426  TRP426      0.2595
    203  O        228.9830  207.6250  165.5430 O.2   426  TRP426     -0.2718
    204  CB       229.1030  208.4150  168.6820 C.3   426  TRP426      0.0564
    205  CG       229.7410  207.0920  168.7700 C.ar  426  TRP426      0.0003
    206  CD1      231.0620  206.8320  168.6430 C.ar  426  TRP426      0.0946
    207  CD2      229.1150  205.8490  169.0800 C.ar  426  TRP426      0.0152
    208  NE1      231.3070  205.4990  168.8140 N.ar  426  TRP426     -0.2442
    209  CE2      230.1250  204.8700  169.0910 C.ar  426  TRP426      0.0810
    210  CE3      227.7960  205.4640  169.3370 C.ar  426  TRP426      0.0012
    211  CZ2      229.8630  203.5370  169.3410 C.ar  426  TRP426      0.0191
    212  CZ3      227.5300  204.1460  169.5910 C.ar  426  TRP426      0.0001
    213  CH2      228.5630  203.1900  169.5860 C.ar  426  TRP426      0.0015
    214  N        227.2440  208.9540  166.0670 N.am  427  ALA427     -0.1980
    215  CA       226.4500  208.5120  164.9300 C.3   427  ALA427      0.1597
    216  C        227.0400  209.0130  163.6220 C.2   427  ALA427      0.2287
    217  O        227.0700  208.2760  162.6300 O.2   427  ALA427     -0.2864
    218  CB       225.0090  208.9870  165.0870 C.3   427  ALA427      0.0319
    219  N        230.0730  206.9260  162.9880 N.3   430  LEU430     -0.1245
    220  CA       229.6810  205.6120  162.4940 C.3   430  LEU430      0.1561
    221  C        229.2180  205.6710  161.0530 C.2   430  LEU430      0.2260
    222  O        229.3520  204.6810  160.3290 O.2   430  LEU430     -0.2867
    223  CB       228.5720  205.0170  163.3450 C.3   430  LEU430      0.0270
    224  CG       228.9450  204.4580  164.6970 C.3   430  LEU430      0.0019
    225  CD1      227.6790  204.1440  165.4220 C.3   430  LEU430      0.0001
    226  CD2      229.6970  203.2100  164.4470 C.3   430  LEU430      0.0001
    227  N        223.7210  197.6100  156.3330 N.3   480  PRO480     -0.2116
    228  CA       224.9540  197.3580  157.0790 C.3   480  PRO480      0.1372
    229  C        226.0320  196.7980  156.1720 C.2   480  PRO480      0.2244
    230  O        225.9680  195.6420  155.7450 O.2   480  PRO480     -0.2868
    231  CB       224.5190  196.3570  158.1550 C.3   480  PRO480      0.0268
    232  CG       223.2990  195.7270  157.6180 C.3   480  PRO480      0.0207
    233  CD       222.6090  196.7700  156.8050 C.3   480  PRO480      0.0892
@<TRIPOS>BOND
     1    83    82    2
     2    82    81    1
     3   230   229    2
     4   229   228    1
     5   227   233    1
     6   227   228    1
     7   233   232    1
     8   228   231    1
     9    81    80    1
    10    81    84    1
    11   232   231    1
    12    84    85    1
    13    97    96    1
    14    97    98    1
    15   101    99    1
    16    96    95    1
    17    98    99    2
    18    99   100    1
    19    85    86   ar
    20    85    87   ar
    21    91    92    1
    22    86    88   ar
    23    95    92    1
    24    87    89   ar
    25   222   221    2
    26     1     2    1
    27    92    93    1
    28   115   114    1
    29   115   116    1
    30   119   117    1
    31   114   113    1
    32     5     2    1
    33     5     6    1
    34   221   220    1
    35    94    93    2
    36     8     6   ar
    37     8    10   ar
    38    88    90   ar
    39     2     3    1
    40   116   117    2
    41   112   111    2
    42   117   118    1
    43   111   110    1
    44    89    90   ar
    45    93   102   am
    46     6     7   ar
    47    76    75    2
    48   113   110    1
    49    10     9   ar
    50   220   219    1
    51   220   223    1
    52   110   109    1
    53   217   216    2
    54     3     4    2
    55     3    11   am
    56   102   108    1
    57   102   103    1
    58   109   104   am
    59     7     9   ar
    60    75    74    1
    61   223   224    1
    62   108   107    1
    63    11    12    1
    64   216   215    1
    65   104   103    1
    66   104   105    2
    67    77    74    1
    68    77    79    1
    69    77    78    1
    70    74    73    1
    71   103   106    1
    72    60    59    1
    73   226   224    1
    74    17    19   ar
    75    17    16   ar
    76    65    64    2
    77   224   225    1
    78   107   106    1
    79    12    15    1
    80    12    13    1
    81   215   218    1
    82   215   214    1
    83    61    59    1
    84    59    58    2
    85    19    20   ar
    86    73    64   am
    87    15    16    1
    88    64    63    1
    89    16    18   ar
    90   203   202    2
    91    25    13   am
    92    25    26    1
    93   125   124    1
    94    13    14    2
    95    58    57    1
    96    57    56    1
    97    29    30    1
    98    29    26    1
    99   214   202   am
   100   202   201    1
   101    27    26    1
   102    27    28    2
   103    20    18   ar
   104    20    22   ar
   105    18    21   ar
   106    54    53    2
   107   120   121    1
   108   124   126    1
   109   124   121    1
   110    63    62    1
   111    63    66    1
   112    22    24   ar
   113    56    55    1
   114   201   200    1
   115   201   204    1
   116    66    67    1
   117    53    52    1
   118   121   122    1
   119    21    23   ar
   120   198   197    2
   121    24    23   ar
   122    55    52    1
   123   206   205   ar
   124   206   208   ar
   125    52    51    1
   126   204   205    1
   127   205   207   ar
   128   208   209   ar
   129   122   123    2
   130    67    68   ar
   131    67    69   ar
   132    68    70   ar
   133   207   209   ar
   134   207   210   ar
   135   209   211   ar
   136   197   196    1
   137    31    32    1
   138   210   212   ar
   139   211   213   ar
   140    49    48    2
   141   213   212   ar
   142    51    48   am
   143    37    36    1
   144    36    35    1
   145    36    38    1
   146    69    71   ar
   147   191   190    2
   148    70    72   ar
   149    48    47    1
   150    35    32    1
   151    32    33    1
   152   196   199    1
   153   196   195    1
   154    33    34    2
   155   190   195   am
   156   190   189    1
   157    71    72   ar
   158    47    46    1
   159    47    50    1
   160   189   188    1
   161   189   192    1
   162    42    41    2
   163   127   128    1
   164   131   128    1
   165   131   132    1
   166   193   192    1
   167    41    40    1
   168   192   194    1
   169   184   183    2
   170   128   129    1
   171    44    43    1
   172   183   182    1
   173    40    43    1
   174    40    39    1
   175   129   130    2
   176    43    45    1
   177   138   140    1
   178   138   137    1
   179   176   175    2
   180   182   185    1
   181   182   181    1
   182   187   185    1
   183   137   139    1
   184   137   134    1
   185   175   181   am
   186   175   174    1
   187   185   186    1
   188   133   134    1
   189   174   173    1
   190   174   177    1
   191   134   135    1
   192   179   177    1
   193   141   135   am
   194   141   142    1
   195   177   178    1
   196   135   136    2
   197   145   142    1
   198   168   167    2
   199   178   180    1
   200   142   143    1
   201   167   166    1
   202   143   144    2
   203   153   151    1
   204   166   165    1
   205   166   169    1
   206   172   170    1
   207   151   150    1
   208   151   152    1
   209   170   169    1
   210   170   171    1
   211   150   147    1
   212   146   147    1
   213   147   148    1
   214   148   149    2
   215   163   164   ar
   216   163   161   ar
   217   164   162   ar
   218   161   159   ar
   219   162   160   ar
   220   159   160   ar
   221   159   158    1
   222   158   155    1
   223   154   155    1
   224   155   156    1
   225   156   157    2
