@<TRIPOS>MOLECULE
tmp/6adqC02.pdb
 117 109 0 0 0
SMALL
GASTEIGER

@<TRIPOS>ATOM
      1  N        138.7150  211.2290  173.3810 N.3   104  VAL104     -0.1245
      2  CA       139.8630  211.6300  174.1890 C.3   104  VAL104      0.1561
      3  C        139.4130  212.4750  175.3680 C.2   104  VAL104      0.2260
      4  O        139.8360  212.2360  176.5050 O.2   104  VAL104     -0.2867
      5  CB       140.9140  212.3530  173.3230 C.3   104  VAL104      0.0252
      6  CG1      141.8030  213.2420  174.1540 C.3   104  VAL104      0.0019
      7  CG2      141.8130  211.3420  172.6730 C.3   104  VAL104      0.0019
      8  N        137.5620  210.1490  177.7710 N.3   107  PHE107     -0.1227
      9  CA       138.5230  209.3670  178.5370 C.3   107  PHE107      0.1736
     10  C        139.2270  210.2170  179.5820 C.2   107  PHE107      0.2595
     11  O        139.5000  209.7390  180.6840 O.2   107  PHE107     -0.2718
     12  CB       139.5460  208.7380  177.5930 C.3   107  PHE107      0.0547
     13  CG       140.6380  207.9820  178.2890 C.ar  107  PHE107     -0.0202
     14  CD1      140.4190  206.7100  178.7770 C.ar  107  PHE107     -0.0042
     15  CD2      141.8960  208.5450  178.4420 C.ar  107  PHE107     -0.0042
     16  CE1      141.4300  206.0160  179.4080 C.ar  107  PHE107     -0.0003
     17  CE2      142.9020  207.8600  179.0780 C.ar  107  PHE107     -0.0003
     18  CZ       142.6690  206.5940  179.5590 C.ar  107  PHE107     -0.0000
     19  N        139.5270  211.4790  179.2590 N.am  108  LEU108     -0.1980
     20  CA       140.2200  212.3330  180.2210 C.3   108  LEU108      0.1596
     21  C        139.3380  212.6730  181.4100 C.2   108  LEU108      0.2287
     22  O        139.7820  212.5750  182.5560 O.2   108  LEU108     -0.2864
     23  CB       140.7250  213.6150  179.5680 C.3   108  LEU108      0.0297
     24  CG       141.9700  213.5040  178.7040 C.3   108  LEU108      0.0022
     25  CD1      142.2770  214.8450  178.0750 C.3   108  LEU108      0.0001
     26  CD2      143.1320  213.0230  179.5410 C.3   108  LEU108      0.0001
     27  N        138.7840  209.5140  183.4310 N.3   111  LEU111     -0.1245
     28  CA       139.9550  209.3620  184.2830 C.3   111  LEU111      0.1561
     29  C        139.9300  210.3480  185.4350 C.2   111  LEU111      0.2260
     30  O        140.3790  210.0260  186.5350 O.2   111  LEU111     -0.2867
     31  CB       141.2200  209.5460  183.4500 C.3   111  LEU111      0.0270
     32  CG       142.5630  209.4080  184.1530 C.3   111  LEU111      0.0019
     33  CD1      142.7050  208.0200  184.7130 C.3   111  LEU111      0.0001
     34  CD2      143.6920  209.7140  183.1960 C.3   111  LEU111      0.0001
     35  N        137.7060  208.7480  187.8950 N.3   114  VAL114     -0.1231
     36  CA       138.3800  207.6600  188.6050 C.3   114  VAL114      0.1692
     37  C        139.3670  208.2120  189.6300 C.2   114  VAL114      0.2591
     38  O        139.4500  207.7160  190.7590 O.2   114  VAL114     -0.2718
     39  CB       139.0650  206.7130  187.6020 C.3   114  VAL114      0.0266
     40  CG1      139.8650  205.6420  188.3110 C.3   114  VAL114      0.0020
     41  CG2      138.0390  206.0630  186.7300 C.3   114  VAL114      0.0020
     42  N        140.0880  209.2790  189.2800 N.am  115  LEU115     -0.1980
     43  CA       141.0100  209.8890  190.2310 C.3   115  LEU115      0.1596
     44  C        140.2750  210.6380  191.3330 C.2   115  LEU115      0.2287
     45  O        140.7450  210.6600  192.4730 O.2   115  LEU115     -0.2864
     46  CB       141.9780  210.8250  189.5140 C.3   115  LEU115      0.0297
     47  CG       142.9720  210.1500  188.5730 C.3   115  LEU115      0.0022
     48  CD1      143.8150  211.1850  187.8570 C.3   115  LEU115      0.0001
     49  CD2      143.8400  209.1720  189.3290 C.3   115  LEU115      0.0001
     50  N        136.7880  201.8590  185.2240 N.3   152  ILE152     -0.1245
     51  CA       138.1670  201.7490  184.7590 C.3   152  ILE152      0.1561
     52  C        138.2610  200.7160  183.6360 C.2   152  ILE152      0.2260
     53  O        139.0860  200.8610  182.7280 O.2   152  ILE152     -0.2867
     54  CB       139.1210  201.4570  185.9380 C.3   152  ILE152      0.0252
     55  CG1      140.5630  201.7520  185.5600 C.3   152  ILE152      0.0019
     56  CG2      139.1150  200.0250  186.3580 C.3   152  ILE152      0.0019
     57  CD1      141.5000  201.7380  186.7460 C.3   152  ILE152      0.0001
     58  N        137.1780  202.7550  180.6840 N.3   155  LEU155     -0.1231
     59  CA       138.3230  203.5440  180.2320 C.3   155  LEU155      0.1693
     60  C        139.3170  202.7070  179.4380 C.2   155  LEU155      0.2591
     61  O        139.9230  203.2000  178.4730 O.2   155  LEU155     -0.2718
     62  CB       139.0180  204.1850  181.4280 C.3   155  LEU155      0.0284
     63  CG       138.7000  205.6240  181.8090 C.3   155  LEU155      0.0019
     64  CD1      137.2710  205.8350  182.1940 C.3   155  LEU155      0.0001
     65  CD2      139.5720  205.9340  182.9920 C.3   155  LEU155      0.0001
     66  N        139.5310  201.4550  179.8550 N.am  156  VAL156     -0.1980
     67  CA       140.3500  200.5370  179.0680 C.3   156  VAL156      0.1595
     68  C        139.7270  200.3150  177.6950 C.2   156  VAL156      0.2287
     69  O        140.4290  200.3030  176.6760 O.2   156  VAL156     -0.2864
     70  CB       140.5640  199.2200  179.8360 C.3   156  VAL156      0.0276
     71  CG1      141.1310  198.1480  178.9360 C.3   156  VAL156      0.0022
     72  CG2      141.5270  199.4460  180.9780 C.3   156  VAL156      0.0022
     73  N        140.5620  203.6320  175.5780 N.3   159  VAL159     -0.1231
     74  CA       141.9310  203.7140  175.0590 C.3   159  VAL159      0.1692
     75  C        142.1950  202.6040  174.0430 C.2   159  VAL159      0.2591
     76  O        142.8790  202.8170  173.0270 O.2   159  VAL159     -0.2718
     77  CB       142.9470  203.7180  176.2210 C.3   159  VAL159      0.0266
     78  CG1      142.8700  202.4640  177.0620 C.3   159  VAL159      0.0020
     79  CG2      144.3600  203.8760  175.7170 C.3   159  VAL159      0.0020
     80  N        141.5610  201.4510  174.2360 N.am  160  LEU160     -0.1980
     81  CA       141.6950  200.3300  173.3240 C.3   160  LEU160      0.1596
     82  C        141.0290  200.6160  171.9820 C.2   160  LEU160      0.2287
     83  O        141.6400  200.4150  170.9240 O.2   160  LEU160     -0.2864
     84  CB       141.1160  199.1170  174.0340 C.3   160  LEU160      0.0297
     85  CG       140.9300  197.7350  173.4870 C.3   160  LEU160      0.0022
     86  CD1      141.1770  196.7320  174.5800 C.3   160  LEU160      0.0001
     87  CD2      139.4790  197.7020  173.1180 C.3   160  LEU160      0.0001
     88  N        140.5070  203.5580  170.8460 N.3   162  LEU162     -0.1231
     89  CA       141.2190  204.6640  170.2140 C.3   162  LEU162      0.1693
     90  C        142.4610  204.1810  169.4830 C.2   162  LEU162      0.2591
     91  O        142.7680  204.6670  168.3870 O.2   162  LEU162     -0.2718
     92  CB       141.5550  205.7280  171.2480 C.3   162  LEU162      0.0284
     93  CG       140.5950  206.9130  171.2270 C.3   162  LEU162      0.0019
     94  CD1      139.1550  206.5050  171.3080 C.3   162  LEU162      0.0001
     95  CD2      140.9120  207.7720  172.4330 C.3   162  LEU162      0.0001
     96  N        143.1640  203.1970  170.0480 N.am  163  ALA163     -0.1980
     97  CA       144.2450  202.5700  169.2930 C.3   163  ALA163      0.1597
     98  C        143.7100  201.8240  168.0740 C.2   163  ALA163      0.2287
     99  O        144.3530  201.8080  167.0110 O.2   163  ALA163     -0.2864
    100  CB       145.0380  201.6330  170.1930 C.3   163  ALA163      0.0319
    101  N        143.2950  204.2300  165.4960 N.3   166  LYS166     -0.1231
    102  CA       144.5920  204.5830  164.9270 C.3   166  LYS166      0.1693
    103  C        145.0360  203.5760  163.8710 C.2   166  LYS166      0.2591
    104  O        145.6700  203.9610  162.8830 O.2   166  LYS166     -0.2718
    105  CB       145.6440  204.7020  166.0350 C.3   166  LYS166      0.0285
    106  CG       147.0430  205.0980  165.5680 C.3   166  LYS166      0.0035
    107  CD       147.0590  206.5090  165.0090 C.3   166  LYS166      0.0206
    108  CE       148.4670  206.9490  164.6280 C.3   166  LYS166      0.1093
    109  NZ       149.0020  206.1850  163.4650 N.3   166  LYS166     -0.1314
    110  N        144.6910  202.2990  164.0270 N.am  167  MET167     -0.1979
    111  CA       145.3310  201.2850  163.1950 C.3   167  MET167      0.1605
    112  C        144.5580  200.8530  161.9490 C.2   167  MET167      0.2287
    113  O        145.0870  200.0380  161.1880 O.2   167  MET167     -0.2864
    114  CB       145.6570  200.0440  164.0230 C.3   167  MET167      0.0413
    115  CG       144.4770  199.3730  164.6590 C.3   167  MET167      0.0598
    116  SD       145.0460  197.8660  165.4440 S.3   167  MET167     -0.1393
    117  CE       146.1240  198.5450  166.6870 C.3   167  MET167      0.0692
@<TRIPOS>BOND
     1   113   112    2
     2   112   111    1
     3   104   103    2
     4   111   114    1
     5   111   110    1
     6   109   108    1
     7   103   110   am
     8   103   102    1
     9   114   115    1
    10   108   107    1
    11   115   116    1
    12   102   101    1
    13   102   105    1
    14   107   106    1
    15   116   117    1
    16   106   105    1
    17    99    98    2
    18    98    97    1
    19    91    90    2
    20    97    96    1
    21    97   100    1
    22    90    96   am
    23    90    89    1
    24    89    88    1
    25    89    92    1
    26    83    82    2
    27    93    92    1
    28    93    94    1
    29    93    95    1
    30    82    81    1
    31     7     5    1
    32    76    75    2
    33    87    85    1
    34     5     6    1
    35     5     2    1
    36    81    84    1
    37    81    80    1
    38     1     2    1
    39    85    84    1
    40    85    86    1
    41    75    80   am
    42    75    74    1
    43     2     3    1
    44    74    73    1
    45    74    77    1
    46     3     4    2
    47    79    77    1
    48    77    78    1
    49    69    68    2
    50    12    13    1
    51    12     9    1
    52    68    67    1
    53     8     9    1
    54    25    24    1
    55    13    15   ar
    56    13    14   ar
    57    15    17   ar
    58    61    60    2
    59     9    10    1
    60    24    26    1
    61    24    23    1
    62    14    16   ar
    63    71    70    1
    64    67    70    1
    65    67    66    1
    66    17    18   ar
    67    19    10   am
    68    19    20    1
    69    16    18   ar
    70    60    66   am
    71    60    59    1
    72    23    20    1
    73    10    11    2
    74    70    72    1
    75    20    21    1
    76    59    58    1
    77    59    62    1
    78    21    22    2
    79    62    63    1
    80    63    64    1
    81    63    65    1
    82    53    52    2
    83    34    32    1
    84    27    28    1
    85    31    32    1
    86    31    28    1
    87    52    51    1
    88    32    33    1
    89    28    29    1
    90    51    50    1
    91    51    54    1
    92    29    30    2
    93    55    54    1
    94    55    57    1
    95    54    56    1
    96    41    39    1
    97    39    40    1
    98    39    36    1
    99    48    47    1
   100    35    36    1
   101    47    49    1
   102    47    46    1
   103    36    37    1
   104    42    37   am
   105    42    43    1
   106    46    43    1
   107    37    38    2
   108    43    44    1
   109    44    45    2
