@<TRIPOS>MOLECULE
tmp/6adqV17.pdb
 86 79 0 0 0
SMALL
GASTEIGER

@<TRIPOS>ATOM
      1  N        186.1930  171.3630  157.5260 N.3    13  ILE13      -0.1245
      2  CA       186.4160  172.7690  157.8600 C.3    13  ILE13       0.1561
      3  C        186.1680  173.6550  156.6450 C.2    13  ILE13       0.2260
      4  O        185.5350  174.7120  156.7490 O.2    13  ILE13      -0.2867
      5  CB       187.8290  172.9630  158.4410 C.3    13  ILE13       0.0252
      6  CG1      187.9440  172.2750  159.7970 C.3    13  ILE13       0.0019
      7  CG2      188.1680  174.4270  158.5990 C.3    13  ILE13       0.0019
      8  CD1      189.3500  172.2570  160.3440 C.3    13  ILE13       0.0001
      9  N        182.9060  176.3660  156.9490 N.3    17  TYR17      -0.1241
     10  CA       183.3780  177.7220  156.7630 C.3    17  TYR17       0.1605
     11  C        183.9320  177.7900  155.3570 C.2    17  TYR17       0.2264
     12  O        183.9240  176.8000  154.6290 O.2    17  TYR17      -0.2867
     13  CB       184.4440  178.0270  157.8080 C.3    17  TYR17       0.0534
     14  CG       183.9520  177.7490  159.1930 C.ar   17  TYR17      -0.0201
     15  CD1      182.6500  178.0480  159.5660 C.ar   17  TYR17      -0.0009
     16  CD2      184.7340  177.0410  160.0820 C.ar   17  TYR17      -0.0009
     17  CE1      182.1890  177.7390  160.8020 C.ar   17  TYR17       0.0417
     18  CE2      184.2710  176.7230  161.3270 C.ar   17  TYR17       0.0417
     19  CZ       182.9960  177.0810  161.6760 C.ar   17  TYR17       0.1957
     20  OH       182.4950  176.7880  162.9120 O.3    17  TYR17      -0.2866
     21  N        187.4120  179.0970  154.8670 N.3    19  PRO19      -0.2116
     22  CA       188.5240  179.8620  155.4430 C.3    19  PRO19       0.1372
     23  C        189.7340  179.9920  154.5490 C.2    19  PRO19       0.2244
     24  O        190.5160  180.9270  154.7630 O.2    19  PRO19      -0.2868
     25  CB       188.8820  179.0600  156.6940 C.3    19  PRO19       0.0268
     26  CG       188.6030  177.6780  156.2990 C.3    19  PRO19       0.0207
     27  CD       187.4180  177.7100  155.3700 C.3    19  PRO19       0.0892
     28  N        199.9500  185.8450  182.0280 N.3    51  LEU51      -0.1245
     29  CA       198.6190  185.3010  182.2410 C.3    51  LEU51       0.1561
     30  C        198.6980  183.8850  182.7900 C.2    51  LEU51       0.2260
     31  O        198.0090  183.5630  183.7630 O.2    51  LEU51      -0.2867
     32  CB       197.7980  185.3410  180.9540 C.3    51  LEU51       0.0270
     33  CG       197.0250  186.6270  180.6550 C.3    51  LEU51       0.0019
     34  CD1      197.9270  187.7380  180.2140 C.3    51  LEU51       0.0001
     35  CD2      195.9670  186.3820  179.6050 C.3    51  LEU51       0.0001
     36  N        196.9040  183.9330  186.2640 N.3    55  VAL55      -0.1245
     37  CA       195.6450  183.2330  186.5230 C.3    55  VAL55       0.1561
     38  C        195.8020  182.2560  187.6790 C.2    55  VAL55       0.2260
     39  O        194.9730  182.2160  188.5970 O.2    55  VAL55      -0.2867
     40  CB       195.1670  182.5180  185.2480 C.3    55  VAL55       0.0252
     41  CG1      194.0600  181.5580  185.5620 C.3    55  VAL55       0.0019
     42  CG2      194.6790  183.5250  184.2480 C.3    55  VAL55       0.0019
     43  N        194.0600  192.2000  188.1450 N.3   209  ILE209     -0.1231
     44  CA       193.7190  191.0000  187.3920 C.3   209  ILE209      0.1692
     45  C        193.1790  191.3800  186.0290 C.2   209  ILE209      0.2591
     46  O        193.7160  190.9850  184.9910 O.2   209  ILE209     -0.2718
     47  CB       192.6760  190.1490  188.1200 C.3   209  ILE209      0.0266
     48  CG1      193.1300  189.6880  189.4750 C.3   209  ILE209      0.0019
     49  CG2      192.4040  188.9180  187.3110 C.3   209  ILE209      0.0020
     50  CD1      191.9860  189.0190  190.1180 C.3   209  ILE209      0.0001
     51  N        192.0760  192.1200  186.0180 N.am  210  LEU210     -0.1980
     52  CA       191.3020  192.3330  184.8100 C.3   210  LEU210      0.1596
     53  C        191.3940  193.7420  184.2520 C.2   210  LEU210      0.2287
     54  O        191.6420  193.8890  183.0590 O.2   210  LEU210     -0.2864
     55  CB       189.8330  191.9690  185.0590 C.3   210  LEU210      0.0297
     56  CG       188.8910  192.1020  183.8610 C.3   210  LEU210      0.0022
     57  CD1      187.9860  190.9160  183.7720 C.3   210  LEU210      0.0001
     58  CD2      188.0160  193.3320  183.9880 C.3   210  LEU210      0.0001
     59  N        194.8680  194.7560  182.8190 N.3   213  PRO213     -0.2102
     60  CA       195.2300  193.7800  181.7740 C.3   213  PRO213      0.1504
     61  C        194.1650  193.5250  180.7320 C.2   213  PRO213      0.2576
     62  O        194.5080  193.0170  179.6650 O.2   213  PRO213     -0.2718
     63  CB       195.5300  192.5040  182.5620 C.3   213  PRO213      0.0282
     64  CG       195.9560  192.9790  183.8240 C.3   213  PRO213      0.0208
     65  CD       195.0790  194.1320  184.1400 C.3   213  PRO213      0.0893
     66  N        192.9030  193.8730  180.9740 N.am  214  GLY214     -0.1957
     67  CA       191.9440  193.8780  179.8830 C.3   214  GLY214      0.1869
     68  C        192.2800  194.9270  178.8450 C.2   214  GLY214      0.2309
     69  O        192.2410  194.6550  177.6420 O.2   214  GLY214     -0.2863
     70  N        195.4870  193.7120  177.1130 N.3   217  LEU217     -0.1245
     71  CA       195.2110  192.6760  176.1260 C.3   217  LEU217      0.1561
     72  C        194.5030  193.2470  174.9070 C.2   217  LEU217      0.2260
     73  O        194.7820  192.8310  173.7790 O.2   217  LEU217     -0.2867
     74  CB       194.3830  191.5610  176.7600 C.3   217  LEU217      0.0270
     75  CG       194.0360  190.3910  175.8480 C.3   217  LEU217      0.0019
     76  CD1      195.3000  189.7590  175.3500 C.3   217  LEU217      0.0001
     77  CD2      193.1940  189.3770  176.5820 C.3   217  LEU217      0.0001
     78  N        196.1210  193.2160  171.2750 N.3   221  GLY221     -0.1225
     79  CA       195.3930  192.6500  170.1510 C.3   221  GLY221      0.1811
     80  C        195.2990  193.6080  168.9780 C.2   221  GLY221      0.2280
     81  O        195.6430  193.2540  167.8460 O.2   221  GLY221     -0.2866
     82  N        197.4220  193.5380  165.5120 N.3   225  ALA225     -0.1245
     83  CA       196.6470  193.6660  164.2820 C.3   225  ALA225      0.1562
     84  C        197.1970  194.7730  163.3920 C.2   225  ALA225      0.2260
     85  O        197.2110  194.6400  162.1640 O.2   225  ALA225     -0.2867
     86  CB       195.1800  193.9260  164.6060 C.3   225  ALA225      0.0290
@<TRIPOS>BOND
     1    23    24    2
     2    23    22    1
     3    12    11    2
     4    21    27    1
     5    21    22    1
     6    11    10    1
     7    27    26    1
     8    22    25    1
     9    26    25    1
    10     3     4    2
    11     3     2    1
    12    10     9    1
    13    10    13    1
    14     1     2    1
    15    13    14    1
    16     2     5    1
    17     5     7    1
    18     5     6    1
    19    14    15   ar
    20    14    16   ar
    21    15    17   ar
    22     6     8    1
    23    16    18   ar
    24    17    19   ar
    25    18    19   ar
    26    19    20    1
    27    85    84    2
    28    84    83    1
    29    83    86    1
    30    83    82    1
    31    81    80    2
    32    80    79    1
    33    79    78    1
    34    73    72    2
    35    72    71    1
    36    76    75    1
    37    75    77    1
    38    75    74    1
    39    71    74    1
    40    71    70    1
    41    69    68    2
    42    68    67    1
    43    35    33    1
    44    62    61    2
    45    67    66    1
    46    34    33    1
    47    33    32    1
    48    61    66   am
    49    61    60    1
    50    32    29    1
    51    60    63    1
    52    60    59    1
    53    28    29    1
    54    29    30    1
    55    63    64    1
    56    30    31    2
    57    59    65    1
    58    54    53    2
    59    57    56    1
    60    64    65    1
    61    56    58    1
    62    56    55    1
    63    42    40    1
    64    53    52    1
    65    52    55    1
    66    52    51    1
    67    46    45    2
    68    40    41    1
    69    40    37    1
    70    51    45   am
    71    45    44    1
    72    36    37    1
    73    37    38    1
    74    49    47    1
    75    44    47    1
    76    44    43    1
    77    38    39    2
    78    47    48    1
    79    48    50    1
