@<TRIPOS>MOLECULE
tmp/6adqC01.pdb
 84 82 0 0 0
SMALL
GASTEIGER

@<TRIPOS>ATOM
      1  N        138.2470  207.9880  198.1560 N.3   121  TYR121     -0.1241
      2  CA       138.5360  206.7960  198.9450 C.3   121  TYR121      0.1605
      3  C        139.7000  207.0190  199.9030 C.2   121  TYR121      0.2264
      4  O        139.6370  206.5820  201.0540 O.2   121  TYR121     -0.2867
      5  CB       138.8100  205.6060  198.0320 C.3   121  TYR121      0.0534
      6  CG       137.5650  205.0670  197.3770 C.ar  121  TYR121     -0.0201
      7  CD1      136.3090  205.4050  197.8600 C.ar  121  TYR121     -0.0009
      8  CD2      137.6430  204.2200  196.2840 C.ar  121  TYR121     -0.0009
      9  CE1      135.1760  204.9290  197.2740 C.ar  121  TYR121      0.0417
     10  CE2      136.5070  203.7340  195.6910 C.ar  121  TYR121      0.0417
     11  CZ       135.2800  204.0970  196.1940 C.ar  121  TYR121      0.1957
     12  OH       134.1340  203.6250  195.6220 O.3   121  TYR121     -0.2866
     13  N        139.1810  207.0220  203.8710 N.3   125  VAL125     -0.1245
     14  CA       139.7790  205.9390  204.6420 C.3   125  VAL125      0.1561
     15  C        140.8380  206.4430  205.6260 C.2   125  VAL125      0.2260
     16  O        141.0870  205.7760  206.6410 O.2   125  VAL125     -0.2867
     17  CB       140.3700  204.8470  203.7130 C.3   125  VAL125      0.0252
     18  CG1      141.7190  205.2410  203.1300 C.3   125  VAL125      0.0019
     19  CG2      140.4700  203.5060  204.4060 C.3   125  VAL125      0.0019
     20  N        137.1740  201.8450  207.0880 N.3   130  THR130     -0.1203
     21  CA       137.8690  200.9300  206.2010 C.3   130  THR130      0.1994
     22  C        136.8960  199.8330  205.7900 C.2   130  THR130      0.2618
     23  O        135.8100  199.7000  206.3550 O.2   130  THR130     -0.2717
     24  CB       139.1020  200.3170  206.8780 C.3   130  THR130      0.1784
     25  OG1      138.6900  199.4950  207.9730 O.3   130  THR130     -0.2211
     26  CG2      140.0220  201.3930  207.4140 C.3   130  THR130      0.0376
     27  N        137.2800  199.0440  204.7930 N.am  131  ILE131     -0.1966
     28  CA       136.4340  197.9310  204.3680 C.3   131  ILE131      0.1712
     29  C        136.3910  196.7910  205.3980 C.2   131  ILE131      0.2458
     30  O        135.3790  196.0810  205.4140 O.2   131  ILE131     -0.2730
     31  CB       136.7880  197.4840  202.9250 C.3   131  ILE131      0.0289
     32  CG1      135.6440  196.7140  202.2710 C.3   131  ILE131      0.0022
     33  CG2      138.0050  196.6160  202.8030 C.3   131  ILE131      0.0023
     34  CD1      135.8240  196.5350  200.7870 C.3   131  ILE131      0.0001
     35  N        137.3540  196.5530  206.2960 N.am  132  PRO132     -0.2727
     36  CA       137.0040  195.7560  207.4810 C.3   132  PRO132      0.1402
     37  C        136.5770  196.5710  208.6910 C.2   132  PRO132      0.2269
     38  O        136.5320  196.0180  209.7920 O.2   132  PRO132     -0.2865
     39  CB       138.3090  195.0150  207.7870 C.3   132  PRO132      0.0296
     40  CG       139.3210  195.9500  207.4350 C.3   132  PRO132      0.0237
     41  CD       138.8330  196.6530  206.2210 C.3   132  PRO132      0.0939
     42  N        132.4390  200.8790  200.0750 N.3   141  TYR141     -0.1227
     43  CA       133.6460  200.6000  199.3120 C.3   141  TYR141      0.1736
     44  C        133.4480  199.5360  198.2500 C.2   141  TYR141      0.2595
     45  O        134.2570  199.4550  197.3240 O.2   141  TYR141     -0.2718
     46  CB       134.7670  200.1660  200.2470 C.3   141  TYR141      0.0548
     47  CG       135.3260  201.2830  201.0810 C.ar  141  TYR141     -0.0200
     48  CD1      135.1630  202.6070  200.7070 C.ar  141  TYR141     -0.0009
     49  CD2      135.9910  201.0130  202.2640 C.ar  141  TYR141     -0.0009
     50  CE1      135.6700  203.6280  201.4740 C.ar  141  TYR141      0.0417
     51  CE2      136.4980  202.0250  203.0380 C.ar  141  TYR141      0.0417
     52  CZ       136.3370  203.3290  202.6420 C.ar  141  TYR141      0.1957
     53  OH       136.8600  204.3210  203.4370 O.3   141  TYR141     -0.2866
     54  N        132.4260  198.6980  198.3690 N.am  142  LEU142     -0.1980
     55  CA       132.1980  197.6990  197.3330 C.3   142  LEU142      0.1596
     56  C        131.1050  198.0840  196.3430 C.2   142  LEU142      0.2287
     57  O        131.2090  197.7380  195.1630 O.2   142  LEU142     -0.2864
     58  CB       131.8850  196.3420  197.9740 C.3   142  LEU142      0.0297
     59  CG       131.8360  195.1310  197.0450 C.3   142  LEU142      0.0022
     60  CD1      132.5330  193.9890  197.7020 C.3   142  LEU142      0.0001
     61  CD2      130.4030  194.7230  196.7430 C.3   142  LEU142      0.0001
     62  N        133.0290  200.9430  194.6660 N.3   145  GLY145     -0.1210
     63  CA       134.3910  200.6210  194.3040 C.3   145  GLY145      0.1956
     64  C        134.4530  199.6610  193.1430 C.2   145  GLY145      0.2611
     65  O        135.2770  199.8290  192.2380 O.2   145  GLY145     -0.2717
     66  N        133.5830  198.6520  193.1400 N.am  146  PHE146     -0.1976
     67  CA       133.5500  197.8070  191.9580 C.3   146  PHE146      0.1639
     68  C        132.8930  198.5360  190.8000 C.2   146  PHE146      0.2290
     69  O        133.1770  198.2170  189.6480 O.2   146  PHE146     -0.2864
     70  CB       132.8400  196.4800  192.2140 C.3   146  PHE146      0.0560
     71  CG       133.2850  195.3900  191.2770 C.ar  146  PHE146     -0.0200
     72  CD1      134.4240  194.6570  191.5510 C.ar  146  PHE146     -0.0042
     73  CD2      132.6230  195.1540  190.0800 C.ar  146  PHE146     -0.0042
     74  CE1      134.8530  193.6700  190.6750 C.ar  146  PHE146     -0.0003
     75  CE2      133.0460  194.1710  189.1970 C.ar  146  PHE146     -0.0003
     76  CZ       134.1800  193.4270  189.5030 C.ar  146  PHE146     -0.0000
     77  N        135.7730  199.7930  189.3200 N.3   149  LEU149     -0.1245
     78  CA       136.3450  198.8120  188.4010 C.3   149  LEU149      0.1561
     79  C        135.5870  198.7580  187.0760 C.2   149  LEU149      0.2260
     80  O        136.2020  198.5590  186.0240 O.2   149  LEU149     -0.2867
     81  CB       136.4100  197.4330  189.0510 C.3   149  LEU149      0.0270
     82  CG       137.7060  197.1560  189.8240 C.3   149  LEU149      0.0019
     83  CD1      137.8010  197.8700  191.1610 C.3   149  LEU149      0.0001
     84  CD2      137.8910  195.6660  190.0100 C.3   149  LEU149      0.0001
@<TRIPOS>BOND
     1    80    79    2
     2    79    78    1
     3    78    81    1
     4    78    77    1
     5    81    82    1
     6    75    76   ar
     7    75    73   ar
     8    76    74   ar
     9    69    68    2
    10    82    84    1
    11    82    83    1
    12    73    71   ar
    13    74    72   ar
    14    68    67    1
    15    71    72   ar
    16    71    70    1
    17    67    70    1
    18    67    66    1
    19    65    64    2
    20    66    64   am
    21    64    63    1
    22    63    62    1
    23    57    56    2
    24    12    11    1
    25    10    11   ar
    26    10     8   ar
    27    11     9   ar
    28     8     6   ar
    29    56    55    1
    30    61    59    1
    31    59    60    1
    32    59    58    1
    33     9     7   ar
    34    45    44    2
    35    55    58    1
    36    55    54    1
    37     6     7   ar
    38     6     5    1
    39     5     2    1
    40     1     2    1
    41    44    54   am
    42    44    43    1
    43     2     3    1
    44    43    42    1
    45    43    46    1
    46     3     4    2
    47    46    47    1
    48    48    47   ar
    49    48    50   ar
    50    34    32    1
    51    47    49   ar
    52    50    52   ar
    53    49    51   ar
    54    32    31    1
    55    52    51   ar
    56    52    53    1
    57    33    31    1
    58    31    28    1
    59    18    17    1
    60    17    19    1
    61    17    14    1
    62    13    14    1
    63    28    27    1
    64    28    29    1
    65    14    15    1
    66    27    22   am
    67    29    30    2
    68    29    35   am
    69    15    16    2
    70    22    21    1
    71    22    23    2
    72    21    24    1
    73    21    20    1
    74    41    35    1
    75    41    40    1
    76    35    36    1
    77    24    26    1
    78    24    25    1
    79    40    39    1
    80    36    39    1
    81    36    37    1
    82    37    38    2
