@<TRIPOS>MOLECULE
tmp/6adqV00.pdb
 93 95 0 0 0
SMALL
GASTEIGER

@<TRIPOS>ATOM
      1  N        197.8200  219.9440  193.0720 N.3   180  PRO180     -0.2116
      2  CA       197.2820  221.1740  193.6730 C.3   180  PRO180      0.1372
      3  C        195.7810  221.2510  193.9080 C.2   180  PRO180      0.2244
      4  O        195.3620  221.2970  195.0600 O.2   180  PRO180     -0.2868
      5  CB       197.7120  222.2540  192.6740 C.3   180  PRO180      0.0268
      6  CG       198.8970  221.7080  192.0270 C.3   180  PRO180      0.0207
      7  CD       198.6450  220.2490  191.8940 C.3   180  PRO180      0.0892
      8  N        209.1290  223.8200  196.7230 N.3   316  GLU316     -0.1231
      9  CA       207.7160  223.9020  197.0350 C.3   316  GLU316      0.1699
     10  C        207.2470  225.3450  196.9450 C.2   316  GLU316      0.2592
     11  O        208.0160  226.2790  197.1840 O.2   316  GLU316     -0.2718
     12  CB       207.4280  223.3560  198.4280 C.3   316  GLU316      0.0402
     13  CG       207.7170  221.8890  198.5770 C.3   316  GLU316      0.1161
     14  CD       207.3180  221.3760  199.9340 C.2   316  GLU316      0.3649
     15  OE1      206.9250  222.2050  200.7790 O.co2 316  GLU316     -0.2457
     16  OE2      207.3890  220.1510  200.1560 O.co2 316  GLU316     -0.2457
     17  N        205.9790  225.5190  196.5990 N.am  317  PHE317     -0.1962
     18  CA       205.3720  226.8360  196.5200 C.3   317  PHE317      0.1771
     19  C        204.2700  226.9730  197.5540 C.2   317  PHE317      0.2620
     20  O        203.6640  225.9870  197.9760 O.2   317  PHE317     -0.2715
     21  CB       204.8030  227.1020  195.1360 C.3   317  PHE317      0.0574
     22  CG       205.8430  227.2600  194.0930 C.ar  317  PHE317     -0.0200
     23  CD1      206.5560  228.4360  193.9940 C.ar  317  PHE317     -0.0042
     24  CD2      206.1060  226.2420  193.2050 C.ar  317  PHE317     -0.0042
     25  CE1      207.5210  228.5910  193.0300 C.ar  317  PHE317     -0.0003
     26  CE2      207.0610  226.3950  192.2420 C.ar  317  PHE317     -0.0003
     27  CZ       207.7730  227.5670  192.1550 C.ar  317  PHE317     -0.0000
     28  N        204.0160  228.2130  197.9600 N.am  318  TYR318     -0.1960
     29  CA       203.0240  228.5120  198.9870 C.3   318  TYR318      0.1756
     30  C        202.1850  229.6920  198.5270 C.2   318  TYR318      0.2461
     31  O        202.5230  230.8520  198.7950 O.2   318  TYR318     -0.2730
     32  CB       203.6950  228.7910  200.3260 C.3   318  TYR318      0.0574
     33  CG       204.4380  227.5890  200.8150 C.ar  318  TYR318     -0.0198
     34  CD1      203.7780  226.5650  201.4630 C.ar  318  TYR318     -0.0009
     35  CD2      205.7930  227.4520  200.5790 C.ar  318  TYR318     -0.0009
     36  CE1      204.4540  225.4540  201.8910 C.ar  318  TYR318      0.0417
     37  CE2      206.4730  226.3430  200.9960 C.ar  318  TYR318      0.0417
     38  CZ       205.7990  225.3520  201.6500 C.ar  318  TYR318      0.1957
     39  OH       206.4860  224.2500  202.0620 O.3   318  TYR318     -0.2866
     40  N        201.0780  229.4340  197.8420 N.am  319  PRO319     -0.2716
     41  CA       200.1370  230.5100  197.5210 C.3   319  PRO319      0.1536
     42  C        199.3420  230.9670  198.7280 C.2   319  PRO319      0.2598
     43  O        199.6480  230.6030  199.8670 O.2   319  PRO319     -0.2715
     44  CB       199.2260  229.8770  196.4680 C.3   319  PRO319      0.0310
     45  CG       200.0170  228.7970  195.9030 C.3   319  PRO319      0.0237
     46  CD       200.8070  228.2400  197.0340 C.3   319  PRO319      0.0939
     47  N        198.3150  231.7710  198.4830 N.am  320  PHE320     -0.1974
     48  CA       197.6190  232.4500  199.5630 C.3   320  PHE320      0.1639
     49  C        196.8130  231.4650  200.3970 C.2   320  PHE320      0.2290
     50  O        195.6210  231.2530  200.1620 O.2   320  PHE320     -0.2864
     51  CB       196.7270  233.5450  198.9890 C.3   320  PHE320      0.0560
     52  CG       197.4930  234.6480  198.3280 C.ar  320  PHE320     -0.0200
     53  CD1      198.0350  235.6800  199.0800 C.ar  320  PHE320     -0.0042
     54  CD2      197.6940  234.6410  196.9570 C.ar  320  PHE320     -0.0042
     55  CE1      198.7480  236.6950  198.4760 C.ar  320  PHE320     -0.0003
     56  CE2      198.4070  235.6500  196.3440 C.ar  320  PHE320     -0.0003
     57  CZ       198.9360  236.6810  197.1060 C.ar  320  PHE320     -0.0000
     58  N        201.6770  224.0290  197.3240 N.3   324  ILE324     -0.1245
     59  CA       202.1320  223.0970  196.2980 C.3   324  ILE324      0.1561
     60  C        203.3710  222.3920  196.8440 C.2   324  ILE324      0.2260
     61  O        204.3760  223.0660  197.1240 O.2   324  ILE324     -0.2867
     62  CB       202.4190  223.7970  194.9630 C.3   324  ILE324      0.0252
     63  CG1      201.1190  224.1330  194.2420 C.3   324  ILE324      0.0019
     64  CG2      203.2970  222.9470  194.0630 C.3   324  ILE324      0.0019
     65  CD1      200.6590  225.5070  194.4540 C.3   324  ILE324      0.0001
     66  N        204.0020  217.5530  193.3270 N.3   328  VAL328     -0.1231
     67  CA       203.3300  218.0950  192.1520 C.3   328  VAL328      0.1692
     68  C        204.2360  218.0030  190.9360 C.2   328  VAL328      0.2592
     69  O        203.8000  217.5730  189.8590 O.2   328  VAL328     -0.2718
     70  CB       202.8840  219.5420  192.4160 C.3   328  VAL328      0.0266
     71  CG1      202.2890  220.1530  191.1700 C.3   328  VAL328      0.0020
     72  CG2      201.8880  219.5780  193.5440 C.3   328  VAL328      0.0020
     73  N        205.5220  218.3480  191.1160 N.am  329  TRP329     -0.1976
     74  CA       206.4910  218.4480  190.0240 C.3   329  TRP329      0.1640
     75  C        206.6170  217.1470  189.2500 C.2   329  TRP329      0.2290
     76  O        206.4840  217.1290  188.0220 O.2   329  TRP329     -0.2864
     77  CB       207.8630  218.8250  190.5680 C.3   329  TRP329      0.0576
     78  CG       208.0150  220.2020  191.0670 C.ar  329  TRP329      0.0006
     79  CD1      208.0070  220.6070  192.3640 C.ar  329  TRP329      0.0946
     80  CD2      208.2600  221.3690  190.2830 C.ar  329  TRP329      0.0152
     81  NE1      208.2140  221.9580  192.4390 N.ar  329  TRP329     -0.2442
     82  CE2      208.3690  222.4490  191.1710 C.ar  329  TRP329      0.0810
     83  CE3      208.3780  221.6080  188.9120 C.ar  329  TRP329      0.0012
     84  CZ2      208.6000  223.7440  190.7360 C.ar  329  TRP329      0.0191
     85  CZ3      208.6080  222.8980  188.4840 C.ar  329  TRP329      0.0001
     86  CH2      208.7130  223.9500  189.3920 C.ar  329  TRP329      0.0015
     87  N        203.6610  216.4950  187.5320 N.3   332  VAL332     -0.1245
     88  CA       203.8240  217.1510  186.2450 C.3   332  VAL332      0.1561
     89  C        204.8280  216.3840  185.4000 C.2   332  VAL332      0.2260
     90  O        204.5910  216.1250  184.2130 O.2   332  VAL332     -0.2867
     91  CB       204.2450  218.6160  186.4480 C.3   332  VAL332      0.0252
     92  CG1      204.5570  219.2760  185.1220 C.3   332  VAL332      0.0019
     93  CG2      203.1520  219.3770  187.1620 C.3   332  VAL332      0.0019
@<TRIPOS>BOND
     1    90    89    2
     2    92    91    1
     3    89    88    1
     4    88    91    1
     5    88    87    1
     6    91    93    1
     7    76    75    2
     8    85    83   ar
     9    85    86   ar
    10    83    80   ar
    11    75    74    1
    12    86    84   ar
    13    69    68    2
    14    74    77    1
    15    74    73    1
    16    80    78   ar
    17    80    82   ar
    18    77    78    1
    19    84    82   ar
    20    68    73   am
    21    68    67    1
    22    78    79   ar
    23    71    70    1
    24    82    81   ar
    25     7     6    1
    26     7     1    1
    27     6     5    1
    28    67    70    1
    29    67    66    1
    30    27    26   ar
    31    27    25   ar
    32    26    24   ar
    33    79    81   ar
    34    70    72    1
    35     5     2    1
    36    25    23   ar
    37     1     2    1
    38    24    22   ar
    39     2     3    1
    40     3     4    2
    41    23    22   ar
    42    64    62    1
    43    22    21    1
    44    63    65    1
    45    63    62    1
    46    62    59    1
    47    21    18    1
    48    45    44    1
    49    45    46    1
    50    59    60    1
    51    59    58    1
    52    56    54   ar
    53    56    57   ar
    54    44    41    1
    55    18    17    1
    56    18    19    1
    57    17    10   am
    58     8     9    1
    59    60    61    2
    60    10     9    1
    61    10    11    2
    62    54    52   ar
    63    46    40    1
    64     9    12    1
    65    57    55   ar
    66    41    40    1
    67    41    42    1
    68    19    28   am
    69    19    20    2
    70    40    30   am
    71    28    29    1
    72    52    51    1
    73    52    53   ar
    74    12    13    1
    75    55    53   ar
    76    47    42   am
    77    47    48    1
    78    30    31    2
    79    30    29    1
    80    13    14    1
    81    42    43    2
    82    29    32    1
    83    51    48    1
    84    48    49    1
    85    14    16   ar
    86    14    15   ar
    87    50    49    2
    88    32    33    1
    89    35    33   ar
    90    35    37   ar
    91    33    34   ar
    92    37    38   ar
    93    34    36   ar
    94    38    36   ar
    95    38    39    1
