@<TRIPOS>MOLECULE
tmp/6adqV24.pdb
 89 83 0 0 0
SMALL
GASTEIGER

@<TRIPOS>ATOM
      1  N        205.7200  213.4740  176.0560 N.3   340  LEU340     -0.1245
      2  CA       206.7500  213.4640  175.0350 C.3   340  LEU340      0.1561
      3  C        206.9590  212.0840  174.4500 C.2   340  LEU340      0.2260
      4  O        207.5200  211.9680  173.3570 O.2   340  LEU340     -0.2867
      5  CB       208.0740  213.9660  175.6020 C.3   340  LEU340      0.0270
      6  CG       208.0700  215.4240  176.0310 C.3   340  LEU340      0.0019
      7  CD1      209.4080  215.7810  176.6320 C.3   340  LEU340      0.0001
      8  CD2      207.7510  216.3080  174.8490 C.3   340  LEU340      0.0001
      9  N        205.7120  211.7600  170.4510 N.3   344  TYR344     -0.1241
     10  CA       206.9510  212.0170  169.7150 C.3   344  TYR344      0.1605
     11  C        206.8540  211.9870  168.1820 C.2   344  TYR344      0.2264
     12  O        207.5130  212.8420  167.5600 O.2   344  TYR344     -0.2867
     13  CB       208.0620  211.0580  170.1700 C.3   344  TYR344      0.0534
     14  CG       209.3770  211.3840  169.5020 C.ar  344  TYR344     -0.0201
     15  CD1      210.1290  212.4670  169.9210 C.ar  344  TYR344     -0.0009
     16  CD2      209.8430  210.6430  168.4230 C.ar  344  TYR344     -0.0009
     17  CE1      211.3140  212.7890  169.3010 C.ar  344  TYR344      0.0417
     18  CE2      211.0110  210.9790  167.7860 C.ar  344  TYR344      0.0417
     19  CZ       211.7480  212.0390  168.2420 C.ar  344  TYR344      0.1957
     20  OH       212.9270  212.3650  167.6280 O.3   344  TYR344     -0.2866
     21  N        205.7590  215.1490  166.9960 N.3   347  ILE347     -0.1231
     22  CA       206.7610  216.1750  167.2890 C.3   347  ILE347      0.1692
     23  C        207.8110  216.2260  166.1930 C.2   347  ILE347      0.2591
     24  O        208.0770  217.2870  165.6200 O.2   347  ILE347     -0.2718
     25  CB       207.4010  215.9510  168.6710 C.3   347  ILE347      0.0266
     26  CG1      206.4330  216.3360  169.7800 C.3   347  ILE347      0.0019
     27  CG2      208.6690  216.7610  168.8220 C.3   347  ILE347      0.0020
     28  CD1      206.8890  215.9110  171.1460 C.3   347  ILE347      0.0001
     29  N        208.3860  215.0830  165.8390 N.am  348  GLU348     -0.1979
     30  CA       209.4040  215.2100  164.8090 C.3   348  GLU348      0.1602
     31  C        208.8270  215.2080  163.4010 C.2   348  GLU348      0.2287
     32  O        209.5570  215.5130  162.4560 O.2   348  GLU348     -0.2864
     33  CB       210.4530  214.1230  164.9160 C.3   348  GLU348      0.0415
     34  CG       210.0730  212.8020  164.3470 C.3   348  GLU348      0.1163
     35  CD       211.2690  211.9180  164.3090 C.2   348  GLU348      0.3649
     36  OE1      212.2890  212.3390  164.8820 O.co2 348  GLU348     -0.2457
     37  OE2      211.2330  210.8750  163.6370 O.co2 348  GLU348     -0.2457
     38  N        206.5210  217.3960  162.8660 N.3   350  LYS350     -0.1231
     39  CA       206.5050  218.8510  162.7740 C.3   350  LYS350      0.1693
     40  C        207.9110  219.4090  162.5880 C.2   350  LYS350      0.2591
     41  O        208.1130  220.3420  161.8030 O.2   350  LYS350     -0.2718
     42  CB       205.8510  219.4440  164.0200 C.3   350  LYS350      0.0285
     43  CG       205.6960  220.9480  163.9830 C.3   350  LYS350      0.0035
     44  CD       204.7650  221.3650  162.8650 C.3   350  LYS350      0.0206
     45  CE       203.3420  220.9280  163.1580 C.3   350  LYS350      0.1093
     46  NZ       202.3810  221.3730  162.1140 N.3   350  LYS350     -0.1314
     47  N        208.8940  218.8450  163.2910 N.am  351  VAL351     -0.1980
     48  CA       210.2390  219.4170  163.2840 C.3   351  VAL351      0.1595
     49  C        210.9510  219.1190  161.9700 C.2   351  VAL351      0.2287
     50  O        211.4490  220.0280  161.2980 O.2   351  VAL351     -0.2864
     51  CB       211.0480  218.9070  164.4880 C.3   351  VAL351      0.0276
     52  CG1      212.4880  219.3240  164.3590 C.3   351  VAL351      0.0022
     53  CG2      210.4870  219.4700  165.7650 C.3   351  VAL351      0.0022
     54  N        218.9100  212.4930  170.4610 N.3   373  ILE373     -0.1245
     55  CA       217.7790  212.7620  171.3510 C.3   373  ILE373      0.1561
     56  C        217.3470  211.4860  172.0560 C.2   373  ILE373      0.2260
     57  O        217.0490  211.4830  173.2610 O.2   373  ILE373     -0.2867
     58  CB       216.6190  213.3960  170.5560 C.3   373  ILE373      0.0252
     59  CG1      216.9740  214.8160  170.1340 C.3   373  ILE373      0.0019
     60  CG2      215.3270  213.3960  171.3360 C.3   373  ILE373      0.0019
     61  CD1      217.2050  215.7490  171.2920 C.3   373  ILE373      0.0001
     62  N        219.9240  210.7520  174.6940 N.3   376  MET376     -0.1230
     63  CA       219.5730  211.6110  175.8230 C.3   376  MET376      0.1702
     64  C        218.5070  210.9670  176.6830 C.2   376  MET376      0.2592
     65  O        218.6270  210.9300  177.9090 O.2   376  MET376     -0.2718
     66  CB       219.0670  212.9700  175.3510 C.3   376  MET376      0.0401
     67  CG       220.0910  213.9040  174.8350 C.3   376  MET376      0.0596
     68  SD       219.3050  215.4380  174.3320 S.3   376  MET376     -0.1393
     69  CE       218.7510  216.0510  175.9130 C.3   376  MET376      0.0692
     70  N        217.4550  210.4470  176.0530 N.am  377  ALA377     -0.1980
     71  CA       216.3730  209.8460  176.8270 C.3   377  ALA377      0.1597
     72  C        216.8080  208.5410  177.4880 C.2   377  ALA377      0.2287
     73  O        216.4260  208.2700  178.6330 O.2   377  ALA377     -0.2864
     74  CB       215.1560  209.6310  175.9380 C.3   377  ALA377      0.0319
     75  N        219.1690  209.5490  180.3280 N.3   380  LEU380     -0.1245
     76  CA       218.4110  210.1960  181.3900 C.3   380  LEU380      0.1561
     77  C        217.6130  209.1710  182.1800 C.2   380  LEU380      0.2260
     78  O        217.5070  209.2750  183.4080 O.2   380  LEU380     -0.2867
     79  CB       217.4990  211.2720  180.8050 C.3   380  LEU380      0.0270
     80  CG       216.7410  212.1350  181.8060 C.3   380  LEU380      0.0019
     81  CD1      217.7360  212.8340  182.6850 C.3   380  LEU380      0.0001
     82  CD2      215.8870  213.1570  181.0900 C.3   380  LEU380      0.0001
     83  N        222.6200  214.2640  179.9650 N.3   416  PRO416     -0.2116
     84  CA       222.0010  214.3270  178.6330 C.3   416  PRO416      0.1372
     85  C        222.7120  215.2370  177.6520 C.2   416  PRO416      0.2244
     86  O        222.7430  214.9100  176.4670 O.2   416  PRO416     -0.2868
     87  CB       220.5800  214.8080  178.9320 C.3   416  PRO416      0.0268
     88  CG       220.2980  214.2320  180.2170 C.3   416  PRO416      0.0207
     89  CD       221.5610  214.3030  180.9920 C.3   416  PRO416      0.0892
@<TRIPOS>BOND
     1    50    49    2
     2    41    40    2
     3    49    48    1
     4    46    45    1
     5    32    31    2
     6    40    39    1
     7    40    47   am
     8    39    38    1
     9    39    42    1
    10    44    45    1
    11    44    43    1
    12    48    47    1
    13    48    51    1
    14    31    30    1
    15    37    35   ar
    16    43    42    1
    17    35    34    1
    18    35    36   ar
    19    34    33    1
    20    52    51    1
    21    51    53    1
    22    30    33    1
    23    30    29    1
    24    24    23    2
    25    29    23   am
    26    23    22    1
    27    21    22    1
    28    22    25    1
    29    12    11    2
    30    20    19    1
    31    18    19   ar
    32    18    16   ar
    33    11    10    1
    34    19    17   ar
    35    16    14   ar
    36    25    27    1
    37    25    26    1
    38    17    15   ar
    39    14    15   ar
    40    14    13    1
    41    10    13    1
    42    10     9    1
    43    26    28    1
    44    59    58    1
    45    59    61    1
    46    54    55    1
    47    58    60    1
    48    58    55    1
    49    55    56    1
    50    56    57    2
    51     4     3    2
    52    68    67    1
    53    68    69    1
    54     3     2    1
    55    62    63    1
    56    67    66    1
    57     8     6    1
    58     2     5    1
    59     2     1    1
    60    66    63    1
    61     5     6    1
    62    63    64    1
    63    74    71    1
    64     6     7    1
    65    70    64   am
    66    70    71    1
    67    86    85    2
    68    64    65    2
    69    71    72    1
    70    72    73    2
    71    85    84    1
    72    84    87    1
    73    84    83    1
    74    87    88    1
    75    83    89    1
    76    88    89    1
    77    75    76    1
    78    79    76    1
    79    79    80    1
    80    82    80    1
    81    76    77    1
    82    80    81    1
    83    77    78    2
