@<TRIPOS>MOLECULE
tmp/6adqC00.pdb
 193 182 0 0 0
SMALL
GASTEIGER

@<TRIPOS>ATOM
      1  N        137.1810  193.6120  157.4870 N.3    12  ILE12      -0.1245
      2  CA       136.1360  193.6440  158.4990 C.3    12  ILE12       0.1561
      3  C        134.8560  194.1760  157.8570 C.2    12  ILE12       0.2260
      4  O        134.8930  195.1060  157.0400 O.2    12  ILE12      -0.2867
      5  CB       136.5850  194.4850  159.7120 C.3    12  ILE12       0.0252
      6  CG1      135.5930  194.3780  160.8630 C.3    12  ILE12       0.0019
      7  CG2      136.9380  195.9360  159.3440 C.3    12  ILE12       0.0019
      8  CD1      135.6340  193.0870  161.5790 C.3    12  ILE12       0.0001
      9  N        130.4370  194.9890  158.6340 N.3    14  SER14      -0.1202
     10  CA       129.7890  195.8610  159.6200 C.3    14  SER14       0.2020
     11  C        129.4100  195.1600  160.9190 C.2    14  SER14       0.2618
     12  O        130.1280  195.3050  161.9110 O.2    14  SER14      -0.2717
     13  CB       128.5330  196.4920  159.0140 C.3    14  SER14       0.2103
     14  OG       128.8490  197.3310  157.9180 O.3    14  SER14      -0.2182
     15  N        128.3200  194.3960  160.9450 N.am   15  ARG15      -0.1979
     16  CA       128.3320  193.1330  161.6720 C.3    15  ARG15       0.1597
     17  C        127.4210  192.1360  160.9710 C.2    15  ARG15       0.2287
     18  O        127.6840  190.9290  160.9520 O.2    15  ARG15      -0.2864
     19  CB       127.9240  193.3280  163.1260 C.3    15  ARG15       0.0334
     20  CG       128.0410  192.0720  163.9100 C.3    15  ARG15       0.0492
     21  CD       129.4490  191.5190  163.8810 C.3    15  ARG15       0.2205
     22  NE       129.5300  190.3310  164.7160 N.pl3  15  ARG15      -0.0865
     23  CZ       130.5050  189.4390  164.6420 C.cat  15  ARG15       0.5346
     24  NH1      130.5060  188.3830  165.4400 N.pl3  15  ARG15       0.1354
     25  NH2      131.4780  189.5870  163.7500 N.pl3  15  ARG15       0.1354
     26  N        126.4380  193.5270  167.1620 N.3    25  VAL25      -0.1245
     27  CA       127.2180  193.8630  168.3510 C.3    25  VAL25       0.1561
     28  C        126.4250  194.8300  169.2180 C.2    25  VAL25       0.2260
     29  O        126.5800  194.8500  170.4450 O.2    25  VAL25      -0.2867
     30  CB       128.5910  194.4520  167.9740 C.3    25  VAL25       0.0252
     31  CG1      129.4970  194.5390  169.1800 C.3    25  VAL25       0.0019
     32  CG2      129.2590  193.6450  166.9230 C.3    25  VAL25       0.0019
     33  N        124.1890  192.6210  171.1480 N.3    28  GLY28      -0.1210
     34  CA       125.0480  191.8650  172.0460 C.3    28  GLY28       0.1956
     35  C        125.4480  192.6530  173.2740 C.2    28  GLY28       0.2612
     36  O        125.3160  192.1780  174.4100 O.2    28  GLY28      -0.2717
     37  N        125.8910  193.8860  173.0740 N.am   29  THR29      -0.1952
     38  CA       126.2080  194.6770  174.2410 C.3    29  THR29       0.1897
     39  C        124.9660  195.1380  174.9800 C.2    29  THR29       0.2313
     40  O        125.0630  195.3780  176.1720 O.2    29  THR29      -0.2863
     41  CB       127.0810  195.8660  173.8830 C.3    29  THR29       0.1794
     42  OG1      127.5920  196.4430  175.0890 O.3    29  THR29      -0.2208
     43  CG2      126.3030  196.9110  173.1370 C.3    29  THR29       0.0378
     44  N        124.2530  192.2280  177.2380 N.3    32  TRP32      -0.1241
     45  CA       125.2990  192.1130  178.2540 C.3    32  TRP32       0.1605
     46  C        125.2760  193.2740  179.2510 C.2    32  TRP32       0.2264
     47  O        125.5940  193.0790  180.4320 O.2    32  TRP32      -0.2867
     48  CB       126.6710  192.0010  177.5980 C.3    32  TRP32       0.0550
     49  CG       127.7320  191.8600  178.6050 C.ar   32  TRP32       0.0003
     50  CD1      127.9400  190.8000  179.4300 C.ar   32  TRP32       0.0946
     51  CD2      128.6960  192.8420  178.9610 C.ar   32  TRP32       0.0152
     52  NE1      129.0010  191.0470  180.2590 N.ar   32  TRP32      -0.2442
     53  CE2      129.4820  192.3000  179.9910 C.ar   32  TRP32       0.0810
     54  CE3      128.9850  194.1260  178.4960 C.ar   32  TRP32       0.0012
     55  CZ2      130.5350  192.9940  180.5630 C.ar   32  TRP32       0.0191
     56  CZ3      130.0290  194.8120  179.0630 C.ar   32  TRP32       0.0001
     57  CH2      130.7950  194.2460  180.0860 C.ar   32  TRP32       0.0015
     58  N        124.9440  192.9860  183.2950 N.3    36  GLU36      -0.1245
     59  CA       125.6930  193.7640  184.2750 C.3    36  GLU36       0.1567
     60  C        124.7930  194.6300  185.1440 C.2    36  GLU36       0.2260
     61  O        125.1620  194.9340  186.2800 O.2    36  GLU36      -0.2867
     62  CB       126.7510  194.6170  183.5870 C.3    36  GLU36       0.0388
     63  CG       127.8490  193.7860  182.9630 C.3    36  GLU36       0.1160
     64  CD       128.6440  192.9920  183.9890 C.2    36  GLU36       0.3649
     65  OE1      128.8100  193.4640  185.1310 O.co2  36  GLU36      -0.2457
     66  OE2      129.1080  191.8840  183.6500 O.co2  36  GLU36      -0.2457
     67  N        133.5830  198.6520  193.1400 N.3   146  PHE146     -0.1241
     68  CA       133.5500  197.8070  191.9580 C.3   146  PHE146      0.1605
     69  C        132.8930  198.5360  190.8000 C.2   146  PHE146      0.2264
     70  O        133.1770  198.2170  189.6480 O.2   146  PHE146     -0.2867
     71  CB       132.8400  196.4800  192.2140 C.3   146  PHE146      0.0534
     72  CG       133.2850  195.3900  191.2770 C.ar  146  PHE146     -0.0203
     73  CD1      134.4240  194.6570  191.5510 C.ar  146  PHE146     -0.0042
     74  CD2      132.6230  195.1540  190.0800 C.ar  146  PHE146     -0.0042
     75  CE1      134.8530  193.6700  190.6750 C.ar  146  PHE146     -0.0003
     76  CE2      133.0460  194.1710  189.1970 C.ar  146  PHE146     -0.0003
     77  CZ       134.1800  193.4270  189.5030 C.ar  146  PHE146     -0.0000
     78  N        135.7730  199.7930  189.3200 N.3   149  LEU149     -0.1231
     79  CA       136.3450  198.8120  188.4010 C.3   149  LEU149      0.1693
     80  C        135.5870  198.7580  187.0760 C.2   149  LEU149      0.2592
     81  O        136.2020  198.5590  186.0240 O.2   149  LEU149     -0.2718
     82  CB       136.4100  197.4330  189.0510 C.3   149  LEU149      0.0284
     83  CG       137.7060  197.1560  189.8240 C.3   149  LEU149      0.0019
     84  CD1      137.8010  197.8700  191.1610 C.3   149  LEU149      0.0001
     85  CD2      137.8910  195.6660  190.0100 C.3   149  LEU149      0.0001
     86  N        134.2700  198.9640  187.1060 N.am  150  HIS150     -0.1976
     87  CA       133.4910  199.0640  185.8720 C.3   150  HIS150      0.1656
     88  C        133.9060  200.2620  185.0420 C.2   150  HIS150      0.2291
     89  O        134.0550  200.1610  183.8190 O.2   150  HIS150     -0.2864
     90  CB       132.0030  199.1590  186.1820 C.3   150  HIS150      0.0771
     91  CG       131.3740  197.8450  186.4970 C.ar  150  HIS150      0.0820
     92  ND1      131.0050  196.9560  185.5140 N.ar  150  HIS150     -0.2267
     93  CD2      131.0820  197.2490  187.6740 C.ar  150  HIS150      0.1154
     94  CE1      130.4890  195.8790  186.0720 C.ar  150  HIS150      0.1986
     95  NE2      130.5240  196.0310  187.3820 N.ar  150  HIS150     -0.2212
     96  N        136.7880  201.8590  185.2240 N.3   152  ILE152     -0.1231
     97  CA       138.1670  201.7490  184.7590 C.3   152  ILE152      0.1692
     98  C        138.2610  200.7160  183.6360 C.2   152  ILE152      0.2593
     99  O        139.0860  200.8610  182.7280 O.2   152  ILE152     -0.2718
    100  CB       139.1210  201.4570  185.9380 C.3   152  ILE152      0.0266
    101  CG1      140.5630  201.7520  185.5600 C.3   152  ILE152      0.0019
    102  CG2      139.1150  200.0250  186.3580 C.3   152  ILE152      0.0020
    103  CD1      141.5000  201.7380  186.7460 C.3   152  ILE152      0.0001
    104  N        137.3640  199.7240  183.6130 N.am  153  GLY153     -0.1942
    105  CA       137.2900  198.8470  182.4600 C.3   153  GLY153      0.2014
    106  C        136.7140  199.5540  181.2510 C.2   153  GLY153      0.2639
    107  O        137.1240  199.2990  180.1150 O.2   153  GLY153     -0.2714
    108  N        135.7720  200.4720  181.4800 N.am  154  GLY154     -0.1954
    109  CA       135.2640  201.2840  180.3860 C.3   154  GLY154      0.1869
    110  C        136.3170  202.2170  179.8190 C.2   154  GLY154      0.2309
    111  O        136.3710  202.4430  178.6090 O.2   154  GLY154     -0.2863
    112  N        139.5310  201.4550  179.8550 N.3   156  VAL156     -0.1231
    113  CA       140.3500  200.5370  179.0680 C.3   156  VAL156      0.1692
    114  C        139.7270  200.3150  177.6950 C.2   156  VAL156      0.2591
    115  O        140.4290  200.3030  176.6760 O.2   156  VAL156     -0.2718
    116  CB       140.5640  199.2200  179.8360 C.3   156  VAL156      0.0266
    117  CG1      141.1310  198.1480  178.9360 C.3   156  VAL156      0.0020
    118  CG2      141.5270  199.4460  180.9780 C.3   156  VAL156      0.0020
    119  N        138.3960  200.2220  177.6380 N.am  157  ALA157     -0.1980
    120  CA       137.7170  200.1080  176.3480 C.3   157  ALA157      0.1597
    121  C        137.8840  201.3690  175.5040 C.2   157  ALA157      0.2287
    122  O        138.0110  201.2810  174.2780 O.2   157  ALA157     -0.2864
    123  CB       136.2370  199.7960  176.5520 C.3   157  ALA157      0.0319
    124  N        141.5610  201.4510  174.2360 N.3   160  LEU160     -0.1231
    125  CA       141.6950  200.3300  173.3240 C.3   160  LEU160      0.1693
    126  C        141.0290  200.6160  171.9820 C.2   160  LEU160      0.2591
    127  O        141.6400  200.4150  170.9240 O.2   160  LEU160     -0.2718
    128  CB       141.1160  199.1170  174.0340 C.3   160  LEU160      0.0284
    129  CG       140.9300  197.7350  173.4870 C.3   160  LEU160      0.0019
    130  CD1      141.1770  196.7320  174.5800 C.3   160  LEU160      0.0001
    131  CD2      139.4790  197.7020  173.1180 C.3   160  LEU160      0.0001
    132  N        139.7990  201.1350  171.9960 N.am  161  LEU161     -0.1980
    133  CA       139.1510  201.5130  170.7490 C.3   161  LEU161      0.1596
    134  C        139.8220  202.7090  170.0870 C.2   161  LEU161      0.2287
    135  O        139.7470  202.8470  168.8660 O.2   161  LEU161     -0.2864
    136  CB       137.6690  201.7830  171.0010 C.3   161  LEU161      0.0297
    137  CG       136.7550  202.0260  169.8030 C.3   161  LEU161      0.0022
    138  CD1      135.4610  201.3390  170.0410 C.3   161  LEU161      0.0001
    139  CD2      136.4900  203.5070  169.6040 C.3   161  LEU161      0.0001
    140  N        142.5220  201.2350  168.2030 N.3   164  ARG164     -0.1245
    141  CA       141.8630  200.5980  167.0690 C.3   164  ARG164      0.1563
    142  C        141.4790  201.6020  165.9840 C.2   164  ARG164      0.2260
    143  O        141.5230  201.2710  164.7950 O.2   164  ARG164     -0.2867
    144  CB       140.6450  199.8460  167.5800 C.3   164  ARG164      0.0307
    145  CG       139.8780  199.0540  166.5830 C.3   164  ARG164      0.0489
    146  CD       138.8190  198.3320  167.3540 C.3   164  ARG164      0.2205
    147  NE       137.8570  197.6640  166.5040 N.pl3 164  ARG164     -0.0865
    148  CZ       136.8320  196.9700  166.9720 C.cat 164  ARG164      0.5346
    149  NH1      135.9810  196.3900  166.1430 N.pl3 164  ARG164      0.1354
    150  NH2      136.6490  196.8650  168.2780 N.pl3 164  ARG164      0.1354
    151  N        131.7930  198.8750  160.5630 N.3   173  ALA173     -0.1245
    152  CA       132.0530  198.0110  161.7080 C.3   173  ALA173      0.1562
    153  C        132.7120  198.7690  162.8420 C.2   173  ALA173      0.2260
    154  O        132.4890  198.4650  164.0180 O.2   173  ALA173     -0.2867
    155  CB       132.9490  196.8530  161.2950 C.3   173  ALA173      0.0290
    156  N        130.1720  200.6940  164.5260 N.3   176  THR176     -0.1203
    157  CA       129.4800  199.7550  165.4090 C.3   176  THR176      0.1994
    158  C        130.2340  199.5650  166.7200 C.2   176  THR176      0.2617
    159  O        129.6350  199.6000  167.8010 O.2   176  THR176     -0.2717
    160  CB       129.2820  198.4170  164.6910 C.3   176  THR176      0.1784
    161  OG1      128.2900  198.5590  163.6690 O.3   176  THR176     -0.2211
    162  CG2      128.8870  197.3080  165.6420 C.3   176  THR176      0.0376
    163  N        131.5550  199.3990  166.6410 N.am  177  ALA177     -0.1979
    164  CA       132.3750  199.3080  167.8490 C.3   177  ALA177      0.1597
    165  C        132.2920  200.5810  168.6830 C.2   177  ALA177      0.2287
    166  O        132.2190  200.5230  169.9200 O.2   177  ALA177     -0.2864
    167  CB       133.8250  199.0260  167.4710 C.3   177  ALA177      0.0319
    168  N        128.9180  200.8520  170.4050 N.3   180  VAL180     -0.1231
    169  CA       128.8300  199.8360  171.4480 C.3   180  VAL180      0.1692
    170  C        129.5730  200.2740  172.7060 C.2   180  VAL180      0.2591
    171  O        129.0280  200.2010  173.8160 O.2   180  VAL180     -0.2718
    172  CB       129.3350  198.4950  170.8980 C.3   180  VAL180      0.0266
    173  CG1      129.7530  197.5740  172.0030 C.3   180  VAL180      0.0020
    174  CG2      128.2120  197.8550  170.1110 C.3   180  VAL180      0.0020
    175  N        130.8030  200.7730  172.5540 N.am  181  VAL181     -0.1980
    176  CA       131.5290  201.2690  173.7240 C.3   181  VAL181      0.1595
    177  C        130.8740  202.5400  174.2590 C.2   181  VAL181      0.2287
    178  O        130.8400  202.7670  175.4820 O.2   181  VAL181     -0.2864
    179  CB       133.0120  201.4620  173.3610 C.3   181  VAL181      0.0276
    180  CG1      133.7990  202.0750  174.4960 C.3   181  VAL181      0.0022
    181  CG2      133.6080  200.1260  173.0160 C.3   181  VAL181      0.0022
    182  N        127.7980  201.3100  176.2640 N.3   184  TYR184     -0.1241
    183  CA       128.2990  200.6610  177.4750 C.3   184  TYR184      0.1605
    184  C        128.6520  201.6910  178.5280 C.2   184  TYR184      0.2264
    185  O        128.2690  201.5710  179.6980 O.2   184  TYR184     -0.2867
    186  CB       129.5320  199.7990  177.2100 C.3   184  TYR184      0.0534
    187  CG       130.1510  199.3380  178.5230 C.ar  184  TYR184     -0.0201
    188  CD1      129.4920  198.4210  179.3200 C.ar  184  TYR184     -0.0009
    189  CD2      131.3770  199.8300  178.9710 C.ar  184  TYR184     -0.0009
    190  CE1      130.0210  198.0030  180.5170 C.ar  184  TYR184      0.0417
    191  CE2      131.9120  199.4180  180.1770 C.ar  184  TYR184      0.0417
    192  CZ       131.2290  198.5010  180.9380 C.ar  184  TYR184      0.1957
    193  OH       131.7450  198.0790  182.1330 O.3   184  TYR184     -0.2866
@<TRIPOS>BOND
     1     4     3    2
     2     1     2    1
     3     3     2    1
     4    14    13    1
     5     2     5    1
     6     9    10    1
     7    13    10    1
     8     7     5    1
     9    10    11    1
    10     5     6    1
    11   151   152    1
    12     6     8    1
    13    11    15   am
    14    11    12    2
    15    15    16    1
    16    18    17    2
    17    17    16    1
    18   155   152    1
    19    16    19    1
    20   152   153    1
    21   153   154    2
    22    19    20    1
    23   161   160    1
    24    25    23    1
    25    21    20    1
    26    21    22    1
    27   156   157    1
    28    23    22    2
    29    23    24    1
    30   160   157    1
    31   160   162    1
    32   143   142    2
    33   157   158    1
    34   142   141    1
    35   149   148    1
    36   147   148    2
    37   147   146    1
    38   145   146    1
    39   145   144    1
    40   163   158   am
    41   163   164    1
    42   158   159    2
    43    32    30    1
    44   148   150    1
    45   141   144    1
    46   141   140    1
    47    26    27    1
    48   167   164    1
    49   164   165    1
    50    30    27    1
    51    30    31    1
    52    27    28    1
    53   165   166    2
    54   135   134    2
    55    28    29    2
    56   139   137    1
    57   137   138    1
    58   137   136    1
    59   134   133    1
    60   174   172    1
    61   168   169    1
    62   133   136    1
    63   133   132    1
    64   172   169    1
    65   172   173    1
    66   127   126    2
    67    33    34    1
    68   169   170    1
    69   126   132   am
    70   126   125    1
    71    34    35    1
    72   175   170   am
    73   175   176    1
    74   170   171    2
    75   181   179    1
    76    37    35   am
    77    37    38    1
    78   131   129    1
    79    43    41    1
    80    35    36    2
    81   125   128    1
    82   125   124    1
    83   179   176    1
    84   179   180    1
    85   129   128    1
    86   129   130    1
    87   176   177    1
    88    41    38    1
    89    41    42    1
    90    38    39    1
    91   177   178    2
    92   122   121    2
    93    39    40    2
    94   121   120    1
    95   182   183    1
    96   120   123    1
    97   120   119    1
    98   115   114    2
    99   186   183    1
   100   186   187    1
   101    44    45    1
   102   183   184    1
   103    48    45    1
   104    48    49    1
   105   119   114   am
   106   114   113    1
   107    45    46    1
   108    54    51   ar
   109    54    56   ar
   110   187   189   ar
   111   187   188   ar
   112   184   185    2
   113    49    51   ar
   114    49    50   ar
   115   111   110    2
   116   117   116    1
   117    51    53   ar
   118   189   191   ar
   119    56    57   ar
   120   113   116    1
   121   113   112    1
   122    46    47    2
   123   188   190   ar
   124    50    52   ar
   125   110   109    1
   126   116   118    1
   127    53    52   ar
   128    53    55   ar
   129    57    55   ar
   130   107   106    2
   131   191   192   ar
   132   109   108    1
   133   190   192   ar
   134   192   193    1
   135   106   108   am
   136   106   105    1
   137   105   104    1
   138    99    98    2
   139    63    62    1
   140    63    64    1
   141    58    59    1
   142    62    59    1
   143   104    98   am
   144    98    97    1
   145    66    64   ar
   146    89    88    2
   147    64    65   ar
   148    59    60    1
   149    97    96    1
   150    97   100    1
   151    88    87    1
   152    60    61    2
   153    92    94   ar
   154    92    91   ar
   155   101   100    1
   156   101   103    1
   157    87    90    1
   158    87    86    1
   159   100   102    1
   160    81    80    2
   161    94    95   ar
   162    90    91    1
   163    91    93   ar
   164    80    86   am
   165    80    79    1
   166    95    93   ar
   167    79    82    1
   168    79    78    1
   169    82    83    1
   170    76    77   ar
   171    76    74   ar
   172    77    75   ar
   173    70    69    2
   174    83    85    1
   175    83    84    1
   176    74    72   ar
   177    75    73   ar
   178    69    68    1
   179    72    73   ar
   180    72    71    1
   181    68    71    1
   182    68    67    1
