@<TRIPOS>MOLECULE
tmp/6adqL05.pdb
 73 70 0 0 0
SMALL
GASTEIGER

@<TRIPOS>ATOM
      1  N        201.2740  170.7090  183.3400 N.3   173  LEU173     -0.1231
      2  CA       199.9070  170.4700  183.7750 C.3   173  LEU173      0.1693
      3  C        199.8650  170.0950  185.2480 C.2   173  LEU173      0.2591
      4  O        199.0030  170.5790  185.9900 O.2   173  LEU173     -0.2718
      5  CB       199.2820  169.3830  182.8960 C.3   173  LEU173      0.0284
      6  CG       197.7830  169.0640  182.9010 C.3   173  LEU173      0.0019
      7  CD1      197.3660  168.0690  183.9810 C.3   173  LEU173      0.0001
      8  CD2      196.9990  170.3600  183.0460 C.3   173  LEU173      0.0001
      9  N        200.8130  169.2720  185.7050 N.am  174  VAL174     -0.1980
     10  CA       200.8390  168.9660  187.1230 C.3   174  VAL174      0.1595
     11  C        201.3580  170.1610  187.9160 C.2   174  VAL174      0.2287
     12  O        201.0160  170.3040  189.0880 O.2   174  VAL174     -0.2864
     13  CB       201.6440  167.6770  187.3940 C.3   174  VAL174      0.0276
     14  CG1      203.1240  167.9120  187.3250 C.3   174  VAL174      0.0022
     15  CG2      201.2580  167.0610  188.7170 C.3   174  VAL174      0.0022
     16  N        198.1290  171.9940  188.4370 N.3   177  ILE177     -0.1231
     17  CA       197.1600  171.3530  189.3140 C.3   177  ILE177      0.1692
     18  C        197.7480  171.0020  190.6800 C.2   177  ILE177      0.2593
     19  O        197.0020  170.9470  191.6680 O.2   177  ILE177     -0.2718
     20  CB       196.5800  170.1340  188.5680 C.3   177  ILE177      0.0266
     21  CG1      196.0150  170.5770  187.2200 C.3   177  ILE177      0.0019
     22  CG2      195.4330  169.4920  189.3000 C.3   177  ILE177      0.0020
     23  CD1      194.9160  171.6130  187.3170 C.3   177  ILE177      0.0001
     24  N        199.0700  170.8410  190.7830 N.am  178  GLY178     -0.1942
     25  CA       199.6870  170.3660  192.0130 C.3   178  GLY178      0.2014
     26  C        199.5830  171.3090  193.1890 C.2   178  GLY178      0.2639
     27  O        199.6590  170.8580  194.3360 O.2   178  GLY178     -0.2714
     28  N        199.4020  172.6040  192.9390 N.am  179  GLY179     -0.1939
     29  CA       199.1250  173.5110  194.0350 C.3   179  GLY179      0.2014
     30  C        197.7310  173.3620  194.5990 C.2   179  GLY179      0.2639
     31  O        197.4890  173.7570  195.7420 O.2   179  GLY179     -0.2714
     32  N        196.8150  172.7890  193.8260 N.am  180  LEU180     -0.1963
     33  CA       195.4310  172.6300  194.2420 C.3   180  LEU180      0.1728
     34  C        195.1830  171.3230  194.9770 C.2   180  LEU180      0.2616
     35  O        194.3810  171.2920  195.9140 O.2   180  LEU180     -0.2715
     36  CB       194.5110  172.7080  193.0250 C.3   180  LEU180      0.0311
     37  CG       194.3970  174.0700  192.3600 C.3   180  LEU180      0.0022
     38  CD1      193.6510  173.9530  191.0590 C.3   180  LEU180      0.0001
     39  CD2      193.6520  174.9780  193.2910 C.3   180  LEU180      0.0001
     40  N        195.8560  170.2460  194.5770 N.am  181  ILE181     -0.1963
     41  CA       195.5020  168.9100  195.0410 C.3   181  ILE181      0.1727
     42  C        195.9410  168.7170  196.4790 C.2   181  ILE181      0.2616
     43  O        197.1090  168.4270  196.7560 O.2   181  ILE181     -0.2715
     44  CB       196.1190  167.8240  194.1490 C.3   181  ILE181      0.0290
     45  CG1      195.7210  168.0530  192.7020 C.3   181  ILE181      0.0022
     46  CG2      195.6470  166.4510  194.5870 C.3   181  ILE181      0.0023
     47  CD1      194.2500  168.0250  192.4910 C.3   181  ILE181      0.0001
     48  N        195.0090  168.8810  197.4000 N.am  182  LYS182     -0.1963
     49  CA       195.2490  168.5640  198.7920 C.3   182  LYS182      0.1728
     50  C        194.7150  167.1710  199.0770 C.2   182  LYS182      0.2616
     51  O        193.7580  166.7190  198.4500 O.2   182  LYS182     -0.2715
     52  CB       194.5790  169.5850  199.7070 C.3   182  LYS182      0.0311
     53  CG       195.2040  170.9630  199.6380 C.3   182  LYS182      0.0038
     54  CD       194.4600  171.9650  200.4970 C.3   182  LYS182      0.0206
     55  CE       195.0850  172.0970  201.8770 C.3   182  LYS182      0.1093
     56  NZ       194.8670  170.9130  202.7510 N.3   182  LYS182     -0.1314
     57  N        195.3670  166.4830  199.9970 N.am  183  ASN183     -0.1972
     58  CA       194.8650  165.2060  200.4690 C.3   183  ASN183      0.1688
     59  C        193.8190  165.4710  201.5400 C.2   183  ASN183      0.2292
     60  O        194.1450  166.0690  202.5700 O.2   183  ASN183     -0.2864
     61  CB       196.0080  164.3640  201.0210 C.3   183  ASN183      0.1181
     62  CG       195.6090  162.9340  201.3430 C.2   183  ASN183      0.2629
     63  OD1      194.4600  162.5340  201.1900 O.2   183  ASN183     -0.2716
     64  ND2      196.5790  162.1500  201.7950 N.am  183  ASN183     -0.0877
     65  N        194.8700  163.3860  204.8700 N.3   186  LYS186     -0.1245
     66  CA       195.9580  163.7330  205.7590 C.3   186  LYS186      0.1561
     67  C        195.3730  164.0130  207.1360 C.2   186  LYS186      0.2260
     68  O        194.4150  164.7870  207.2450 O.2   186  LYS186     -0.2867
     69  CB       196.7020  164.9580  205.2350 C.3   186  LYS186      0.0271
     70  CG       197.8810  165.3840  206.0730 C.3   186  LYS186      0.0035
     71  CD       198.6560  166.4790  205.3730 C.3   186  LYS186      0.0206
     72  CE       197.8860  167.7860  205.3730 C.3   186  LYS186      0.1093
     73  NZ       197.8020  168.3860  206.7310 N.3   186  LYS186     -0.1314
@<TRIPOS>BOND
     1     5     6    1
     2     5     2    1
     3     6     8    1
     4     6     7    1
     5     1     2    1
     6     2     3    1
     7     3     9   am
     8     3     4    2
     9     9    10    1
    10    10    13    1
    11    10    11    1
    12    21    23    1
    13    21    20    1
    14    14    13    1
    15    13    15    1
    16    11    12    2
    17    16    17    1
    18    20    22    1
    19    20    17    1
    20    17    18    1
    21    18    24   am
    22    18    19    2
    23    24    25    1
    24    38    37    1
    25    25    26    1
    26    37    36    1
    27    37    39    1
    28    47    45    1
    29    45    44    1
    30    28    26   am
    31    28    29    1
    32    36    33    1
    33    26    27    2
    34    32    33    1
    35    32    30   am
    36    29    30    1
    37    44    46    1
    38    44    41    1
    39    33    34    1
    40    40    34   am
    41    40    41    1
    42    30    31    2
    43    34    35    2
    44    41    42    1
    45    42    43    2
    46    42    48   am
    47    48    49    1
    48    51    50    2
    49    49    50    1
    50    49    52    1
    51    50    57   am
    52    53    52    1
    53    53    54    1
    54    57    58    1
    55    58    61    1
    56    58    59    1
    57    54    55    1
    58    61    62    1
    59    63    62    2
    60    62    64   am
    61    59    60    2
    62    55    56    1
    63    65    66    1
    64    69    66    1
    65    69    70    1
    66    71    72    1
    67    71    70    1
    68    72    73    1
    69    66    67    1
    70    67    68    2
