@<TRIPOS>MOLECULE
tmp/6adqB10.pdb
 109 103 0 0 0
SMALL
GASTEIGER

@<TRIPOS>ATOM
      1  N        133.8600  162.6640  186.6300 N.3    45  VAL45      -0.1245
      2  CA       134.4990  163.0830  187.8810 C.3    45  VAL45       0.1561
      3  C        133.4730  163.1710  189.0020 C.2    45  VAL45       0.2260
      4  O        133.6730  162.6360  190.1040 O.2    45  VAL45      -0.2867
      5  CB       135.2240  164.4250  187.6870 C.3    45  VAL45       0.0252
      6  CG1      135.6730  164.9850  189.0150 C.3    45  VAL45       0.0019
      7  CG2      136.4140  164.2420  186.7820 C.3    45  VAL45       0.0019
      8  N        132.1380  159.5800  190.0410 N.3    48  LEU48      -0.1231
      9  CA       133.0140  158.8590  190.9650 C.3    48  LEU48       0.1693
     10  C        133.0540  159.5340  192.3290 C.2    48  LEU48       0.2591
     11  O        133.2260  158.8540  193.3470 O.2    48  LEU48      -0.2718
     12  CB       134.4260  158.6940  190.3930 C.3    48  LEU48       0.0284
     13  CG       135.4330  159.8180  190.1440 C.3    48  LEU48       0.0019
     14  CD1      136.3150  160.0880  191.3500 C.3    48  LEU48       0.0001
     15  CD2      136.2970  159.4670  188.9570 C.3    48  LEU48       0.0001
     16  N        132.8630  160.8540  192.3730 N.am   49  MET49      -0.1979
     17  CA       132.7700  161.5490  193.6530 C.3    49  MET49       0.1605
     18  C        131.5220  161.1120  194.4210 C.2    49  MET49       0.2287
     19  O        131.5660  160.8810  195.6400 O.2    49  MET49      -0.2864
     20  CB       132.7830  163.0490  193.3750 C.3    49  MET49       0.0413
     21  CG       133.0880  163.9200  194.5320 C.3    49  MET49       0.0598
     22  SD       133.3550  165.5970  193.9680 S.3    49  MET49      -0.1393
     23  CE       134.7870  165.3430  192.9290 C.3    49  MET49       0.0692
     24  N        132.0550  157.6880  195.7720 N.3    52  PHE52      -0.1241
     25  CA       132.7950  157.7560  197.0280 C.3    52  PHE52       0.1605
     26  C        131.8680  158.0840  198.1930 C.2    52  PHE52       0.2264
     27  O        131.9350  157.4370  199.2510 O.2    52  PHE52      -0.2867
     28  CB       133.9160  158.7830  196.9260 C.3    52  PHE52       0.0534
     29  CG       135.0770  158.3400  196.1020 C.ar   52  PHE52      -0.0203
     30  CD1      135.2490  157.0080  195.7710 C.ar   52  PHE52      -0.0042
     31  CD2      136.0050  159.2600  195.6650 C.ar   52  PHE52      -0.0042
     32  CE1      136.3220  156.6070  195.0120 C.ar   52  PHE52      -0.0003
     33  CE2      137.0810  158.8670  194.9080 C.ar   52  PHE52      -0.0003
     34  CZ       137.2400  157.5420  194.5800 C.ar   52  PHE52      -0.0000
     35  N        136.1640  157.0610  204.0730 N.3    65  LEU65      -0.1245
     36  CA       136.8380  158.3410  204.1040 C.3    65  LEU65       0.1561
     37  C        136.2390  159.1580  205.2330 C.2    65  LEU65       0.2260
     38  O        135.2450  158.7740  205.8500 O.2    65  LEU65      -0.2867
     39  CB       136.7310  159.0710  202.7630 C.3    65  LEU65       0.0270
     40  CG       135.4780  159.8220  202.3240 C.3    65  LEU65       0.0019
     41  CD1      135.8880  160.6550  201.1550 C.3    65  LEU65       0.0001
     42  CD2      134.3580  158.9140  201.9190 C.3    65  LEU65       0.0001
     43  N        136.4830  165.1830  204.2820 N.3    69  GLN69      -0.1245
     44  CA       136.5510  164.8040  202.8810 C.3    69  GLN69       0.1566
     45  C        135.1660  164.5550  202.3080 C.2    69  GLN69       0.2260
     46  O        134.9130  164.9000  201.1520 O.2    69  GLN69      -0.2867
     47  CB       137.4360  163.5760  202.7170 C.3    69  GLN69       0.0367
     48  CG       138.8860  163.8280  203.0450 C.3    69  GLN69       0.0905
     49  CD       139.7230  162.5860  202.9020 C.2    69  GLN69       0.2608
     50  OE1      139.2070  161.5120  202.6090 O.2    69  GLN69      -0.2717
     51  NE2      141.0250  162.7220  203.1110 N.am   69  GLN69      -0.0878
     52  N        133.7060  167.9980  201.6350 N.3    72  GLN72      -0.1231
     53  CA       134.2320  168.4930  200.3710 C.3    72  GLN72       0.1698
     54  C        133.6050  167.7540  199.2090 C.2    72  GLN72       0.2592
     55  O        133.4310  168.3170  198.1160 O.2    72  GLN72      -0.2718
     56  CB       135.7410  168.3220  200.3430 C.3    72  GLN72       0.0381
     57  CG       136.4050  169.0760  201.4360 C.3    72  GLN72       0.0905
     58  CD       137.8540  168.7470  201.5570 C.2    72  GLN72       0.2608
     59  OE1      138.3940  167.9740  200.7710 O.2    72  GLN72      -0.2717
     60  NE2      138.4910  169.2930  202.5800 N.am   72  GLN72      -0.0878
     61  N        133.2300  166.5040  199.4530 N.am   73  LEU73      -0.1980
     62  CA       132.8980  165.5810  198.3890 C.3    73  LEU73       0.1596
     63  C        131.5380  165.9120  197.7990 C.2    73  LEU73       0.2287
     64  O        131.4200  166.0810  196.5780 O.2    73  LEU73      -0.2864
     65  CB       132.9450  164.1680  198.9540 C.3    73  LEU73       0.0297
     66  CG       133.3280  163.0040  198.0790 C.3    73  LEU73       0.0022
     67  CD1      134.7580  163.2040  197.6940 C.3    73  LEU73       0.0001
     68  CD2      133.2230  161.7850  198.9000 C.3    73  LEU73       0.0001
     69  N        137.8160  172.6770  190.6970 N.3   128  ILE128     -0.1245
     70  CA       138.2480  171.3370  191.0940 C.3   128  ILE128      0.1561
     71  C        139.5820  171.3930  191.8280 C.2   128  ILE128      0.2260
     72  O        139.8460  170.5760  192.7220 O.2   128  ILE128     -0.2867
     73  CB       138.2690  170.4300  189.8460 C.3   128  ILE128      0.0252
     74  CG1      136.8460  170.0450  189.4960 C.3   128  ILE128      0.0019
     75  CG2      139.0590  169.1550  190.0250 C.3   128  ILE128      0.0019
     76  CD1      136.2120  169.2290  190.6000 C.3   128  ILE128      0.0001
     77  N        140.9970  170.2070  195.4380 N.3   131  PHE131     -0.1241
     78  CA       141.4540  168.8960  195.8830 C.3   131  PHE131      0.1605
     79  C        142.9670  168.7850  195.9400 C.2   131  PHE131      0.2264
     80  O        143.4840  167.9420  196.6780 O.2   131  PHE131     -0.2867
     81  CB       140.9050  167.8010  194.9860 C.3   131  PHE131      0.0534
     82  CG       139.4520  167.5760  195.1510 C.ar  131  PHE131     -0.0203
     83  CD1      138.9670  167.0200  196.3150 C.ar  131  PHE131     -0.0042
     84  CD2      138.5760  167.8660  194.1340 C.ar  131  PHE131     -0.0042
     85  CE1      137.6310  166.7960  196.4810 C.ar  131  PHE131     -0.0003
     86  CE2      137.2390  167.6320  194.2910 C.ar  131  PHE131     -0.0003
     87  CZ       136.7660  167.0910  195.4660 C.ar  131  PHE131     -0.0000
     88  N        144.7040  171.1940  197.1280 N.3   133  THR133     -0.1204
     89  CA       144.9910  171.8700  198.3820 C.3   133  THR133      0.1979
     90  C        144.9160  170.8870  199.5490 C.2   133  THR133      0.2460
     91  O        144.1100  169.9530  199.5160 O.2   133  THR133     -0.2732
     92  CB       144.0100  173.0170  198.5970 C.3   133  THR133      0.1783
     93  OG1      142.7070  172.4840  198.8380 O.3   133  THR133     -0.2211
     94  CG2      143.9520  173.8800  197.3600 C.3   133  THR133      0.0376
     95  N        145.7590  171.0530  200.5740 N.am  134  PRO134     -0.2717
     96  CA       145.8400  170.0190  201.6160 C.3   134  PRO134      0.1536
     97  C        144.6230  169.9380  202.5050 C.2   134  PRO134      0.2599
     98  O        144.2000  168.8350  202.8650 O.2   134  PRO134     -0.2715
     99  CB       147.0670  170.4380  202.4140 C.3   134  PRO134      0.0310
    100  CG       147.2170  171.8790  202.1820 C.3   134  PRO134      0.0237
    101  CD       146.7640  172.1100  200.7820 C.3   134  PRO134      0.0939
    102  N        144.0480  171.0700  202.8720 N.am  135  GLY135     -0.1941
    103  CA       142.7820  171.0360  203.5560 C.3   135  GLY135      0.2014
    104  C        141.6130  170.7200  202.6710 C.2   135  GLY135      0.2639
    105  O        140.4960  170.5340  203.1580 O.2   135  GLY135     -0.2714
    106  N        141.8460  170.6580  201.3740 N.am  136  GLY136     -0.1954
    107  CA       140.8390  170.2370  200.4530 C.3   136  GLY136      0.1869
    108  C        139.9670  171.3920  200.0260 C.2   136  GLY136      0.2309
    109  O        140.2270  172.5640  200.3010 O.2   136  GLY136     -0.2863
@<TRIPOS>BOND
     1     1     2    1
     2     7     5    1
     3     5     2    1
     4     5     6    1
     5     2     3    1
     6    15    13    1
     7     3     4    2
     8    74    73    1
     9    74    76    1
    10    73    75    1
    11    73    70    1
    12     8     9    1
    13    13    12    1
    14    13    14    1
    15    12     9    1
    16    69    70    1
    17     9    10    1
    18    70    71    1
    19    71    72    2
    20    10    16   am
    21    10    11    2
    22    16    17    1
    23    23    22    1
    24    20    17    1
    25    20    21    1
    26    17    18    1
    27    22    21    1
    28    84    86   ar
    29    84    82   ar
    30    86    87   ar
    31    18    19    2
    32    34    33   ar
    33    34    32   ar
    34    33    31   ar
    35    81    82    1
    36    81    78    1
    37    32    30   ar
    38    82    83   ar
    39    77    78    1
    40    87    85   ar
    41    31    29   ar
    42    30    29   ar
    43    24    25    1
    44    78    79    1
    45    79    80    2
    46    29    28    1
    47    83    85   ar
    48    64    63    2
    49    28    25    1
    50    25    26    1
    51    88    89    1
    52    94    92    1
    53    67    66    1
    54    63    62    1
    55    66    68    1
    56    66    65    1
    57    55    54    2
    58    26    27    2
    59    89    92    1
    60    89    90    1
    61    62    65    1
    62    62    61    1
    63    92    93    1
    64    54    61   am
    65    54    53    1
    66    91    90    2
    67    90    95   am
    68   108   109    2
    69   108   107    1
    70    56    53    1
    71    56    57    1
    72    53    52    1
    73   107   106    1
    74    95   101    1
    75    95    96    1
    76    59    58    2
    77   101   100    1
    78    46    45    2
    79    41    40    1
    80   106   104   am
    81    57    58    1
    82    58    60   am
    83    96    99    1
    84    96    97    1
    85    42    40    1
    86   100    99    1
    87    45    44    1
    88    40    39    1
    89    97    98    2
    90    97   102   am
    91    50    49    2
    92   104   105    2
    93   104   103    1
    94    47    44    1
    95    47    48    1
    96    39    36    1
    97   102   103    1
    98    44    43    1
    99    49    48    1
   100    49    51   am
   101    35    36    1
   102    36    37    1
   103    37    38    2
