@<TRIPOS>MOLECULE
tmp/6adqL03.pdb
 94 87 0 0 0
SMALL
GASTEIGER

@<TRIPOS>ATOM
      1  N        157.9200  214.1350  166.6990 N.3    49  LEU49      -0.1245
      2  CA       157.6400  213.0100  167.5930 C.3    49  LEU49       0.1561
      3  C        158.9240  212.3110  168.0300 C.2    49  LEU49       0.2260
      4  O        159.1240  212.0350  169.2230 O.2    49  LEU49      -0.2867
      5  CB       156.6870  212.0310  166.9020 C.3    49  LEU49       0.0270
      6  CG       156.0040  210.8550  167.6160 C.3    49  LEU49       0.0019
      7  CD1      156.8390  209.5950  167.6740 C.3    49  LEU49       0.0001
      8  CD2      155.5980  211.2700  169.0140 C.3    49  LEU49       0.0001
      9  N        160.7710  212.0280  171.7510 N.3    53  TRP53      -0.1241
     10  CA       161.3800  210.8840  172.4310 C.3    53  TRP53       0.1605
     11  C        162.8350  211.1540  172.8010 C.2    53  TRP53       0.2264
     12  O        163.2620  210.8480  173.9220 O.2    53  TRP53      -0.2867
     13  CB       161.2780  209.6220  171.5810 C.3    53  TRP53       0.0550
     14  CG       159.9090  209.0690  171.5010 C.ar   53  TRP53       0.0003
     15  CD1      159.0650  209.1270  170.4410 C.ar   53  TRP53       0.0946
     16  CD2      159.1990  208.4010  172.5440 C.ar   53  TRP53       0.0152
     17  NE1      157.8780  208.5160  170.7470 N.ar   53  TRP53      -0.2442
     18  CE2      157.9370  208.0650  172.0370 C.ar   53  TRP53       0.0810
     19  CE3      159.5120  208.0520  173.8560 C.ar   53  TRP53       0.0012
     20  CZ2      156.9890  207.3960  172.7910 C.ar   53  TRP53       0.0191
     21  CZ3      158.5740  207.3840  174.6020 C.ar   53  TRP53       0.0001
     22  CH2      157.3260  207.0640  174.0710 C.ar   53  TRP53       0.0015
     23  N        162.9070  213.6680  175.6230 N.3    56  LEU56      -0.1245
     24  CA       162.6070  212.9780  176.8730 C.3    56  LEU56       0.1561
     25  C        163.8170  212.2080  177.3770 C.2    56  LEU56       0.2260
     26  O        164.0690  212.1660  178.5850 O.2    56  LEU56      -0.2867
     27  CB       161.4190  212.0380  176.6840 C.3    56  LEU56       0.0270
     28  CG       160.9910  211.2380  177.9120 C.3    56  LEU56       0.0019
     29  CD1      160.5530  212.1710  179.0170 C.3    56  LEU56       0.0001
     30  CD2      159.8880  210.2580  177.5680 C.3    56  LEU56       0.0001
     31  N        164.5970  204.7190  187.5350 N.3    95  LEU95      -0.1245
     32  CA       163.5920  205.3680  186.7050 C.3    95  LEU95       0.1561
     33  C        164.2410  206.3550  185.7520 C.2    95  LEU95       0.2260
     34  O        164.0070  206.2910  184.5430 O.2    95  LEU95      -0.2867
     35  CB       162.5490  206.0540  187.5860 C.3    95  LEU95       0.0270
     36  CG       161.2750  206.6340  186.9680 C.3    95  LEU95       0.0019
     37  CD1      160.1460  206.4060  187.9380 C.3    95  LEU95       0.0001
     38  CD2      161.3810  208.1280  186.6750 C.3    95  LEU95       0.0001
     39  N        164.5750  205.2240  181.9130 N.3    99  LEU99      -0.1245
     40  CA       163.7320  206.0880  181.1040 C.3    99  LEU99       0.1561
     41  C        164.5730  206.9130  180.1410 C.2    99  LEU99       0.2260
     42  O        164.1880  207.0830  178.9810 O.2    99  LEU99      -0.2867
     43  CB       162.8880  206.9730  182.0240 C.3    99  LEU99       0.0270
     44  CG       161.5930  207.6270  181.5360 C.3    99  LEU99       0.0019
     45  CD1      161.8020  208.9010  180.7450 C.3    99  LEU99       0.0001
     46  CD2      160.8100  206.6220  180.7150 C.3    99  LEU99       0.0001
     47  N        166.1930  204.3320  177.5420 N.3   102  LEU102     -0.1231
     48  CA       165.1200  203.7160  176.7810 C.3   102  LEU102      0.1693
     49  C        164.4370  204.7240  175.8750 C.2   102  LEU102      0.2592
     50  O        164.0420  204.3690  174.7640 O.2   102  LEU102     -0.2718
     51  CB       164.1230  203.0590  177.7350 C.3   102  LEU102      0.0284
     52  CG       163.0270  202.1430  177.1970 C.3   102  LEU102      0.0019
     53  CD1      162.8130  201.0260  178.1800 C.3   102  LEU102      0.0001
     54  CD2      161.7240  202.8880  177.0190 C.3   102  LEU102      0.0001
     55  N        164.3250  205.9860  176.2990 N.am  103  SER103     -0.1952
     56  CA       163.7670  206.9960  175.4140 C.3   103  SER103      0.1924
     57  C        164.7260  207.3250  174.2830 C.2   103  SER103      0.2314
     58  O        164.2930  207.5430  173.1490 O.2   103  SER103     -0.2863
     59  CB       163.4140  208.2480  176.2050 C.3   103  SER103      0.2116
     60  OG       162.3900  207.9740  177.1390 O.3   103  SER103     -0.2180
     61  N        164.4550  204.2060  171.9280 N.3   106  ILE106     -0.1245
     62  CA       163.2150  204.1770  171.1780 C.3   106  ILE106      0.1561
     63  C        163.1470  205.3590  170.2240 C.2   106  ILE106      0.2260
     64  O        162.5430  205.2430  169.1570 O.2   106  ILE106     -0.2867
     65  CB       162.0140  204.0950  172.1410 C.3   106  ILE106      0.0252
     66  CG1      160.7830  203.6010  171.4080 C.3   106  ILE106      0.0019
     67  CG2      161.6680  205.4230  172.7300 C.3   106  ILE106      0.0019
     68  CD1      159.7000  203.1230  172.3300 C.3   106  ILE106      0.0001
     69  N        162.9270  204.6280  166.3550 N.3   110  LEU110     -0.1245
     70  CA       161.7990  205.2260  165.6660 C.3   110  LEU110      0.1561
     71  C        162.2810  206.1160  164.5320 C.2   110  LEU110      0.2260
     72  O        161.5780  206.2790  163.5310 O.2   110  LEU110     -0.2867
     73  CB       160.9440  205.9870  166.6710 C.3   110  LEU110      0.0270
     74  CG       159.5080  206.3220  166.3100 C.3   110  LEU110      0.0019
     75  CD1      158.7100  206.2510  167.5770 C.3   110  LEU110      0.0001
     76  CD2      159.3870  207.7020  165.7080 C.3   110  LEU110      0.0001
     77  N        162.6840  203.5200  161.9410 N.3   113  LYS113     -0.1231
     78  CA       161.4180  203.0350  161.4190 C.3   113  LYS113      0.1693
     79  C        160.5500  204.1390  160.8430 C.2   113  LYS113      0.2591
     80  O        159.4250  203.8590  160.4230 O.2   113  LYS113     -0.2718
     81  CB       160.6440  202.2930  162.5110 C.3   113  LYS113      0.0285
     82  CG       161.2760  200.9840  162.9190 C.3   113  LYS113      0.0035
     83  CD       160.5050  200.3370  164.0360 C.3   113  LYS113      0.0206
     84  CE       159.1660  199.8530  163.5370 C.3   113  LYS113      0.1093
     85  NZ       159.3210  198.7410  162.5690 N.3   113  LYS113     -0.1314
     86  N        161.0260  205.3800  160.8160 N.am  114  LYS114     -0.1980
     87  CA       160.2740  206.4510  160.1800 C.3   114  LYS114      0.1596
     88  C        161.0630  207.2810  159.1800 C.2   114  LYS114      0.2287
     89  O        160.4370  207.8990  158.3130 O.2   114  LYS114     -0.2864
     90  CB       159.6780  207.4010  161.2290 C.3   114  LYS114      0.0298
     91  CG       158.6480  206.7800  162.1590 C.3   114  LYS114      0.0038
     92  CD       157.3980  206.3420  161.4260 C.3   114  LYS114      0.0206
     93  CE       156.3250  205.9100  162.4090 C.3   114  LYS114      0.1093
     94  NZ       156.7060  204.6660  163.1260 N.3   114  LYS114     -0.1314
@<TRIPOS>BOND
     1    89    88    2
     2    88    87    1
     3    87    86    1
     4    87    90    1
     5    80    79    2
     6    86    79   am
     7    79    78    1
     8    90    91    1
     9    78    77    1
    10    78    81    1
    11    92    91    1
    12    92    93    1
    13    93    94    1
    14    81    82    1
    15    85    84    1
    16    82    83    1
    17    72    71    2
    18    84    83    1
    19    71    70    1
    20    70    69    1
    21    70    73    1
    22    76    74    1
    23    74    73    1
    24    74    75    1
    25     1     2    1
    26     5     2    1
    27     5     6    1
    28     2     3    1
    29     6     7    1
    30     6     8    1
    31     3     4    2
    32    64    63    2
    33    63    62    1
    34    15    17   ar
    35    15    14   ar
    36    17    18   ar
    37    62    61    1
    38    62    65    1
    39    66    65    1
    40    66    68    1
    41    14    13    1
    42    14    16   ar
    43    13    10    1
    44     9    10    1
    45    18    16   ar
    46    18    20   ar
    47    65    67    1
    48    10    11    1
    49    16    19   ar
    50    20    22   ar
    51    11    12    2
    52    58    57    2
    53    19    21   ar
    54    22    21   ar
    55    57    56    1
    56    50    49    2
    57    56    59    1
    58    56    55    1
    59    23    24    1
    60    49    55   am
    61    49    48    1
    62    59    60    1
    63    27    24    1
    64    27    28    1
    65    48    47    1
    66    48    51    1
    67    24    25    1
    68    54    52    1
    69    52    51    1
    70    52    53    1
    71    25    26    2
    72    30    28    1
    73    28    29    1
    74    42    41    2
    75    41    40    1
    76    46    44    1
    77    45    44    1
    78    40    39    1
    79    40    43    1
    80    44    43    1
    81    34    33    2
    82    33    32    1
    83    38    36    1
    84    32    31    1
    85    32    35    1
    86    36    35    1
    87    36    37    1
