@<TRIPOS>MOLECULE
tmp/6adqG00.pdb
 177 178 0 0 0
SMALL
GASTEIGER

@<TRIPOS>ATOM
      1  N        158.8810  154.4230  165.7590 N.3    37  ILE37      -0.1245
      2  CA       157.8090  154.3270  166.7380 C.3    37  ILE37       0.1561
      3  C        158.1030  153.2950  167.8180 C.2    37  ILE37       0.2260
      4  O        157.4780  153.3340  168.8890 O.2    37  ILE37      -0.2867
      5  CB       156.4930  154.0700  165.9880 C.3    37  ILE37       0.0252
      6  CG1      155.3250  154.6480  166.7530 C.3    37  ILE37       0.0019
      7  CG2      156.2490  152.5910  165.7820 C.3    37  ILE37       0.0019
      8  CD1      154.2740  155.0580  165.8320 C.3    37  ILE37       0.0001
      9  N        159.3220  155.4910  170.7550 N.3    40  MET40      -0.1230
     10  CA       158.3200  156.0380  171.6640 C.3    40  MET40       0.1702
     11  C        157.5500  154.9500  172.4110 C.2    40  MET40       0.2592
     12  O        157.1230  155.1920  173.5450 O.2    40  MET40      -0.2718
     13  CB       157.3730  156.9790  170.9160 C.3    40  MET40       0.0401
     14  CG       156.5940  156.3550  169.7940 C.3    40  MET40       0.0596
     15  SD       155.6180  157.5760  168.9030 S.3    40  MET40      -0.1393
     16  CE       156.8970  158.4640  168.0340 C.3    40  MET40       0.0692
     17  N        157.4110  153.7440  171.8400 N.am   41  HIS41      -0.1976
     18  CA       156.8220  152.6400  172.6030 C.3    41  HIS41       0.1656
     19  C        157.7000  152.2370  173.7790 C.2    41  HIS41       0.2291
     20  O        157.2230  152.1380  174.9160 O.2    41  HIS41      -0.2864
     21  CB       156.5660  151.4270  171.7120 C.3    41  HIS41       0.0771
     22  CG       155.3680  151.5630  170.8280 C.ar   41  HIS41       0.0820
     23  ND1      155.4330  152.0910  169.5600 N.ar   41  HIS41      -0.2267
     24  CD2      154.0730  151.2340  171.0340 C.ar   41  HIS41       0.1154
     25  CE1      154.2290  152.0780  169.0200 C.ar   41  HIS41       0.1986
     26  NE2      153.3850  151.5700  169.8960 N.ar   41  HIS41      -0.2212
     27  N        160.0130  154.0460  175.0330 N.3    43  GLY43      -0.1210
     28  CA       160.1250  155.2040  175.9020 C.3    43  GLY43       0.1956
     29  C        158.9670  155.3240  176.8710 C.2    43  GLY43       0.2612
     30  O        159.1690  155.6160  178.0490 O.2    43  GLY43      -0.2717
     31  N        157.7460  155.0590  176.4010 N.am   44  GLY44      -0.1956
     32  CA       156.6140  155.0130  177.3120 C.3    44  GLY44       0.1869
     33  C        156.6980  153.8570  178.2920 C.2    44  GLY44       0.2309
     34  O        156.4390  154.0260  179.4880 O.2    44  GLY44      -0.2863
     35  N        159.3250  154.6820  180.7670 N.3    47  SER47      -0.1217
     36  CA       158.7620  155.6920  181.6560 C.3    47  SER47       0.1889
     37  C        157.9010  155.0620  182.7420 C.2    47  SER47       0.2288
     38  O        158.0070  155.4200  183.9230 O.2    47  SER47      -0.2866
     39  CB       157.9440  156.6780  180.8260 C.3    47  SER47       0.2089
     40  OG       157.1730  157.5400  181.6320 O.3    47  SER47      -0.2183
     41  N        160.0500  153.2560  185.1300 N.3    50  PHE50      -0.1241
     42  CA       160.7060  154.1860  186.0410 C.3    50  PHE50       0.1605
     43  C        159.7540  154.6420  187.1390 C.2    50  PHE50       0.2264
     44  O        160.1500  154.7580  188.3070 O.2    50  PHE50      -0.2867
     45  CB       161.2410  155.3770  185.2550 C.3    50  PHE50       0.0534
     46  CG       162.0040  156.3530  186.0800 C.ar   50  PHE50      -0.0203
     47  CD1      163.2940  156.0770  186.4860 C.ar   50  PHE50      -0.0042
     48  CD2      161.4350  157.5550  186.4410 C.ar   50  PHE50      -0.0042
     49  CE1      163.9980  156.9880  187.2410 C.ar   50  PHE50      -0.0003
     50  CE2      162.1300  158.4670  187.1980 C.ar   50  PHE50      -0.0003
     51  CZ       163.4140  158.1840  187.5990 C.ar   50  PHE50      -0.0000
     52  N        148.2750  153.7010  183.3410 N.3    74  VAL74      -0.1231
     53  CA       147.7910  154.4970  182.2150 C.3    74  VAL74       0.1692
     54  C        148.7880  154.4570  181.0630 C.2    74  VAL74       0.2592
     55  O        148.4040  154.2500  179.9060 O.2    74  VAL74      -0.2718
     56  CB       147.4860  155.9370  182.6670 C.3    74  VAL74       0.0266
     57  CG1      147.2850  156.8490  181.4810 C.3    74  VAL74       0.0020
     58  CG2      146.2270  155.9540  183.4950 C.3    74  VAL74       0.0020
     59  N        150.0810  154.5850  181.3620 N.am   75  ILE75      -0.1966
     60  CA       151.0800  154.5890  180.2980 C.3    75  ILE75       0.1727
     61  C        151.2480  153.1930  179.7080 C.2    75  ILE75       0.2616
     62  O        151.3750  153.0410  178.4890 O.2    75  ILE75      -0.2715
     63  CB       152.4100  155.1660  180.8110 C.3    75  ILE75       0.0290
     64  CG1      152.2300  156.6180  181.2280 C.3    75  ILE75       0.0022
     65  CG2      153.4330  155.1810  179.7270 C.3    75  ILE75       0.0023
     66  CD1      153.4520  157.1980  181.8980 C.3    75  ILE75       0.0001
     67  N        151.2100  152.1530  180.5450 N.am   76  VAL76      -0.1963
     68  CA       151.2550  150.7830  180.0360 C.3    76  VAL76       0.1727
     69  C        150.0130  150.4680  179.2110 C.2    76  VAL76       0.2616
     70  O        150.1110  149.8120  178.1700 O.2    76  VAL76      -0.2715
     71  CB       151.4580  149.7940  181.2030 C.3    76  VAL76       0.0290
     72  CG1      151.1980  148.3610  180.7890 C.3    76  VAL76       0.0023
     73  CG2      152.8780  149.8780  181.6910 C.3    76  VAL76       0.0023
     74  N        148.8520  151.0040  179.5940 N.am   77  ALA77      -0.1963
     75  CA       147.6390  150.7870  178.8170 C.3    77  ALA77       0.1728
     76  C        147.7000  151.5010  177.4750 C.2    77  ALA77       0.2616
     77  O        147.2940  150.9360  176.4570 O.2    77  ALA77      -0.2715
     78  CB       146.4200  151.2480  179.6110 C.3    77  ALA77       0.0334
     79  N        148.2370  152.7240  177.4460 N.am   78  LEU78      -0.1963
     80  CA       148.3540  153.4520  176.1850 C.3    78  LEU78       0.1728
     81  C        149.3740  152.8060  175.2570 C.2    78  LEU78       0.2616
     82  O        149.1120  152.6520  174.0590 O.2    78  LEU78      -0.2715
     83  CB       148.7210  154.9080  176.4450 C.3    78  LEU78       0.0311
     84  CG       147.6440  155.7740  177.0870 C.3    78  LEU78       0.0022
     85  CD1      148.2080  157.1310  177.4180 C.3    78  LEU78       0.0001
     86  CD2      146.4550  155.9080  176.1660 C.3    78  LEU78       0.0001
     87  N        150.5240  152.3930  175.7980 N.am   79  VAL79      -0.1963
     88  CA       151.5450  151.7320  174.9920 C.3    79  VAL79       0.1727
     89  C        151.0510  150.3790  174.4970 C.2    79  VAL79       0.2617
     90  O        151.2520  150.0230  173.3300 O.2    79  VAL79      -0.2715
     91  CB       152.8520  151.6120  175.7960 C.3    79  VAL79       0.0290
     92  CG1      153.8510  150.7340  175.0870 C.3    79  VAL79       0.0023
     93  CG2      153.4610  152.9800  175.9920 C.3    79  VAL79       0.0023
     94  N        150.3430  149.6320  175.3440 N.am   80  GLY80      -0.1940
     95  CA       149.8450  148.3330  174.9310 C.3    80  GLY80       0.2014
     96  C        148.7260  148.4270  173.9160 C.2    80  GLY80       0.2639
     97  O        148.6840  147.6480  172.9600 O.2    80  GLY80      -0.2714
     98  N        147.8280  149.4020  174.0870 N.am   81  ARG81      -0.1963
     99  CA       146.7870  149.6480  173.0970 C.3    81  ARG81       0.1729
    100  C        147.3820  150.0720  171.7660 C.2    81  ARG81       0.2616
    101  O        146.9620  149.5910  170.7090 O.2    81  ARG81      -0.2715
    102  CB       145.8260  150.7190  173.6030 C.3    81  ARG81       0.0348
    103  CG       144.7290  151.0290  172.6160 C.3    81  ARG81       0.0492
    104  CD       143.7660  152.0660  173.1290 C.3    81  ARG81       0.2205
    105  NE       142.6820  152.2650  172.1770 N.pl3  81  ARG81      -0.0865
    106  CZ       142.7380  153.1130  171.1610 C.cat  81  ARG81       0.5346
    107  NH1      143.8280  153.8340  170.9620 N.pl3  81  ARG81       0.1354
    108  NH2      141.7080  153.2330  170.3400 N.pl3  81  ARG81       0.1354
    109  N        148.3930  150.9340  171.8080 N.am   82  ASN82      -0.1958
    110  CA       148.9810  151.4770  170.5960 C.3    82  ASN82       0.1819
    111  C        149.7600  150.4050  169.8390 C.2    82  ASN82       0.2621
    112  O        149.6490  150.2870  168.6080 O.2    82  ASN82      -0.2715
    113  CB       149.8660  152.6450  171.0000 C.3    82  ASN82       0.1195
    114  CG       150.1120  153.5910  169.8910 C.2    82  ASN82       0.2630
    115  OD1      149.6330  153.3900  168.7810 O.2    82  ASN82      -0.2716
    116  ND2      150.8660  154.6400  170.1660 N.am   82  ASN82      -0.0877
    117  N        150.4990  149.5720  170.5710 N.am   83  TRP83      -0.1960
    118  CA       151.2310  148.4780  169.9490 C.3    83  TRP83       0.1771
    119  C        150.2910  147.3940  169.4440 C.2    83  TRP83       0.2620
    120  O        150.5540  146.7800  168.4070 O.2    83  TRP83      -0.2715
    121  CB       152.2260  147.8850  170.9350 C.3    83  TRP83       0.0590
    122  CG       152.9750  146.7570  170.3580 C.ar   83  TRP83       0.0006
    123  CD1      153.9330  146.8160  169.3920 C.ar   83  TRP83       0.0946
    124  CD2      152.7980  145.3770  170.6670 C.ar   83  TRP83       0.0152
    125  NE1      154.3860  145.5540  169.0990 N.ar   83  TRP83      -0.2442
    126  CE2      153.6990  144.6520  169.8670 C.ar   83  TRP83       0.0810
    127  CE3      151.9690  144.6830  171.5480 C.ar   83  TRP83       0.0012
    128  CZ2      153.7940  143.2680  169.9230 C.ar   83  TRP83       0.0191
    129  CZ3      152.0640  143.3140  171.6030 C.ar   83  TRP83       0.0001
    130  CH2      152.9690  142.6190  170.7970 C.ar   83  TRP83       0.0015
    131  N        149.1800  147.1560  170.1480 N.am   84  TRP84      -0.1960
    132  CA       148.2170  146.1570  169.6990 C.3    84  TRP84       0.1771
    133  C        147.4890  146.6100  168.4460 C.2    84  TRP84       0.2620
    134  O        147.2050  145.7990  167.5540 O.2    84  TRP84      -0.2715
    135  CB       147.2200  145.8680  170.8130 C.3    84  TRP84       0.0590
    136  CG       146.2280  144.8420  170.4490 C.ar   84  TRP84       0.0006
    137  CD1      144.9160  145.0370  170.1590 C.ar   84  TRP84       0.0946
    138  CD2      146.4700  143.4470  170.3020 C.ar   84  TRP84       0.0152
    139  NE1      144.3170  143.8420  169.8580 N.ar   84  TRP84      -0.2442
    140  CE2      145.2550  142.8490  169.9380 C.ar   84  TRP84       0.0810
    141  CE3      147.5990  142.6430  170.4530 C.ar   84  TRP84       0.0012
    142  CZ2      145.1360  141.4820  169.7250 C.ar   84  TRP84       0.0191
    143  CZ3      147.4810  141.2930  170.2380 C.ar   84  TRP84       0.0001
    144  CH2      146.2590  140.7230  169.8750 C.ar   84  TRP84       0.0015
    145  N        147.1820  147.9010  168.3590 N.am   85  LEU85      -0.1963
    146  CA       146.5520  148.4240  167.1580 C.3    85  LEU85       0.1728
    147  C        147.5080  148.4210  165.9770 C.2    85  LEU85       0.2616
    148  O        147.0830  148.1890  164.8430 O.2    85  LEU85      -0.2715
    149  CB       146.0010  149.8180  167.4160 C.3    85  LEU85       0.0311
    150  CG       144.5220  149.8920  167.7810 C.3    85  LEU85       0.0022
    151  CD1      144.1700  149.1860  169.0530 C.3    85  LEU85       0.0001
    152  CD2      144.1870  151.3510  167.9230 C.3    85  LEU85       0.0001
    153  N        148.8000  148.6530  166.2040 N.am   86  ARG86      -0.1977
    154  CA       149.7000  148.4780  165.0670 C.3    86  ARG86       0.1597
    155  C        149.9970  147.0240  164.7510 C.2    86  ARG86       0.2287
    156  O        150.3940  146.7230  163.6210 O.2    86  ARG86      -0.2864
    157  CB       151.0070  149.2260  165.2670 C.3    86  ARG86       0.0334
    158  CG       150.7800  150.6590  165.0500 C.3    86  ARG86       0.0492
    159  CD       152.0100  151.4940  165.0740 C.3    86  ARG86       0.2205
    160  NE       151.5720  152.8530  164.8300 N.pl3  86  ARG86      -0.0865
    161  CZ       151.1930  153.6670  165.8030 C.cat  86  ARG86       0.5346
    162  NH1      151.2710  153.2600  167.0580 N.pl3  86  ARG86       0.1354
    163  NH2      150.7910  154.8990  165.5310 N.pl3  86  ARG86       0.1354
    164  N        145.4430  148.9500  163.1900 N.3    90  TRP90      -0.1241
    165  CA       144.4490  149.9210  163.6600 C.3    90  TRP90       0.1605
    166  C        143.0260  149.3660  163.5680 C.2    90  TRP90       0.2264
    167  O        142.1700  149.8870  162.8540 O.2    90  TRP90      -0.2867
    168  CB       144.5700  151.2530  162.9140 C.3    90  TRP90       0.0550
    169  CG       145.8350  151.9870  163.1900 C.ar   90  TRP90       0.0003
    170  CD1      146.0910  152.8010  164.2500 C.ar   90  TRP90       0.0946
    171  CD2      147.0070  152.0140  162.3720 C.ar   90  TRP90       0.0152
    172  NE1      147.3580  153.3150  164.1570 N.ar   90  TRP90      -0.2442
    173  CE2      147.9400  152.8490  163.0080 C.ar   90  TRP90       0.0810
    174  CE3      147.3610  151.4050  161.1660 C.ar   90  TRP90       0.0012
    175  CZ2      149.2040  153.0930  162.4790 C.ar   90  TRP90       0.0191
    176  CZ3      148.6160  151.6470  160.6440 C.ar   90  TRP90       0.0001
    177  CH2      149.5220  152.4830  161.2980 C.ar   90  TRP90       0.0015
@<TRIPOS>BOND
     1   176   174   ar
     2   176   177   ar
     3   174   171   ar
     4   177   175   ar
     5   171   173   ar
     6   171   169   ar
     7   175   173   ar
     8   167   166    2
     9   168   169    1
    10   168   165    1
    11   173   172   ar
    12   164   165    1
    13   169   170   ar
    14   166   165    1
    15   156   155    2
    16   172   170   ar
    17   155   154    1
    18   160   159    1
    19   160   161    2
    20   148   147    2
    21   158   159    1
    22   158   157    1
    23   154   157    1
    24   154   153    1
    25   163   161    1
    26     1     2    1
    27     7     5    1
    28   161   162    1
    29     8     6    1
    30   147   153   am
    31   147   146    1
    32     5     2    1
    33     5     6    1
    34     2     3    1
    35   146   149    1
    36   146   145    1
    37   149   150    1
    38   134   133    2
    39   150   152    1
    40   150   151    1
    41     3     4    2
    42    16    15    1
    43   145   133   am
    44   120   119    2
    45   133   132    1
    46   112   111    2
    47   115   114    2
    48    15    14    1
    49    25    23   ar
    50    25    26   ar
    51   125   123   ar
    52   125   126   ar
    53   123   122   ar
    54   119   118    1
    55   119   131   am
    56    23    22   ar
    57   132   131    1
    58   132   135    1
    59   142   144   ar
    60   142   140   ar
    61    14    13    1
    62   111   117   am
    63   111   110    1
    64   139   140   ar
    65   139   137   ar
    66   126   128   ar
    67   126   124   ar
    68   144   143   ar
    69   114   116   am
    70   114   113    1
    71    26    24   ar
    72   128   130   ar
    73   140   138   ar
    74   118   117    1
    75   118   121    1
    76   137   136   ar
    77   143   141   ar
    78   138   136   ar
    79   138   141   ar
    80   108   106    1
    81   122   124   ar
    82   122   121    1
    83   136   135    1
    84   110   113    1
    85   110   109    1
    86   124   127   ar
    87   101   100    2
    88     9    10    1
    89   130   129   ar
    90    22    24   ar
    91    22    21    1
    92    13    10    1
    93   107   106    1
    94   106   105    2
    95   127   129   ar
    96    10    11    1
    97    21    18    1
    98   100   109   am
    99   100    99    1
   100    17    11   am
   101    17    18    1
   102   105   104    1
   103    11    12    2
   104    18    19    1
   105   103   104    1
   106   103   102    1
   107    97    96    2
   108    99   102    1
   109    99    98    1
   110    90    89    2
   111    19    20    2
   112    96    98   am
   113    96    95    1
   114    82    81    2
   115    89    88    1
   116    89    94   am
   117    95    94    1
   118    88    91    1
   119    88    87    1
   120    27    28    1
   121    92    91    1
   122    81    87   am
   123    81    80    1
   124    91    93    1
   125    28    29    1
   126    86    84    1
   127    80    83    1
   128    80    79    1
   129    31    29   am
   130    31    32    1
   131    83    84    1
   132    77    76    2
   133    29    30    2
   134    84    85    1
   135    32    33    1
   136    79    76   am
   137    76    75    1
   138    70    69    2
   139    33    34    2
   140    62    61    2
   141    75    74    1
   142    75    78    1
   143    69    74   am
   144    69    68    1
   145    61    60    1
   146    61    67   am
   147    65    63    1
   148    55    54    2
   149    68    67    1
   150    68    71    1
   151    60    63    1
   152    60    59    1
   153    35    36    1
   154    72    71    1
   155    63    64    1
   156    39    40    1
   157    39    36    1
   158    54    59   am
   159    54    53    1
   160    71    73    1
   161    64    66    1
   162    57    56    1
   163    36    37    1
   164    53    56    1
   165    53    52    1
   166    56    58    1
   167    37    38    2
   168    41    42    1
   169    45    42    1
   170    45    46    1
   171    42    43    1
   172    46    48   ar
   173    46    47   ar
   174    48    50   ar
   175    47    49   ar
   176    43    44    2
   177    50    51   ar
   178    49    51   ar
