@<TRIPOS>MOLECULE
tmp/6adqB07.pdb
 88 83 0 0 0
SMALL
GASTEIGER

@<TRIPOS>ATOM
      1  N        139.5580  157.9050  162.1450 N.3    12  MET12      -0.1245
      2  CA       140.0150  158.8500  163.1480 C.3    12  MET12       0.1570
      3  C        140.1330  160.2610  162.6000 C.2    12  MET12       0.2261
      4  O        139.8440  161.2250  163.3100 O.2    12  MET12      -0.2867
      5  CB       141.3650  158.3920  163.7050 C.3    12  MET12       0.0387
      6  CG       141.8600  159.1770  164.8900 C.3    12  MET12       0.0595
      7  SD       140.7540  159.0270  166.2970 S.3    12  MET12      -0.1393
      8  CE       141.0800  157.3400  166.7780 C.3    12  MET12       0.0692
      9  N        146.3490  162.7410  161.0280 N.3    15  LYS15      -0.1245
     10  CA       147.1470  163.1040  162.1880 C.3    15  LYS15       0.1561
     11  C        147.3270  164.6110  162.2170 C.2    15  LYS15       0.2260
     12  O        147.8250  165.2000  161.2560 O.2    15  LYS15      -0.2867
     13  CB       148.4980  162.4020  162.1420 C.3    15  LYS15       0.0271
     14  CG       149.3380  162.5910  163.3830 C.3    15  LYS15       0.0035
     15  CD       150.6800  161.9150  163.2130 C.3    15  LYS15       0.0206
     16  CE       150.5340  160.4090  163.2520 C.3    15  LYS15       0.1093
     17  NZ       151.8540  159.7330  163.1820 N.3    15  LYS15      -0.1314
     18  N        143.1580  168.5190  164.6780 N.3    18  LEU18      -0.1245
     19  CA       142.2380  168.8510  165.7470 C.3    18  LEU18       0.1561
     20  C        142.8960  169.6340  166.8640 C.2    18  LEU18       0.2260
     21  O        142.2650  170.5210  167.4350 O.2    18  LEU18      -0.2867
     22  CB       141.6280  167.5670  166.2940 C.3    18  LEU18       0.0270
     23  CG       140.4900  167.7270  167.2860 C.3    18  LEU18       0.0019
     24  CD1      139.3220  168.4100  166.6100 C.3    18  LEU18       0.0001
     25  CD2      140.0740  166.3850  167.8430 C.3    18  LEU18       0.0001
     26  N        132.1240  166.7920  175.3180 N.3    37  VAL37      -0.1231
     27  CA       133.2340  165.9280  175.7220 C.3    37  VAL37       0.1692
     28  C        133.7210  166.2770  177.1190 C.2    37  VAL37       0.2591
     29  O        133.7350  165.4210  178.0130 O.2    37  VAL37      -0.2718
     30  CB       134.3850  166.0090  174.7100 C.3    37  VAL37       0.0266
     31  CG1      135.6100  165.3230  175.2560 C.3    37  VAL37       0.0020
     32  CG2      133.9870  165.3280  173.4690 C.3    37  VAL37       0.0020
     33  N        134.1350  167.5310  177.3340 N.am   38  VAL38      -0.1980
     34  CA       134.7510  167.8370  178.6140 C.3    38  VAL38       0.1595
     35  C        133.7060  167.8850  179.7190 C.2    38  VAL38       0.2287
     36  O        134.0300  167.6290  180.8800 O.2    38  VAL38      -0.2864
     37  CB       135.5760  169.1380  178.5610 C.3    38  VAL38       0.0276
     38  CG1      134.7030  170.3540  178.6610 C.3    38  VAL38       0.0022
     39  CG2      136.6390  169.1370  179.6360 C.3    38  VAL38       0.0022
     40  N        133.2740  164.4380  180.7670 N.3    41  ALA41      -0.1245
     41  CA       134.4200  164.1600  181.6310 C.3    41  ALA41       0.1562
     42  C        134.1900  164.6800  183.0480 C.2    41  ALA41       0.2260
     43  O        134.5170  163.9960  184.0290 O.2    41  ALA41      -0.2867
     44  CB       135.6890  164.7620  181.0400 C.3    41  ALA41       0.0290
     45  N        135.9770  176.0480  181.0290 N.3   121  LEU121     -0.1245
     46  CA       136.9340  175.0040  181.3810 C.3   121  LEU121      0.1561
     47  C        137.9680  175.4960  182.3830 C.2   121  LEU121      0.2260
     48  O        138.3550  174.7510  183.2920 O.2   121  LEU121     -0.2867
     49  CB       137.6110  174.4740  180.1220 C.3   121  LEU121      0.0270
     50  CG       138.6850  173.4100  180.3000 C.3   121  LEU121      0.0019
     51  CD1      138.1300  172.2290  181.0380 C.3   121  LEU121      0.0001
     52  CD2      139.1810  172.9810  178.9480 C.3   121  LEU121      0.0001
     53  N        132.8650  155.9370  171.9560 N.3   487  PHE487     -0.1241
     54  CA       134.2460  155.6480  171.6110 C.3   487  PHE487      0.1605
     55  C        134.3410  154.7340  170.4030 C.2   487  PHE487      0.2264
     56  O        135.3030  154.8280  169.6420 O.2   487  PHE487     -0.2867
     57  CB       134.9490  155.0250  172.8120 C.3   487  PHE487      0.0534
     58  CG       136.3880  154.7130  172.5790 C.ar  487  PHE487     -0.0203
     59  CD1      137.3220  155.7250  172.5360 C.ar  487  PHE487     -0.0042
     60  CD2      136.8100  153.4070  172.4250 C.ar  487  PHE487     -0.0042
     61  CE1      138.6540  155.4450  172.3300 C.ar  487  PHE487     -0.0003
     62  CE2      138.1370  153.1200  172.2200 C.ar  487  PHE487     -0.0003
     63  CZ       139.0610  154.1420  172.1730 C.ar  487  PHE487     -0.0000
     64  N        132.5290  157.1860  167.1780 N.3   490  TRP490     -0.1227
     65  CA       133.2970  158.1600  166.4000 C.3   490  TRP490      0.1737
     66  C        134.2700  157.4790  165.4460 C.2   490  TRP490      0.2595
     67  O        134.1450  157.5880  164.2230 O.2   490  TRP490     -0.2718
     68  CB       134.0790  159.0890  167.3240 C.3   490  TRP490      0.0564
     69  CG       133.3430  160.2200  167.8510 C.ar  490  TRP490      0.0003
     70  CD1      132.1740  160.7210  167.4000 C.ar  490  TRP490      0.0946
     71  CD2      133.7260  161.0130  168.9620 C.ar  490  TRP490      0.0152
     72  NE1      131.8000  161.7960  168.1580 N.ar  490  TRP490     -0.2442
     73  CE2      132.7410  161.9920  169.1300 C.ar  490  TRP490      0.0810
     74  CE3      134.8130  160.9890  169.8360 C.ar  490  TRP490      0.0012
     75  CZ2      132.8050  162.9380  170.1320 C.ar  490  TRP490      0.0191
     76  CZ3      134.8770  161.9250  170.8250 C.ar  490  TRP490      0.0001
     77  CH2      133.8770  162.8830  170.9700 C.ar  490  TRP490      0.0015
     78  N        135.2610  156.7840  166.0020 N.am  491  ARG491     -0.1980
     79  CA       136.3360  156.2250  165.2010 C.3   491  ARG491      0.1597
     80  C        135.8940  154.9930  164.4280 C.2   491  ARG491      0.2287
     81  O        136.5540  154.6090  163.4580 O.2   491  ARG491     -0.2864
     82  CB       137.5440  155.9290  166.0960 C.3   491  ARG491      0.0334
     83  CG       137.3240  154.8750  167.1440 C.3   491  ARG491      0.0492
     84  CD       138.4870  154.8420  168.1100 C.3   491  ARG491      0.2205
     85  NE       139.7020  154.3090  167.5050 N.pl3 491  ARG491     -0.0865
     86  CZ       140.0550  153.0310  167.5300 C.cat 491  ARG491      0.5346
     87  NH1      139.2970  152.1390  168.1550 N.pl3 491  ARG491      0.1354
     88  NH2      141.1800  152.6420  166.9470 N.pl3 491  ARG491      0.1354
@<TRIPOS>BOND
     1     9    10    1
     2    12    11    2
     3    13    10    1
     4    13    14    1
     5     1     2    1
     6    10    11    1
     7     3     2    1
     8     3     4    2
     9     2     5    1
    10    17    16    1
    11    15    16    1
    12    15    14    1
    13    81    80    2
    14     5     6    1
    15    67    66    2
    16    80    79    1
    17    18    19    1
    18     6     7    1
    19    79    78    1
    20    79    82    1
    21    66    78   am
    22    66    65    1
    23    19    22    1
    24    19    20    1
    25    82    83    1
    26    22    23    1
    27     7     8    1
    28    65    64    1
    29    65    68    1
    30    24    23    1
    31    20    21    2
    32    88    86    1
    33    83    84    1
    34    23    25    1
    35    68    69    1
    36    70    69   ar
    37    70    72   ar
    38    85    86    2
    39    85    84    1
    40    86    87    1
    41    69    71   ar
    42    72    73   ar
    43    71    73   ar
    44    71    74   ar
    45    73    75   ar
    46    56    55    2
    47    74    76   ar
    48    75    77   ar
    49    55    54    1
    50    76    77   ar
    51    54    53    1
    52    54    57    1
    53    63    62   ar
    54    63    61   ar
    55    62    60   ar
    56    61    59   ar
    57    60    58   ar
    58    59    58   ar
    59    58    57    1
    60    32    30    1
    61    30    31    1
    62    30    27    1
    63    26    27    1
    64    27    28    1
    65    28    33   am
    66    28    29    2
    67    33    34    1
    68    37    34    1
    69    37    38    1
    70    37    39    1
    71    34    35    1
    72    52    50    1
    73    35    36    2
    74    49    50    1
    75    49    46    1
    76    50    51    1
    77    40    41    1
    78    45    46    1
    79    44    41    1
    80    46    47    1
    81    41    42    1
    82    47    48    2
    83    42    43    2
