@<TRIPOS>MOLECULE
tmp/6adqV07.pdb
 109 106 0 0 0
SMALL
GASTEIGER

@<TRIPOS>ATOM
      1  N        218.7400  203.0780  159.5430 N.3   363  ARG363     -0.1245
      2  CA       219.6870  202.6030  160.5330 C.3   363  ARG363      0.1563
      3  C        219.9600  203.7250  161.5250 C.2   363  ARG363      0.2260
      4  O        219.9940  204.8950  161.1330 O.2   363  ARG363     -0.2867
      5  CB       220.9830  202.1460  159.8630 C.3   363  ARG363      0.0307
      6  CG       220.7890  200.9420  158.9790 C.3   363  ARG363      0.0489
      7  CD       222.0370  200.5220  158.2270 C.3   363  ARG363      0.2205
      8  NE       223.0840  199.9730  159.0750 N.pl3 363  ARG363     -0.0865
      9  CZ       224.2920  200.5050  159.1940 C.cat 363  ARG363      0.5346
     10  NH1      225.1920  199.9430  159.9830 N.pl3 363  ARG363      0.1354
     11  NH2      224.6060  201.5830  158.4980 N.pl3 363  ARG363      0.1354
     12  N        222.4810  204.9120  162.8910 N.3   365  ARG365     -0.1245
     13  CA       223.5460  205.8480  162.5890 C.3   365  ARG365      0.1563
     14  C        223.1440  206.8310  161.5040 C.2   365  ARG365      0.2260
     15  O        223.6670  207.9450  161.4830 O.2   365  ARG365     -0.2867
     16  CB       224.8210  205.1130  162.1840 C.3   365  ARG365      0.0307
     17  CG       224.7920  204.4530  160.8320 C.3   365  ARG365      0.0489
     18  CD       226.0870  203.7340  160.5750 C.3   365  ARG365      0.2205
     19  NE       226.2260  202.5440  161.3980 N.pl3 365  ARG365     -0.0865
     20  CZ       227.3450  201.8390  161.4890 C.cat 365  ARG365      0.5346
     21  NH1      227.4000  200.7610  162.2560 N.pl3 365  ARG365      0.1354
     22  NH2      228.4170  202.2180  160.8160 N.pl3 365  ARG365      0.1354
     23  N        228.9810  210.5330  167.4980 N.3   426  TRP426     -0.1241
     24  CA       229.3110  209.1300  167.3500 C.3   426  TRP426      0.1605
     25  C        228.4840  208.4970  166.2510 C.2   426  TRP426      0.2264
     26  O        228.9830  207.6250  165.5430 O.2   426  TRP426     -0.2867
     27  CB       229.1030  208.4150  168.6820 C.3   426  TRP426      0.0550
     28  CG       229.7410  207.0920  168.7700 C.ar  426  TRP426      0.0003
     29  CD1      231.0620  206.8320  168.6430 C.ar  426  TRP426      0.0946
     30  CD2      229.1150  205.8490  169.0800 C.ar  426  TRP426      0.0152
     31  NE1      231.3070  205.4990  168.8140 N.ar  426  TRP426     -0.2442
     32  CE2      230.1250  204.8700  169.0910 C.ar  426  TRP426      0.0810
     33  CE3      227.7960  205.4640  169.3370 C.ar  426  TRP426      0.0012
     34  CZ2      229.8630  203.5370  169.3410 C.ar  426  TRP426      0.0191
     35  CZ3      227.5300  204.1460  169.5910 C.ar  426  TRP426      0.0001
     36  CH2      228.5630  203.1900  169.5860 C.ar  426  TRP426      0.0015
     37  N        230.0730  206.9260  162.9880 N.3   430  LEU430     -0.1245
     38  CA       229.6810  205.6120  162.4940 C.3   430  LEU430      0.1561
     39  C        229.2180  205.6710  161.0530 C.2   430  LEU430      0.2260
     40  O        229.3520  204.6810  160.3290 O.2   430  LEU430     -0.2867
     41  CB       228.5720  205.0170  163.3450 C.3   430  LEU430      0.0270
     42  CG       228.9450  204.4580  164.6970 C.3   430  LEU430      0.0019
     43  CD1      227.6790  204.1440  165.4220 C.3   430  LEU430      0.0001
     44  CD2      229.6970  203.2100  164.4470 C.3   430  LEU430      0.0001
     45  N        232.4730  205.9050  159.1380 N.3   433  SER433     -0.1202
     46  CA       233.2000  204.6470  159.1680 C.3   433  SER433      0.2020
     47  C        232.6650  203.6450  158.1560 C.2   433  SER433      0.2618
     48  O        233.4210  202.7810  157.7060 O.2   433  SER433     -0.2717
     49  CB       233.1530  204.0520  160.5690 C.3   433  SER433      0.2103
     50  OG       233.8370  202.8150  160.6110 O.3   433  SER433     -0.2182
     51  N        231.3870  203.7190  157.7890 N.am  434  ASP434     -0.1973
     52  CA       230.8840  202.9300  156.6700 C.3   434  ASP434      0.1709
     53  C        230.4410  203.8310  155.5260 C.2   434  ASP434      0.2293
     54  O        229.4380  203.5830  154.8650 O.2   434  ASP434     -0.2864
     55  CB       229.7770  201.9530  157.0890 C.3   434  ASP434      0.1436
     56  CG       228.5130  202.6200  157.6260 C.2   434  ASP434      0.3671
     57  OD1      228.4320  203.8530  157.7420 O.co2 434  ASP434     -0.2456
     58  OD2      227.5660  201.8740  157.9480 O.co2 434  ASP434     -0.2456
     59  N        223.7210  197.6100  156.3330 N.3   480  PRO480     -0.2102
     60  CA       224.9540  197.3580  157.0790 C.3   480  PRO480      0.1504
     61  C        226.0320  196.7980  156.1720 C.2   480  PRO480      0.2576
     62  O        225.9680  195.6420  155.7450 O.2   480  PRO480     -0.2718
     63  CB       224.5190  196.3570  158.1550 C.3   480  PRO480      0.0282
     64  CG       223.2990  195.7270  157.6180 C.3   480  PRO480      0.0208
     65  CD       222.6090  196.7700  156.8050 C.3   480  PRO480      0.0893
     66  N        227.0110  197.6170  155.8530 N.am  481  LEU481     -0.1967
     67  CA       228.0480  197.0950  154.9830 C.3   481  LEU481      0.1713
     68  C        229.0870  196.3470  155.8110 C.2   481  LEU481      0.2458
     69  O        229.4510  196.7960  156.9000 O.2   481  LEU481     -0.2730
     70  CB       228.7190  198.2080  154.1830 C.3   481  LEU481      0.0310
     71  CG       227.9240  198.7120  152.9750 C.3   481  LEU481      0.0022
     72  CD1      226.9620  199.8360  153.3130 C.3   481  LEU481      0.0001
     73  CD2      228.8280  199.0830  151.8410 C.3   481  LEU481      0.0001
     74  N        229.5630  195.2040  155.3250 N.am  482  PRO482     -0.2716
     75  CA       230.5100  194.4100  156.1100 C.3   482  PRO482      0.1536
     76  C        231.8880  195.0430  156.1140 C.2   482  PRO482      0.2598
     77  O        232.4090  195.4550  155.0770 O.2   482  PRO482     -0.2715
     78  CB       230.5160  193.0590  155.3940 C.3   482  PRO482      0.0310
     79  CG       230.1420  193.3850  154.0030 C.3   482  PRO482      0.0237
     80  CD       229.1880  194.5320  154.0730 C.3   482  PRO482      0.0939
     81  N        232.4710  195.1220  157.3050 N.am  483  LYS483     -0.1964
     82  CA       233.7660  195.7450  157.5040 C.3   483  LYS483      0.1728
     83  C        234.8670  194.7420  157.7890 C.2   483  LYS483      0.2616
     84  O        235.9990  195.1470  158.0680 O.2   483  LYS483     -0.2715
     85  CB       233.6890  196.7510  158.6460 C.3   483  LYS483      0.0311
     86  CG       232.9290  198.0050  158.3230 C.3   483  LYS483      0.0038
     87  CD       232.8820  198.8850  159.5420 C.3   483  LYS483      0.0206
     88  CE       232.1290  200.1550  159.2730 C.3   483  LYS483      0.1093
     89  NZ       231.9790  200.9280  160.5250 N.3   483  LYS483     -0.1314
     90  N        234.5690  193.4520  157.7280 N.am  484  ARG484     -0.1977
     91  CA       235.5630  192.4050  157.8880 C.3   484  ARG484      0.1597
     92  C        235.4510  191.4650  156.7030 C.2   484  ARG484      0.2287
     93  O        234.3470  191.0290  156.3670 O.2   484  ARG484     -0.2864
     94  CB       235.3410  191.6430  159.1910 C.3   484  ARG484      0.0334
     95  CG       235.5510  192.4810  160.4290 C.3   484  ARG484      0.0492
     96  CD       235.1880  191.7160  161.6860 C.3   484  ARG484      0.2205
     97  NE       233.7540  191.4750  161.7660 N.pl3 484  ARG484     -0.0865
     98  CZ       233.1770  190.7360  162.7030 C.cat 484  ARG484      0.5346
     99  NH1      233.9130  190.1690  163.6440 N.pl3 484  ARG484      0.1354
    100  NH2      231.8640  190.5650  162.7030 N.pl3 484  ARG484      0.1354
    101  N        233.6660  188.2840  157.5470 N.3   487  LYS487     -0.1245
    102  CA       232.2360  188.1170  157.3350 C.3   487  LYS487      0.1561
    103  C        231.8710  187.9630  155.8690 C.2   487  LYS487      0.2260
    104  O        230.7000  187.7260  155.5640 O.2   487  LYS487     -0.2867
    105  CB       231.4690  189.2940  157.9360 C.3   487  LYS487      0.0271
    106  CG       231.6580  189.4370  159.4310 C.3   487  LYS487      0.0035
    107  CD       231.1990  188.1980  160.1660 C.3   487  LYS487      0.0206
    108  CE       229.7000  188.0570  160.1230 C.3   487  LYS487      0.1093
    109  NZ       229.0540  189.1430  160.8980 N.3   487  LYS487     -0.1314
@<TRIPOS>BOND
     1    73    71    1
     2    71    72    1
     3    71    70    1
     4    79    80    1
     5    79    78    1
     6    80    74    1
     7    70    67    1
     8    54    53    2
     9    67    68    1
    10    67    66    1
    11    77    76    2
    12    74    68   am
    13    74    75    1
    14    78    75    1
    15    53    52    1
    16   104   103    2
    17    62    61    2
    18    68    69    2
    19    66    61   am
    20   103   102    1
    21    75    76    1
    22    76    81   am
    23    61    60    1
    24    59    65    1
    25    59    60    1
    26    93    92    2
    27    52    55    1
    28    52    51    1
    29    92    91    1
    30    65    64    1
    31    60    63    1
    32    55    56    1
    33    81    82    1
    34   102   101    1
    35   102   105    1
    36    82    83    1
    37    82    85    1
    38    64    63    1
    39    56    57   ar
    40    56    58   ar
    41    48    47    2
    42    90    83   am
    43    90    91    1
    44    83    84    2
    45    51    47   am
    46    91    94    1
    47   105   106    1
    48    47    46    1
    49     7     6    1
    50     7     8    1
    51    86    85    1
    52    86    87    1
    53    11     9    1
    54     6     5    1
    55     8     9    2
    56    45    46    1
    57    46    49    1
    58    94    95    1
    59     9    10    1
    60    88    87    1
    61    88    89    1
    62   106   107    1
    63     1     2    1
    64     5     2    1
    65   108   107    1
    66   108   109    1
    67    40    39    2
    68    95    96    1
    69     2     3    1
    70    49    50    1
    71    18    17    1
    72    18    19    1
    73    22    20    1
    74    17    16    1
    75    39    38    1
    76     4     3    2
    77    19    20    2
    78    15    14    2
    79    20    21    1
    80    14    13    1
    81    96    97    1
    82    97    98    2
    83    16    13    1
    84    38    37    1
    85    38    41    1
    86    13    12    1
    87    98   100    1
    88    98    99    1
    89    41    42    1
    90    44    42    1
    91    42    43    1
    92    26    25    2
    93    25    24    1
    94    24    23    1
    95    24    27    1
    96    29    28   ar
    97    29    31   ar
    98    27    28    1
    99    28    30   ar
   100    31    32   ar
   101    30    32   ar
   102    30    33   ar
   103    32    34   ar
   104    33    35   ar
   105    34    36   ar
   106    36    35   ar
