@<TRIPOS>MOLECULE
tmp/6adqB04.pdb
 92 88 0 0 0
SMALL
GASTEIGER

@<TRIPOS>ATOM
      1  N        126.7830  183.8290  166.6310 N.3   108  ALA108     -0.1231
      2  CA       126.8110  185.2530  166.3070 C.3   108  ALA108      0.1694
      3  C        128.1380  185.9040  166.6580 C.2   108  ALA108      0.2592
      4  O        128.6140  186.7760  165.9270 O.2   108  ALA108     -0.2718
      5  CB       125.6770  185.9660  167.0330 C.3   108  ALA108      0.0304
      6  N        128.7450  185.5150  167.7740 N.am  109  PHE109     -0.1963
      7  CA       130.0300  186.0580  168.1990 C.3   109  PHE109      0.1756
      8  C        131.0160  184.8980  168.2470 C.2   109  PHE109      0.2461
      9  O        131.3140  184.3650  169.3240 O.2   109  PHE109     -0.2730
     10  CB       129.9090  186.7710  169.5390 C.3   109  PHE109      0.0574
     11  CG       129.0230  187.9740  169.4960 C.ar  109  PHE109     -0.0200
     12  CD1      129.4640  189.1480  168.9250 C.ar  109  PHE109     -0.0042
     13  CD2      127.7520  187.9330  170.0320 C.ar  109  PHE109     -0.0042
     14  CE1      128.6510  190.2570  168.8860 C.ar  109  PHE109     -0.0003
     15  CE2      126.9380  189.0410  169.9960 C.ar  109  PHE109     -0.0003
     16  CZ       127.3870  190.2010  169.4230 C.ar  109  PHE109     -0.0000
     17  N        131.5700  184.5080  167.0970 N.am  110  PRO110     -0.2716
     18  CA       132.2200  183.1970  166.9870 C.3   110  PRO110      0.1536
     19  C        133.5700  183.0890  167.6730 C.2   110  PRO110      0.2598
     20  O        134.0980  181.9750  167.7600 O.2   110  PRO110     -0.2715
     21  CB       132.3560  183.0150  165.4760 C.3   110  PRO110      0.0310
     22  CG       132.4300  184.3820  164.9540 C.3   110  PRO110      0.0237
     23  CD       131.5580  185.2220  165.8150 C.3   110  PRO110      0.0939
     24  N        134.1600  184.1850  168.1440 N.am  111  ARG111     -0.1964
     25  CA       135.2620  184.0570  169.0870 C.3   111  ARG111      0.1729
     26  C        134.7760  184.0350  170.5160 C.2   111  ARG111      0.2616
     27  O        135.3870  183.3820  171.3620 O.2   111  ARG111     -0.2715
     28  CB       136.2660  185.1990  168.9470 C.3   111  ARG111      0.0348
     29  CG       137.1180  185.1460  167.7180 C.3   111  ARG111      0.0492
     30  CD       138.0670  186.3180  167.6840 C.3   111  ARG111      0.2205
     31  NE       137.3910  187.5870  167.4920 N.pl3 111  ARG111     -0.0865
     32  CZ       138.0130  188.7540  167.5450 C.cat 111  ARG111      0.5346
     33  NH1      139.3110  188.7820  167.7800 N.pl3 111  ARG111      0.1354
     34  NH2      137.3460  189.8820  167.3640 N.pl3 111  ARG111      0.1354
     35  N        133.6790  184.7200  170.8010 N.am  112  LEU112     -0.1977
     36  CA       133.1930  184.7900  172.1650 C.3   112  LEU112      0.1596
     37  C        132.5300  183.4930  172.6080 C.2   112  LEU112      0.2287
     38  O        132.3960  183.2680  173.8090 O.2   112  LEU112     -0.2864
     39  CB       132.2640  185.9970  172.2890 C.3   112  LEU112      0.0297
     40  CG       131.8360  186.5650  173.6300 C.3   112  LEU112      0.0022
     41  CD1      131.9140  188.0480  173.5490 C.3   112  LEU112      0.0001
     42  CD2      130.4210  186.2140  173.9010 C.3   112  LEU112      0.0001
     43  N        135.5120  181.8190  173.7660 N.3   115  LEU115     -0.1245
     44  CA       135.8150  182.4600  175.0360 C.3   115  LEU115      0.1561
     45  C        134.9080  181.9360  176.1350 C.2   115  LEU115      0.2260
     46  O        135.3600  181.7330  177.2620 O.2   115  LEU115     -0.2867
     47  CB       135.6880  183.9680  174.8770 C.3   115  LEU115      0.0270
     48  CG       136.4340  184.8880  175.8310 C.3   115  LEU115      0.0019
     49  CD1      136.7490  186.1570  175.0850 C.3   115  LEU115      0.0001
     50  CD2      135.6230  185.2200  177.0120 C.3   115  LEU115      0.0001
     51  N        136.6540  179.9370  179.1250 N.3   119  LEU119     -0.1245
     52  CA       136.4140  180.4360  180.4740 C.3   119  LEU119      0.1561
     53  C        135.6840  179.4170  181.3170 C.2   119  LEU119      0.2260
     54  O        135.9450  179.3240  182.5170 O.2   119  LEU119     -0.2867
     55  CB       135.5940  181.7190  180.4920 C.3   119  LEU119      0.0270
     56  CG       136.1600  183.0840  180.1620 C.3   119  LEU119      0.0019
     57  CD1      135.0560  184.0730  180.4060 C.3   119  LEU119      0.0001
     58  CD2      137.3250  183.3760  181.0510 C.3   119  LEU119      0.0001
     59  N        131.0400  183.8980  184.4180 N.3   171  LEU171     -0.1245
     60  CA       131.3050  184.8590  183.3480 C.3   171  LEU171      0.1561
     61  C        131.2500  184.1930  181.9800 C.2   171  LEU171      0.2260
     62  O        130.6580  184.7400  181.0380 O.2   171  LEU171     -0.2867
     63  CB       132.6620  185.5240  183.5540 C.3   171  LEU171      0.0270
     64  CG       132.9830  186.5730  182.4930 C.3   171  LEU171      0.0019
     65  CD1      131.9420  187.6590  182.5460 C.3   171  LEU171      0.0001
     66  CD2      134.3550  187.1580  182.6870 C.3   171  LEU171      0.0001
     67  N        128.5420  184.8980  178.9230 N.3   175  LEU175     -0.1245
     68  CA       128.9380  185.1850  177.5510 C.3   175  LEU175      0.1561
     69  C        128.3210  184.1940  176.5620 C.2   175  LEU175      0.2260
     70  O        127.9480  184.5830  175.4410 O.2   175  LEU175     -0.2867
     71  CB       130.4600  185.2640  177.4640 C.3   175  LEU175      0.0270
     72  CG       130.9440  186.7160  177.6530 C.3   175  LEU175      0.0019
     73  CD1      130.7700  187.3230  179.0320 C.3   175  LEU175      0.0001
     74  CD2      132.3740  186.8350  177.2700 C.3   175  LEU175      0.0001
     75  N        124.7400  185.7670  176.1160 N.3   178  VAL178     -0.1245
     76  CA       124.6240  186.8800  175.1690 C.3   178  VAL178      0.1561
     77  C        124.7870  186.3970  173.7330 C.2   178  VAL178      0.2260
     78  O        123.9870  186.7660  172.8630 O.2   178  VAL178     -0.2867
     79  CB       125.5770  188.0490  175.5160 C.3   178  VAL178      0.0252
     80  CG1      126.8750  187.5890  175.8860 C.3   178  VAL178      0.0019
     81  CG2      125.8460  188.9260  174.3080 C.3   178  VAL178      0.0019
     82  N        131.5980  187.8240  194.4960 N.3   223  PHE223     -0.1241
     83  CA       132.5900  188.8700  194.7170 C.3   223  PHE223      0.1605
     84  C        132.4170  189.4990  196.0880 C.2   223  PHE223      0.2264
     85  O        133.4070  189.8430  196.7450 O.2   223  PHE223     -0.2867
     86  CB       132.4990  189.9400  193.6300 C.3   223  PHE223      0.0534
     87  CG       133.0810  189.5240  192.3100 C.ar  223  PHE223     -0.0203
     88  CD1      133.9030  188.4170  192.2160 C.ar  223  PHE223     -0.0042
     89  CD2      132.8160  190.2540  191.1650 C.ar  223  PHE223     -0.0042
     90  CE1      134.4420  188.0380  191.0060 C.ar  223  PHE223     -0.0003
     91  CE2      133.3520  189.8790  189.9500 C.ar  223  PHE223     -0.0003
     92  CZ       134.1670  188.7700  189.8720 C.ar  223  PHE223     -0.0000
@<TRIPOS>BOND
     1    22    21    1
     2    22    23    1
     3    21    18    1
     4    23    17    1
     5     4     3    2
     6     2     1    1
     7     2     3    1
     8     2     5    1
     9     3     6   am
    10    18    17    1
    11    18    19    1
    12    17     8   am
    13    34    32    1
    14    31    32    2
    15    31    30    1
    16    32    33    1
    17    19    20    2
    18    19    24   am
    19    30    29    1
    20    29    28    1
    21     6     7    1
    22    24    25    1
    23     7     8    1
    24     7    10    1
    25     8     9    2
    26    14    12   ar
    27    14    16   ar
    28    12    11   ar
    29    28    25    1
    30    25    26    1
    31    16    15   ar
    32    11    10    1
    33    11    13   ar
    34    15    13   ar
    35    26    35   am
    36    26    27    2
    37    35    36    1
    38    36    39    1
    39    36    37    1
    40    39    40    1
    41    37    38    2
    42    78    77    2
    43    41    40    1
    44    40    42    1
    45    77    76    1
    46    43    44    1
    47    81    79    1
    48    47    44    1
    49    47    48    1
    50    44    45    1
    51    49    48    1
    52    76    79    1
    53    76    75    1
    54    70    69    2
    55    79    80    1
    56    48    50    1
    57    45    46    2
    58    69    68    1
    59    74    72    1
    60    71    68    1
    61    71    72    1
    62    68    67    1
    63    72    73    1
    64    51    52    1
    65    56    57    1
    66    56    55    1
    67    56    58    1
    68    52    55    1
    69    52    53    1
    70    62    61    2
    71    53    54    2
    72    61    60    1
    73    64    65    1
    74    64    66    1
    75    64    63    1
    76    60    63    1
    77    60    59    1
    78    92    91   ar
    79    92    90   ar
    80    91    89   ar
    81    90    88   ar
    82    89    87   ar
    83    88    87   ar
    84    87    86    1
    85    86    83    1
    86    82    83    1
    87    83    84    1
    88    84    85    2
