@<TRIPOS>MOLECULE
tmp/6adqK05.pdb
 123 118 0 0 0
SMALL
GASTEIGER

@<TRIPOS>ATOM
      1  N        158.5220  186.2610  205.8570 N.3   126  LYS126     -0.1245
      2  CA       157.4830  185.7520  204.9810 C.3   126  LYS126      0.1561
      3  C        157.2810  184.2760  205.2930 C.2   126  LYS126      0.2260
      4  O        157.9990  183.6890  206.0990 O.2   126  LYS126     -0.2867
      5  CB       157.8360  185.9760  203.5130 C.3   126  LYS126      0.0271
      6  CG       157.4410  187.3370  202.9430 C.3   126  LYS126      0.0035
      7  CD       158.3650  188.4410  203.4060 C.3   126  LYS126      0.0206
      8  CE       158.0620  189.7740  202.7660 C.3   126  LYS126      0.1093
      9  NZ       158.9010  190.8490  203.3680 N.3   126  LYS126     -0.1314
     10  N        153.0220  184.1360  206.9260 N.3   138  ASP138     -0.1239
     11  CA       153.6690  185.4380  206.8930 C.3   138  ASP138      0.1674
     12  C        153.6080  186.0850  208.2730 C.2   138  ASP138      0.2266
     13  O        152.6590  185.8900  209.0330 O.2   138  ASP138     -0.2867
     14  CB       152.9700  186.3170  205.8540 C.3   138  ASP138      0.1410
     15  CG       153.7450  187.5720  205.5060 C.2   138  ASP138      0.3668
     16  OD1      154.8440  187.7920  206.0480 O.co2 138  ASP138     -0.2456
     17  OD2      153.2380  188.3520  204.6740 O.co2 138  ASP138     -0.2456
     18  N        153.8130  189.4460  208.5510 N.3   140  GLY140     -0.1225
     19  CA       153.4970  190.8480  208.3460 C.3   140  GLY140      0.1811
     20  C        152.2670  191.2860  209.1130 C.2   140  GLY140      0.2280
     21  O        152.2580  192.3510  209.7340 O.2   140  GLY140     -0.2866
     22  N        159.3360  193.1450  208.6970 N.3   182  ALA182     -0.1231
     23  CA       158.0820  193.0810  207.9610 C.3   182  ALA182      0.1694
     24  C        157.3840  194.4290  207.9000 C.2   182  ALA182      0.2592
     25  O        156.2550  194.5120  207.4090 O.2   182  ALA182     -0.2718
     26  CB       157.1490  192.0420  208.5840 C.3   182  ALA182      0.0304
     27  N        158.0300  195.4780  208.3900 N.am  183  GLU183     -0.1966
     28  CA       157.4950  196.8280  208.3720 C.3   183  GLU183      0.1733
     29  C        158.3690  197.8040  207.6030 C.2   183  GLU183      0.2617
     30  O        157.8360  198.7080  206.9540 O.2   183  GLU183     -0.2715
     31  CB       157.3050  197.3330  209.8130 C.3   183  GLU183      0.0429
     32  CG       156.6810  198.7110  209.9560 C.3   183  GLU183      0.1163
     33  CD       155.2400  198.7530  209.4990 C.2   183  GLU183      0.3649
     34  OE1      154.5480  197.7190  209.6020 O.co2 183  GLU183     -0.2457
     35  OE2      154.7990  199.8220  209.0250 O.co2 183  GLU183     -0.2457
     36  N        159.6860  197.6280  207.6350 N.am  184  THR184     -0.1937
     37  CA       160.5770  198.4870  206.8720 C.3   184  THR184      0.2013
     38  C        160.4120  198.2250  205.3750 C.2   184  THR184      0.2484
     39  O        160.1870  197.0820  204.9630 O.2   184  THR184     -0.2729
     40  CB       162.0320  198.2750  207.3110 C.3   184  THR184      0.1807
     41  OG1      162.9050  199.0870  206.5180 O.3   184  THR184     -0.2208
     42  CG2      162.4600  196.8220  207.2180 C.3   184  THR184      0.0379
     43  N        160.4480  199.2630  204.5450 N.am  185  PRO185     -0.2715
     44  CA       160.2500  199.0550  203.1120 C.3   185  PRO185      0.1536
     45  C        161.4670  198.4060  202.4820 C.2   185  PRO185      0.2599
     46  O        162.5800  198.4650  203.0060 O.2   185  PRO185     -0.2715
     47  CB       160.0330  200.4690  202.5710 C.3   185  PRO185      0.0310
     48  CG       160.7320  201.3320  203.5290 C.3   185  PRO185      0.0237
     49  CD       160.5660  200.6930  204.8720 C.3   185  PRO185      0.0939
     50  N        161.2240  197.7510  201.3520 N.am  186  SER186     -0.1950
     51  CA       162.2890  197.1070  200.5950 C.3   186  SER186      0.1924
     52  C        163.1790  198.1860  200.0030 C.2   186  SER186      0.2314
     53  O        162.7590  198.9190  199.1030 O.2   186  SER186     -0.2863
     54  CB       161.7020  196.2230  199.5040 C.3   186  SER186      0.2116
     55  OG       161.0540  197.0140  198.5290 O.3   186  SER186     -0.2180
     56  N        163.6640  199.3530  195.4760 N.3   189  GLY189     -0.1210
     57  CA       162.7650  198.8340  194.4720 C.3   189  GLY189      0.1956
     58  C        161.5710  198.1450  195.0840 C.2   189  GLY189      0.2612
     59  O        161.3540  198.1600  196.2930 O.2   189  GLY189     -0.2717
     60  N        160.7690  197.5510  194.2080 N.am  190  TYR190     -0.1962
     61  CA       159.6790  196.7010  194.6510 C.3   190  TYR190      0.1771
     62  C        160.2400  195.4510  195.3040 C.2   190  TYR190      0.2620
     63  O        161.2090  194.8630  194.8230 O.2   190  TYR190     -0.2715
     64  CB       158.7890  196.3220  193.4730 C.3   190  TYR190      0.0574
     65  CG       157.6220  195.4410  193.8350 C.ar  190  TYR190     -0.0198
     66  CD1      156.4990  195.9630  194.4540 C.ar  190  TYR190     -0.0009
     67  CD2      157.6410  194.0870  193.5490 C.ar  190  TYR190     -0.0009
     68  CE1      155.4320  195.1580  194.7790 C.ar  190  TYR190      0.0417
     69  CE2      156.5810  193.2740  193.8720 C.ar  190  TYR190      0.0417
     70  CZ       155.4800  193.8150  194.4870 C.ar  190  TYR190      0.1957
     71  OH       154.4200  193.0070  194.8110 O.3   190  TYR190     -0.2866
     72  N        159.6410  195.0570  196.4170 N.am  191  GLY191     -0.1940
     73  CA       160.0560  193.8420  197.0790 C.3   191  GLY191      0.2014
     74  C        159.3200  192.6540  196.5110 C.2   191  GLY191      0.2639
     75  O        158.1670  192.4050  196.8690 O.2   191  GLY191     -0.2714
     76  N        159.9740  191.9100  195.6210 N.am  192  LEU192     -0.1963
     77  CA       159.3650  190.7580  194.9580 C.3   192  LEU192      0.1728
     78  C        159.2600  189.6290  195.9740 C.2   192  LEU192      0.2616
     79  O        160.0800  188.7100  196.0210 O.2   192  LEU192     -0.2715
     80  CB       160.1940  190.3430  193.7550 C.3   192  LEU192      0.0311
     81  CG       160.2280  191.2840  192.5610 C.3   192  LEU192      0.0022
     82  CD1      161.3290  190.8500  191.6420 C.3   192  LEU192      0.0001
     83  CD2      158.9120  191.2190  191.8340 C.3   192  LEU192      0.0001
     84  N        158.2210  189.7020  196.8020 N.am  193  GLY193     -0.1955
     85  CA       158.2010  188.8810  197.9880 C.3   193  GLY193      0.1869
     86  C        159.2930  189.3380  198.9400 C.2   193  GLY193      0.2309
     87  O        159.7540  190.4800  198.9100 O.2   193  GLY193     -0.2863
     88  N        160.7650  184.7830  192.7110 N.3   199  PRO199     -0.2116
     89  CA       160.0430  185.9370  192.1580 C.3   199  PRO199      0.1372
     90  C        160.8890  186.8060  191.2650 C.2   199  PRO199      0.2244
     91  O        160.3540  187.4130  190.3340 O.2   199  PRO199     -0.2868
     92  CB       159.6040  186.7120  193.4020 C.3   199  PRO199      0.0268
     93  CG       159.5320  185.7430  194.4240 C.3   199  PRO199      0.0207
     94  CD       160.6580  184.8180  194.1840 C.3   199  PRO199      0.0892
     95  N        160.6510  185.0200  187.9150 N.3   202  MET202     -0.1230
     96  CA       159.3540  185.1540  187.2510 C.3   202  MET202      0.1702
     97  C        159.0640  186.5990  186.8590 C.2   202  MET202      0.2592
     98  O        158.3750  186.8420  185.8650 O.2   202  MET202     -0.2718
     99  CB       158.2420  184.5960  188.1390 C.3   202  MET202      0.0401
    100  CG       156.8610  184.5040  187.4870 C.3   202  MET202      0.0596
    101  SD       156.7260  183.2760  186.1750 S.3   202  MET202     -0.1393
    102  CE       155.3860  183.9080  185.1850 C.3   202  MET202      0.0692
    103  N        159.6330  187.5640  187.5760 N.am  203  ALA203     -0.1980
    104  CA       159.5760  188.9570  187.1710 C.3   203  ALA203      0.1597
    105  C        160.7180  189.3490  186.2500 C.2   203  ALA203      0.2287
    106  O        160.7520  190.4890  185.7850 O.2   203  ALA203     -0.2864
    107  CB       159.5790  189.8640  188.4010 C.3   203  ALA203      0.0319
    108  N        158.3290  187.7590  182.6670 N.3   206  ILE206     -0.1231
    109  CA       157.1450  188.4120  182.1170 C.3   206  ILE206      0.1692
    110  C        157.2180  189.9320  182.1830 C.2   206  ILE206      0.2591
    111  O        156.4900  190.6030  181.4440 O.2   206  ILE206     -0.2718
    112  CB       155.8540  187.8840  182.7730 C.3   206  ILE206      0.0266
    113  CG1      155.7970  188.1300  184.2810 C.3   206  ILE206      0.0019
    114  CG2      155.6720  186.4140  182.4650 C.3   206  ILE206      0.0020
    115  CD1      154.9410  189.3150  184.6900 C.3   206  ILE206      0.0001
    116  N        158.0660  190.4990  183.0320 N.am  207  ILE207     -0.1980
    117  CA       158.2680  191.9450  183.0800 C.3   207  ILE207      0.1595
    118  C        159.4530  192.3680  182.2300 C.2   207  ILE207      0.2287
    119  O        159.3410  193.2680  181.4000 O.2   207  ILE207     -0.2864
    120  CB       158.4270  192.4280  184.5400 C.3   207  ILE207      0.0276
    121  CG1      157.1190  192.2720  185.3070 C.3   207  ILE207      0.0022
    122  CG2      158.8740  193.8660  184.5940 C.3   207  ILE207      0.0022
    123  CD1      157.2680  192.4850  186.7880 C.3   207  ILE207      0.0001
@<TRIPOS>BOND
     1   119   118    2
     2   111   110    2
     3   109   110    1
     4   109   108    1
     5   109   112    1
     6   110   116   am
     7   118   117    1
     8   114   112    1
     9   112   113    1
    10   116   117    1
    11   117   120    1
    12   113   115    1
    13   120   122    1
    14   120   121    1
    15   102   101    1
    16   121   123    1
    17   106   105    2
    18    98    97    2
    19   101   100    1
    20   105   104    1
    21    97    96    1
    22    97   103   am
    23   104   103    1
    24   104   107    1
    25    96    95    1
    26    96    99    1
    27   100    99    1
    28    91    90    2
    29    90    89    1
    30    82    81    1
    31    83    81    1
    32    89    88    1
    33    89    92    1
    34    81    80    1
    35    88    94    1
    36    92    93    1
    37    64    65    1
    38    64    61    1
    39    67    65   ar
    40    67    69   ar
    41    80    77    1
    42    65    66   ar
    43    69    70   ar
    44    94    93    1
    45    60    61    1
    46    60    58   am
    47    66    68   ar
    48    57    58    1
    49    57    56    1
    50    70    68   ar
    51    70    71    1
    52    61    62    1
    53    63    62    2
    54    77    76    1
    55    77    78    1
    56    58    59    2
    57    62    72   am
    58    76    74   am
    59    78    79    2
    60    78    84   am
    61    72    73    1
    62    74    75    2
    63    74    73    1
    64    84    85    1
    65    85    86    1
    66    55    54    1
    67    87    86    2
    68    53    52    2
    69    54    51    1
    70    52    51    1
    71    51    50    1
    72    50    45   am
    73    45    46    2
    74    45    44    1
    75    47    44    1
    76    47    48    1
    77     8     9    1
    78     8     7    1
    79     6     7    1
    80     6     5    1
    81    44    43    1
    82     5     2    1
    83    48    49    1
    84    43    49    1
    85    43    38   am
    86    17    15   ar
    87    39    38    2
    88     2     3    1
    89     2     1    1
    90     3     4    2
    91    38    37    1
    92    15    14    1
    93    15    16   ar
    94    14    11    1
    95    41    40    1
    96    37    40    1
    97    37    36    1
    98    11    10    1
    99    11    12    1
   100    30    29    2
   101    42    40    1
   102    25    24    2
   103    29    36   am
   104    29    28    1
   105    24    23    1
   106    24    27   am
   107    23    26    1
   108    23    22    1
   109    12    13    2
   110    19    18    1
   111    19    20    1
   112    28    27    1
   113    28    31    1
   114    35    33   ar
   115    20    21    2
   116    33    34   ar
   117    33    32    1
   118    31    32    1
