@<TRIPOS>MOLECULE
tmp/6adqK00.pdb
 88 85 0 0 0
SMALL
GASTEIGER

@<TRIPOS>ATOM
      1  N        160.7690  197.5510  194.2080 N.3   190  TYR190     -0.1241
      2  CA       159.6790  196.7010  194.6510 C.3   190  TYR190      0.1605
      3  C        160.2400  195.4510  195.3040 C.2   190  TYR190      0.2264
      4  O        161.2090  194.8630  194.8230 O.2   190  TYR190     -0.2867
      5  CB       158.7890  196.3220  193.4730 C.3   190  TYR190      0.0534
      6  CG       157.6220  195.4410  193.8350 C.ar  190  TYR190     -0.0201
      7  CD1      156.4990  195.9630  194.4540 C.ar  190  TYR190     -0.0009
      8  CD2      157.6410  194.0870  193.5490 C.ar  190  TYR190     -0.0009
      9  CE1      155.4320  195.1580  194.7790 C.ar  190  TYR190      0.0417
     10  CE2      156.5810  193.2740  193.8720 C.ar  190  TYR190      0.0417
     11  CZ       155.4800  193.8150  194.4870 C.ar  190  TYR190      0.1957
     12  OH       154.4200  193.0070  194.8110 O.3   190  TYR190     -0.2866
     13  N        158.0660  190.4990  183.0320 N.3   207  ILE207     -0.1231
     14  CA       158.2680  191.9450  183.0800 C.3   207  ILE207      0.1692
     15  C        159.4530  192.3680  182.2300 C.2   207  ILE207      0.2592
     16  O        159.3410  193.2680  181.4000 O.2   207  ILE207     -0.2718
     17  CB       158.4270  192.4280  184.5400 C.3   207  ILE207      0.0266
     18  CG1      157.1190  192.2720  185.3070 C.3   207  ILE207      0.0019
     19  CG2      158.8740  193.8660  184.5940 C.3   207  ILE207      0.0020
     20  CD1      157.2680  192.4850  186.7880 C.3   207  ILE207      0.0001
     21  N        160.5960  191.7250  182.4100 N.am  208  GLY208     -0.1957
     22  CA       161.7870  192.1370  181.7020 C.3   208  GLY208      0.1869
     23  C        161.9690  191.4640  180.3620 C.2   208  GLY208      0.2309
     24  O        162.1800  192.1370  179.3530 O.2   208  GLY208     -0.2863
     25  N        159.7750  189.5200  178.5820 N.3   210  VAL210     -0.1231
     26  CA       158.6530  189.7350  177.6720 C.3   210  VAL210      0.1692
     27  C        158.7180  191.1280  177.0580 C.2   210  VAL210      0.2591
     28  O        158.4710  191.2970  175.8590 O.2   210  VAL210     -0.2718
     29  CB       157.3200  189.4640  178.3970 C.3   210  VAL210      0.0266
     30  CG1      156.1460  190.0930  177.6830 C.3   210  VAL210      0.0020
     31  CG2      157.0810  187.9750  178.4400 C.3   210  VAL210      0.0020
     32  N        159.1380  192.1270  177.8360 N.am  211  ALA211     -0.1980
     33  CA       159.3390  193.4580  177.2700 C.3   211  ALA211      0.1597
     34  C        160.5130  193.4790  176.3030 C.2   211  ALA211      0.2287
     35  O        160.4650  194.1750  175.2860 O.2   211  ALA211     -0.2864
     36  CB       159.5560  194.4860  178.3750 C.3   211  ALA211      0.0319
     37  N        161.5940  190.8910  174.3940 N.3   213  ILE213     -0.1231
     38  CA       161.1570  190.2390  173.1640 C.3   213  ILE213      0.1692
     39  C        160.0980  191.0790  172.4510 C.2   213  ILE213      0.2593
     40  O        160.0230  191.0780  171.2180 O.2   213  ILE213     -0.2718
     41  CB       160.6800  188.8100  173.4900 C.3   213  ILE213      0.0266
     42  CG1      161.8390  188.0110  174.0750 C.3   213  ILE213      0.0019
     43  CG2      160.2160  188.0680  172.2630 C.3   213  ILE213      0.0020
     44  CD1      161.4370  186.6940  174.6610 C.3   213  ILE213      0.0001
     45  N        159.3130  191.8640  173.1920 N.am  214  GLY214     -0.1942
     46  CA       158.3700  192.7620  172.5480 C.3   214  GLY214      0.2014
     47  C        159.0570  193.9050  171.8260 C.2   214  GLY214      0.2638
     48  O        158.6470  194.2930  170.7280 O.2   214  GLY214     -0.2714
     49  N        160.1210  194.4430  172.4230 N.am  215  VAL215     -0.1977
     50  CA       160.9490  195.4300  171.7380 C.3   215  VAL215      0.1596
     51  C        161.6240  194.8010  170.5280 C.2   215  VAL215      0.2287
     52  O        161.6520  195.3890  169.4410 O.2   215  VAL215     -0.2864
     53  CB       161.9680  196.0360  172.7190 C.3   215  VAL215      0.0276
     54  CG1      162.9950  196.8570  171.9940 C.3   215  VAL215      0.0022
     55  CG2      161.2620  196.9210  173.7090 C.3   215  VAL215      0.0022
     56  N        160.5380  192.3920  168.7170 N.3   217  MET217     -0.1230
     57  CA       159.6060  192.1700  167.6240 C.3   217  MET217      0.1702
     58  C        158.9840  193.4510  167.1070 C.2   217  MET217      0.2592
     59  O        158.4060  193.4430  166.0160 O.2   217  MET217     -0.2718
     60  CB       158.5020  191.1880  168.0150 C.3   217  MET217      0.0401
     61  CG       157.5160  191.6870  169.0200 C.3   217  MET217      0.0596
     62  SD       156.3060  190.3980  169.3120 S.3   217  MET217     -0.1393
     63  CE       157.3390  189.2380  170.1790 C.3   217  MET217      0.0692
     64  N        159.0840  194.5460  167.8500 N.am  218  TRP218     -0.1976
     65  CA       158.7330  195.8210  167.2510 C.3   218  TRP218      0.1640
     66  C        159.8330  196.3340  166.3360 C.2   218  TRP218      0.2290
     67  O        159.5400  196.9490  165.3070 O.2   218  TRP218     -0.2864
     68  CB       158.4190  196.8480  168.3300 C.3   218  TRP218      0.0576
     69  CG       158.0850  198.1660  167.7610 C.ar  218  TRP218      0.0006
     70  CD1      157.1180  198.4370  166.8450 C.ar  218  TRP218      0.0946
     71  CD2      158.6890  199.4100  168.0890 C.ar  218  TRP218      0.0152
     72  NE1      157.0970  199.7770  166.5620 N.ar  218  TRP218     -0.2442
     73  CE2      158.0520  200.3970  167.3200 C.ar  218  TRP218      0.0810
     74  CE3      159.7110  199.7870  168.9560 C.ar  218  TRP218      0.0012
     75  CZ2      158.4040  201.7320  167.3910 C.ar  218  TRP218      0.0191
     76  CZ3      160.0560  201.1010  169.0240 C.ar  218  TRP218      0.0001
     77  CH2      159.4090  202.0650  168.2500 C.ar  218  TRP218      0.0015
     78  N        158.9220  190.4270  160.6530 N.3   222  ARG222     -0.1245
     79  CA       158.7550  188.9840  160.6420 C.3   222  ARG222      0.1563
     80  C        158.5260  188.5130  159.2150 C.2   222  ARG222      0.2260
     81  O        157.8130  189.1560  158.4370 O.2   222  ARG222     -0.2867
     82  CB       157.6200  188.5350  161.5800 C.3   222  ARG222      0.0307
     83  CG       156.2180  188.9500  161.1970 C.3   222  ARG222      0.0489
     84  CD       155.2400  188.6040  162.2970 C.3   222  ARG222      0.2205
     85  NE       155.4610  189.4300  163.4760 N.pl3 222  ARG222     -0.0865
     86  CZ       154.8770  189.2240  164.6490 C.cat 222  ARG222      0.5346
     87  NH1      154.0360  188.2120  164.8040 N.pl3 222  ARG222      0.1354
     88  NH2      155.1370  190.0280  165.6660 N.pl3 222  ARG222      0.1354
@<TRIPOS>BOND
     1    81    80    2
     2    80    79    1
     3    79    78    1
     4    79    82    1
     5    83    82    1
     6    83    84    1
     7    84    85    1
     8    85    86    2
     9    86    87    1
    10    86    88    1
    11    67    66    2
    12    59    58    2
    13    66    65    1
    14    72    70   ar
    15    72    73   ar
    16    70    69   ar
    17    58    57    1
    18    58    64   am
    19    65    64    1
    20    65    68    1
    21    73    75   ar
    22    73    71   ar
    23    75    77   ar
    24    57    60    1
    25    57    56    1
    26    69    71   ar
    27    69    68    1
    28    60    61    1
    29    71    74   ar
    30    77    76   ar
    31    74    76   ar
    32    61    62    1
    33    62    63    1
    34    52    51    2
    35    51    50    1
    36    48    47    2
    37    40    39    2
    38    50    49    1
    39    50    53    1
    40    47    49   am
    41    47    46    1
    42    54    53    1
    43    43    41    1
    44    39    38    1
    45    39    45   am
    46    46    45    1
    47    53    55    1
    48    38    41    1
    49    38    37    1
    50    41    42    1
    51    42    44    1
    52    35    34    2
    53    28    27    2
    54    34    33    1
    55    27    26    1
    56    27    32   am
    57    33    32    1
    58    33    36    1
    59    26    29    1
    60    26    25    1
    61    30    29    1
    62    29    31    1
    63    24    23    2
    64    23    22    1
    65    16    15    2
    66    22    21    1
    67    15    21   am
    68    15    14    1
    69    13    14    1
    70    14    17    1
    71    17    19    1
    72    17    18    1
    73    18    20    1
    74     5     6    1
    75     5     2    1
    76     8     6   ar
    77     8    10   ar
    78     6     7   ar
    79    10    11   ar
    80     1     2    1
    81     7     9   ar
    82    11     9   ar
    83    11    12    1
    84     2     3    1
    85     4     3    2
