@<TRIPOS>MOLECULE
tmp/6adqV05.pdb
 166 159 0 0 0
SMALL
GASTEIGER

@<TRIPOS>ATOM
      1  N        186.1930  171.3630  157.5260 N.3    13  ILE13      -0.1245
      2  CA       186.4160  172.7690  157.8600 C.3    13  ILE13       0.1561
      3  C        186.1680  173.6550  156.6450 C.2    13  ILE13       0.2260
      4  O        185.5350  174.7120  156.7490 O.2    13  ILE13      -0.2867
      5  CB       187.8290  172.9630  158.4410 C.3    13  ILE13       0.0252
      6  CG1      187.9440  172.2750  159.7970 C.3    13  ILE13       0.0019
      7  CG2      188.1680  174.4270  158.5990 C.3    13  ILE13       0.0019
      8  CD1      189.3500  172.2570  160.3440 C.3    13  ILE13       0.0001
      9  N        182.9060  176.3660  156.9490 N.3    17  TYR17      -0.1241
     10  CA       183.3780  177.7220  156.7630 C.3    17  TYR17       0.1605
     11  C        183.9320  177.7900  155.3570 C.2    17  TYR17       0.2264
     12  O        183.9240  176.8000  154.6290 O.2    17  TYR17      -0.2867
     13  CB       184.4440  178.0270  157.8080 C.3    17  TYR17       0.0534
     14  CG       183.9520  177.7490  159.1930 C.ar   17  TYR17      -0.0201
     15  CD1      182.6500  178.0480  159.5660 C.ar   17  TYR17      -0.0009
     16  CD2      184.7340  177.0410  160.0820 C.ar   17  TYR17      -0.0009
     17  CE1      182.1890  177.7390  160.8020 C.ar   17  TYR17       0.0417
     18  CE2      184.2710  176.7230  161.3270 C.ar   17  TYR17       0.0417
     19  CZ       182.9960  177.0810  161.6760 C.ar   17  TYR17       0.1957
     20  OH       182.4950  176.7880  162.9120 O.3    17  TYR17      -0.2866
     21  N        187.4120  179.0970  154.8670 N.3    19  PRO19      -0.2116
     22  CA       188.5240  179.8620  155.4430 C.3    19  PRO19       0.1372
     23  C        189.7340  179.9920  154.5490 C.2    19  PRO19       0.2244
     24  O        190.5160  180.9270  154.7630 O.2    19  PRO19      -0.2868
     25  CB       188.8820  179.0600  156.6940 C.3    19  PRO19       0.0268
     26  CG       188.6030  177.6780  156.2990 C.3    19  PRO19       0.0207
     27  CD       187.4180  177.7100  155.3700 C.3    19  PRO19       0.0892
     28  N        191.2900  183.4080  153.3450 N.3    22  ALA22      -0.1231
     29  CA       191.8150  184.1630  154.4720 C.3    22  ALA22       0.1694
     30  C        192.6440  183.3240  155.4340 C.2    22  ALA22       0.2591
     31  O        192.8590  183.7580  156.5630 O.2    22  ALA22      -0.2718
     32  CB       190.6710  184.8290  155.2350 C.3    22  ALA22       0.0304
     33  N        193.0510  182.1200  155.0490 N.am   23  VAL23      -0.1980
     34  CA       194.1470  181.4220  155.6970 C.3    23  VAL23       0.1595
     35  C        195.4040  181.4730  154.8410 C.2    23  VAL23       0.2287
     36  O        196.5050  181.6650  155.3590 O.2    23  VAL23      -0.2864
     37  CB       193.7310  179.9690  156.0170 C.3    23  VAL23       0.0276
     38  CG1      194.8790  179.1700  156.5560 C.3    23  VAL23       0.0022
     39  CG2      192.6320  179.9680  157.0420 C.3    23  VAL23       0.0022
     40  N        196.0620  183.9280  152.8260 N.3    25  ARG25      -0.1231
     41  CA       196.5440  185.2990  153.0030 C.3    25  ARG25       0.1694
     42  C        197.3930  185.4400  154.2590 C.2    25  ARG25       0.2592
     43  O        198.2730  186.3040  154.3190 O.2    25  ARG25      -0.2718
     44  CB       195.3760  186.2850  153.0730 C.3    25  ARG25       0.0321
     45  CG       194.8970  186.9110  151.7660 C.3    25  ARG25       0.0489
     46  CD       194.1760  185.9280  150.8820 C.3    25  ARG25       0.2205
     47  NE       193.4010  186.5890  149.8470 N.pl3  25  ARG25      -0.0865
     48  CZ       192.1340  186.9510  150.0070 C.cat  25  ARG25       0.5346
     49  NH1      191.5200  186.7180  151.1630 N.pl3  25  ARG25       0.1354
     50  NH2      191.4790  187.5450  149.0190 N.pl3  25  ARG25       0.1354
     51  N        197.1490  184.5970  155.2620 N.am   26  GLN26      -0.1966
     52  CA       197.8450  184.6810  156.5370 C.3    26  GLN26       0.1733
     53  C        199.1660  183.9340  156.5000 C.2    26  GLN26       0.2616
     54  O        200.2020  184.4750  156.8900 O.2    26  GLN26      -0.2715
     55  CB       196.9570  184.1100  157.6300 C.3    26  GLN26       0.0408
     56  CG       195.6610  184.8240  157.7090 C.3    26  GLN26       0.0908
     57  CD       195.7890  186.2090  158.2640 C.2    26  GLN26       0.2608
     58  OE1      195.7950  187.1920  157.5290 O.2    26  GLN26      -0.2717
     59  NE2      195.8180  186.2970  159.5810 N.am   26  GLN26      -0.0878
     60  N        199.1520  182.6870  156.0410 N.am   27  LEU27      -0.1977
     61  CA       200.3570  181.8760  156.0550 C.3    27  LEU27       0.1596
     62  C        201.1660  181.9860  154.7690 C.2    27  LEU27       0.2287
     63  O        202.0280  181.1400  154.5160 O.2    27  LEU27      -0.2864
     64  CB       200.0160  180.4220  156.3830 C.3    27  LEU27       0.0297
     65  CG       199.0130  179.5360  155.6520 C.3    27  LEU27       0.0022
     66  CD1      199.6020  178.8480  154.4590 C.3    27  LEU27       0.0001
     67  CD2      198.5120  178.5020  156.6400 C.3    27  LEU27       0.0001
     68  N        202.0060  185.4260  154.5290 N.3    29  LYS29      -0.1245
     69  CA       202.5050  186.7300  154.9380 C.3    29  LYS29       0.1561
     70  C        203.9730  186.6270  155.3120 C.2    29  LYS29       0.2260
     71  O        204.4030  185.6690  155.9550 O.2    29  LYS29      -0.2867
     72  CB       201.6950  187.2800  156.1070 C.3    29  LYS29       0.0271
     73  CG       202.0420  188.7020  156.4780 C.3    29  LYS29       0.0035
     74  CD       201.1040  189.2190  157.5310 C.3    29  LYS29       0.0206
     75  CE       199.7180  189.4000  156.9450 C.3    29  LYS29       0.1093
     76  NZ       199.6470  190.4700  155.9200 N.3    29  LYS29      -0.1314
     77  N        193.6130  194.2230  175.1070 N.3   218  ALA218     -0.1245
     78  CA       192.9470  194.8620  173.9770 C.3   218  ALA218      0.1562
     79  C        193.9290  195.6640  173.1340 C.2   218  ALA218      0.2260
     80  O        193.8790  195.6140  171.8990 O.2   218  ALA218     -0.2867
     81  CB       191.8140  195.7540  174.4760 C.3   218  ALA218      0.0290
     82  N        196.1210  193.2160  171.2750 N.3   221  GLY221     -0.1210
     83  CA       195.3930  192.6500  170.1510 C.3   221  GLY221      0.1956
     84  C        195.2990  193.6080  168.9780 C.2   221  GLY221      0.2611
     85  O        195.6430  193.2540  167.8460 O.2   221  GLY221     -0.2717
     86  N        194.8850  194.8510  169.2470 N.am  222  ALA222     -0.1979
     87  CA       194.8580  195.8760  168.2090 C.3   222  ALA222      0.1597
     88  C        196.2560  196.2160  167.7250 C.2   222  ALA222      0.2287
     89  O        196.4470  196.5450  166.5560 O.2   222  ALA222     -0.2864
     90  CB       194.1670  197.1310  168.7270 C.3   222  ALA222      0.0319
     91  N        197.4220  193.5380  165.5120 N.3   225  ALA225     -0.1231
     92  CA       196.6470  193.6660  164.2820 C.3   225  ALA225      0.1694
     93  C        197.1970  194.7730  163.3920 C.2   225  ALA225      0.2591
     94  O        197.2110  194.6400  162.1640 O.2   225  ALA225     -0.2718
     95  CB       195.1800  193.9260  164.6060 C.3   225  ALA225      0.0304
     96  N        197.6270  195.8830  163.9910 N.am  226  LEU226     -0.1980
     97  CA       198.2980  196.9290  163.2280 C.3   226  LEU226      0.1596
     98  C        199.6400  196.4670  162.6790 C.2   226  LEU226      0.2287
     99  O        200.0460  196.9020  161.6020 O.2   226  LEU226     -0.2864
    100  CB       198.4830  198.1660  164.0960 C.3   226  LEU226      0.0297
    101  CG       197.4750  199.3090  164.0360 C.3   226  LEU226      0.0022
    102  CD1      196.0890  198.9210  164.4330 C.3   226  LEU226      0.0001
    103  CD2      197.9690  200.3720  164.9950 C.3   226  LEU226      0.0001
    104  N        200.1500  193.3180  161.9210 N.3   228  TRP228     -0.1227
    105  CA       199.8620  192.2020  161.0340 C.3   228  TRP228      0.1737
    106  C        199.3780  192.6760  159.6710 C.2   228  TRP228      0.2595
    107  O        200.0190  192.4130  158.6500 O.2   228  TRP228     -0.2718
    108  CB       198.8210  191.2980  161.6810 C.3   228  TRP228      0.0564
    109  CG       198.5540  190.1000  160.8960 C.ar  228  TRP228      0.0003
    110  CD1      197.5550  189.9280  159.9960 C.ar  228  TRP228      0.0946
    111  CD2      199.2660  188.8660  160.9500 C.ar  228  TRP228      0.0152
    112  NE1      197.6160  188.6720  159.4570 N.ar  228  TRP228     -0.2442
    113  CE2      198.6560  187.9950  160.0350 C.ar  228  TRP228      0.0810
    114  CE3      200.3670  188.4130  161.6780 C.ar  228  TRP228      0.0012
    115  CZ2      199.1090  186.7020  159.8300 C.ar  228  TRP228      0.0191
    116  CZ3      200.8130  187.1300  161.4720 C.ar  228  TRP228      0.0001
    117  CH2      200.1860  186.2900  160.5600 C.ar  228  TRP228      0.0015
    118  N        198.2380  193.3710  159.6390 N.am  229  PHE229     -0.1962
    119  CA       197.5790  193.6810  158.3730 C.3   229  PHE229      0.1771
    120  C        198.3220  194.7640  157.6150 C.2   229  PHE229      0.2619
    121  O        198.7300  194.5680  156.4650 O.2   229  PHE229     -0.2715
    122  CB       196.1420  194.1070  158.6280 C.3   229  PHE229      0.0574
    123  CG       195.2990  193.0200  159.1680 C.ar  229  PHE229     -0.0200
    124  CD1      194.7780  192.0560  158.3310 C.ar  229  PHE229     -0.0042
    125  CD2      195.0400  192.9470  160.5170 C.ar  229  PHE229     -0.0042
    126  CE1      194.0030  191.0460  158.8300 C.ar  229  PHE229     -0.0003
    127  CE2      194.2650  191.9380  161.0240 C.ar  229  PHE229     -0.0003
    128  CZ       193.7450  190.9880  160.1790 C.ar  229  PHE229     -0.0000
    129  N        198.4530  195.9310  158.2250 N.am  230  GLN230     -0.1963
    130  CA       199.4550  196.8980  157.8200 C.3   230  GLN230      0.1733
    131  C        200.8080  196.2300  157.9690 C.2   230  GLN230      0.2616
    132  O        201.1910  195.9010  159.0910 O.2   230  GLN230     -0.2715
    133  CB       199.3680  198.1190  158.7080 C.3   230  GLN230      0.0408
    134  CG       200.2280  199.2580  158.3320 C.3   230  GLN230      0.0908
    135  CD       200.2120  200.2640  159.4240 C.2   230  GLN230      0.2608
    136  OE1      199.8040  199.9570  160.5350 O.2   230  GLN230     -0.2717
    137  NE2      200.5620  201.4850  159.1050 N.am  230  GLN230     -0.0878
    138  N        201.5140  196.0140  156.8600 N.am  231  LYS231     -0.1977
    139  CA       202.6440  195.0980  156.8120 C.3   231  LYS231      0.1596
    140  C        203.7930  195.5780  157.6940 C.2   231  LYS231      0.2287
    141  O        203.8920  196.7540  158.0510 O.2   231  LYS231     -0.2864
    142  CB       203.1420  194.9430  155.3790 C.3   231  LYS231      0.0298
    143  CG       202.1090  194.4700  154.3800 C.3   231  LYS231      0.0038
    144  CD       201.7240  193.0400  154.6170 C.3   231  LYS231      0.0206
    145  CE       200.8490  192.5510  153.4860 C.3   231  LYS231      0.1093
    146  NZ       199.5340  193.2390  153.4890 N.3   231  LYS231     -0.1314
    147  N        205.1590  182.8200  156.9390 N.3   250  VAL250     -0.1231
    148  CA       204.7280  182.4420  158.2810 C.3   250  VAL250      0.1692
    149  C        204.7940  180.9340  158.4670 C.2   250  VAL250      0.2591
    150  O        205.3700  180.4460  159.4440 O.2   250  VAL250     -0.2718
    151  CB       203.3190  182.9850  158.5700 C.3   250  VAL250      0.0266
    152  CG1      202.7380  182.3410  159.8080 C.3   250  VAL250      0.0020
    153  CG2      203.3810  184.4660  158.7940 C.3   250  VAL250      0.0020
    154  N        204.2530  180.1730  157.5110 N.am  251  MET251     -0.1979
    155  CA       203.9240  178.7770  157.8010 C.3   251  MET251      0.1605
    156  C        205.1310  177.8480  157.9240 C.2   251  MET251      0.2287
    157  O        205.2010  177.1180  158.9270 O.2   251  MET251     -0.2864
    158  CB       202.9020  178.2540  156.7890 C.3   251  MET251      0.0413
    159  CG       202.4030  176.8810  157.1400 C.3   251  MET251      0.0598
    160  SD       201.5980  176.8430  158.7460 S.3   251  MET251     -0.1393
    161  CE       201.8790  175.1370  159.2040 C.3   251  MET251      0.0692
    162  N        206.5860  180.6130  161.8680 N.3   255  ALA255     -0.1245
    163  CA       205.8160  180.0230  162.9570 C.3   255  ALA255      0.1562
    164  C        206.6950  179.1470  163.8320 C.2   255  ALA255      0.2260
    165  O        206.5670  179.1670  165.0610 O.2   255  ALA255     -0.2867
    166  CB       204.6450  179.2150  162.4070 C.3   255  ALA255      0.0290
@<TRIPOS>BOND
     1    50    48    1
     2    47    48    2
     3    47    46    1
     4    48    49    1
     5    46    45    1
     6    45    44    1
     7    40    41    1
     8    41    44    1
     9    41    42    1
    10    28    29    1
    11   145   146    1
    12   145   144    1
    13    42    43    2
    14    42    51   am
    15   143   144    1
    16   143   142    1
    17    66    65    1
    18    29    32    1
    19    29    30    1
    20    63    62    2
    21    68    69    1
    22    23    24    2
    23    23    22    1
    24    12    11    2
    25    62    61    1
    26    35    36    2
    27    35    34    1
    28    21    27    1
    29    21    22    1
    30    69    70    1
    31    69    72    1
    32    33    30   am
    33    33    34    1
    34    51    52    1
    35    70    71    2
    36    11    10    1
    37    27    26    1
    38   142   139    1
    39    30    31    2
    40    22    25    1
    41    65    64    1
    42    65    67    1
    43    34    37    1
    44    76    75    1
    45    37    38    1
    46    37    39    1
    47    60    61    1
    48    60    53   am
    49    61    64    1
    50    72    73    1
    51    26    25    1
    52   121   120    2
    53    73    74    1
    54    53    52    1
    55    53    54    2
    56    52    55    1
    57     3     4    2
    58     3     2    1
    59    10     9    1
    60    10    13    1
    61   158   159    1
    62   158   155    1
    63   139   138    1
    64   139   140    1
    65   138   131   am
    66   147   148    1
    67    75    74    1
    68   159   160    1
    69   154   155    1
    70   154   149   am
    71     1     2    1
    72    58    57    2
    73   120   129   am
    74   120   119    1
    75    55    56    1
    76   140   141    2
    77    56    57    1
    78   155   156    1
    79    13    14    1
    80   130   131    1
    81   130   129    1
    82   130   133    1
    83     2     5    1
    84   156   157    2
    85   131   132    2
    86    57    59   am
    87   148   149    1
    88   148   151    1
    89   124   126   ar
    90   124   123   ar
    91   134   133    1
    92   134   135    1
    93   119   122    1
    94   119   118    1
    95     5     7    1
    96     5     6    1
    97   149   150    2
    98   151   153    1
    99   151   152    1
   100   122   123    1
   101   107   106    2
   102   160   161    1
   103   126   128   ar
   104   137   135   am
   105   123   125   ar
   106    14    15   ar
   107    14    16   ar
   108   135   136    2
   109   112   110   ar
   110   112   113   ar
   111    15    17   ar
   112   118   106   am
   113   106   105    1
   114     6     8    1
   115   115   113   ar
   116   115   117   ar
   117   110   109   ar
   118   113   111   ar
   119    16    18   ar
   120   128   127   ar
   121   125   127   ar
   122   117   116   ar
   123    17    19   ar
   124   109   111   ar
   125   109   108    1
   126   111   114   ar
   127   105   108    1
   128   105   104    1
   129    18    19   ar
   130   116   114   ar
   131    99    98    2
   132    19    20    1
   133   162   163    1
   134    94    93    2
   135   166   163    1
   136    98    97    1
   137   163   164    1
   138    97    96    1
   139    97   100    1
   140    93    96   am
   141    93    92    1
   142   164   165    2
   143   101   100    1
   144   101   102    1
   145   101   103    1
   146    92    95    1
   147    92    91    1
   148    89    88    2
   149    88    87    1
   150    85    84    2
   151    87    90    1
   152    87    86    1
   153    84    86   am
   154    84    83    1
   155    83    82    1
   156    80    79    2
   157    79    78    1
   158    78    81    1
   159    78    77    1
