@<TRIPOS>MOLECULE
tmp/6adqB11.pdb
 93 87 0 0 0
SMALL
GASTEIGER

@<TRIPOS>ATOM
      1  N        134.1350  167.5310  177.3340 N.3    38  VAL38      -0.1245
      2  CA       134.7510  167.8370  178.6140 C.3    38  VAL38       0.1561
      3  C        133.7060  167.8850  179.7190 C.2    38  VAL38       0.2260
      4  O        134.0300  167.6290  180.8800 O.2    38  VAL38      -0.2867
      5  CB       135.5760  169.1380  178.5610 C.3    38  VAL38       0.0252
      6  CG1      134.7030  170.3540  178.6610 C.3    38  VAL38       0.0019
      7  CG2      136.6390  169.1370  179.6360 C.3    38  VAL38       0.0019
      8  N        133.6180  165.8780  183.1850 N.3    42  PHE42      -0.1241
      9  CA       133.2780  166.3410  184.5290 C.3    42  PHE42       0.1605
     10  C        132.1170  165.5550  185.1220 C.2    42  PHE42       0.2264
     11  O        132.0290  165.4220  186.3440 O.2    42  PHE42      -0.2867
     12  CB       132.9670  167.8320  184.5560 C.3    42  PHE42       0.0534
     13  CG       134.1640  168.6910  184.3470 C.ar   42  PHE42      -0.0203
     14  CD1      135.1990  168.6670  185.2590 C.ar   42  PHE42      -0.0042
     15  CD2      134.2290  169.5760  183.2930 C.ar   42  PHE42      -0.0042
     16  CE1      136.3100  169.4560  185.0820 C.ar   42  PHE42      -0.0003
     17  CE2      135.3370  170.3720  183.1120 C.ar   42  PHE42      -0.0003
     18  CZ       136.3790  170.3060  184.0060 C.ar   42  PHE42      -0.0000
     19  N        133.8600  162.6640  186.6300 N.3    45  VAL45      -0.1245
     20  CA       134.4990  163.0830  187.8810 C.3    45  VAL45       0.1561
     21  C        133.4730  163.1710  189.0020 C.2    45  VAL45       0.2260
     22  O        133.6730  162.6360  190.1040 O.2    45  VAL45      -0.2867
     23  CB       135.2240  164.4250  187.6870 C.3    45  VAL45       0.0252
     24  CG1      135.6730  164.9850  189.0150 C.3    45  VAL45       0.0019
     25  CG2      136.4140  164.2420  186.7820 C.3    45  VAL45       0.0019
     26  N        132.0550  157.6880  195.7720 N.3    52  PHE52      -0.1241
     27  CA       132.7950  157.7560  197.0280 C.3    52  PHE52       0.1605
     28  C        131.8680  158.0840  198.1930 C.2    52  PHE52       0.2264
     29  O        131.9350  157.4370  199.2510 O.2    52  PHE52      -0.2867
     30  CB       133.9160  158.7830  196.9260 C.3    52  PHE52       0.0534
     31  CG       135.0770  158.3400  196.1020 C.ar   52  PHE52      -0.0203
     32  CD1      135.2490  157.0080  195.7710 C.ar   52  PHE52      -0.0042
     33  CD2      136.0050  159.2600  195.6650 C.ar   52  PHE52      -0.0042
     34  CE1      136.3220  156.6070  195.0120 C.ar   52  PHE52      -0.0003
     35  CE2      137.0810  158.8670  194.9080 C.ar   52  PHE52      -0.0003
     36  CZ       137.2400  157.5420  194.5800 C.ar   52  PHE52      -0.0000
     37  N        136.4830  165.1830  204.2820 N.3    69  GLN69      -0.1245
     38  CA       136.5510  164.8040  202.8810 C.3    69  GLN69       0.1566
     39  C        135.1660  164.5550  202.3080 C.2    69  GLN69       0.2260
     40  O        134.9130  164.9000  201.1520 O.2    69  GLN69      -0.2867
     41  CB       137.4360  163.5760  202.7170 C.3    69  GLN69       0.0367
     42  CG       138.8860  163.8280  203.0450 C.3    69  GLN69       0.0905
     43  CD       139.7230  162.5860  202.9020 C.2    69  GLN69       0.2608
     44  OE1      139.2070  161.5120  202.6090 O.2    69  GLN69      -0.2717
     45  NE2      141.0250  162.7220  203.1110 N.am   69  GLN69      -0.0878
     46  N        135.9770  176.0480  181.0290 N.3   121  LEU121     -0.1245
     47  CA       136.9340  175.0040  181.3810 C.3   121  LEU121      0.1561
     48  C        137.9680  175.4960  182.3830 C.2   121  LEU121      0.2260
     49  O        138.3550  174.7510  183.2920 O.2   121  LEU121     -0.2867
     50  CB       137.6110  174.4740  180.1220 C.3   121  LEU121      0.0270
     51  CG       138.6850  173.4100  180.3000 C.3   121  LEU121      0.0019
     52  CD1      138.1300  172.2290  181.0380 C.3   121  LEU121      0.0001
     53  CD2      139.1810  172.9810  178.9480 C.3   121  LEU121      0.0001
     54  N        138.4560  173.9160  186.1150 N.3   125  LEU125     -0.1245
     55  CA       139.6960  173.3560  186.6390 C.3   125  LEU125      0.1561
     56  C        140.1320  174.0620  187.9130 C.2   125  LEU125      0.2260
     57  O        140.5620  173.4100  188.8690 O.2   125  LEU125     -0.2867
     58  CB       140.8030  173.4190  185.5920 C.3   125  LEU125      0.0270
     59  CG       140.6210  172.4830  184.4030 C.3   125  LEU125      0.0019
     60  CD1      141.7460  172.6510  183.3960 C.3   125  LEU125      0.0001
     61  CD2      140.5360  171.0520  184.8810 C.3   125  LEU125      0.0001
     62  N        137.8160  172.6770  190.6970 N.3   128  ILE128     -0.1231
     63  CA       138.2480  171.3370  191.0940 C.3   128  ILE128      0.1692
     64  C        139.5820  171.3930  191.8280 C.2   128  ILE128      0.2591
     65  O        139.8460  170.5760  192.7220 O.2   128  ILE128     -0.2718
     66  CB       138.2690  170.4300  189.8460 C.3   128  ILE128      0.0266
     67  CG1      136.8460  170.0450  189.4960 C.3   128  ILE128      0.0019
     68  CG2      139.0590  169.1550  190.0250 C.3   128  ILE128      0.0020
     69  CD1      136.2120  169.2290  190.6000 C.3   128  ILE128      0.0001
     70  N        140.3800  172.4310  191.5750 N.am  129  ALA129     -0.1980
     71  CA       141.7090  172.6020  192.1480 C.3   129  ALA129      0.1597
     72  C        141.7330  172.7650  193.6650 C.2   129  ALA129      0.2287
     73  O        142.8220  172.9270  194.2190 O.2   129  ALA129     -0.2864
     74  CB       142.3810  173.8040  191.5020 C.3   129  ALA129      0.0319
     75  N        140.9970  170.2070  195.4380 N.3   131  PHE131     -0.1227
     76  CA       141.4540  168.8960  195.8830 C.3   131  PHE131      0.1736
     77  C        142.9670  168.7850  195.9400 C.2   131  PHE131      0.2595
     78  O        143.4840  167.9420  196.6780 O.2   131  PHE131     -0.2718
     79  CB       140.9050  167.8010  194.9860 C.3   131  PHE131      0.0547
     80  CG       139.4520  167.5760  195.1510 C.ar  131  PHE131     -0.0202
     81  CD1      138.9670  167.0200  196.3150 C.ar  131  PHE131     -0.0042
     82  CD2      138.5760  167.8660  194.1340 C.ar  131  PHE131     -0.0042
     83  CE1      137.6310  166.7960  196.4810 C.ar  131  PHE131     -0.0003
     84  CE2      137.2390  167.6320  194.2910 C.ar  131  PHE131     -0.0003
     85  CZ       136.7660  167.0910  195.4660 C.ar  131  PHE131     -0.0000
     86  N        143.6830  169.6110  195.1820 N.am  132  ILE132     -0.1980
     87  CA       145.1340  169.6440  195.2960 C.3   132  ILE132      0.1595
     88  C        145.5320  170.2850  196.6200 C.2   132  ILE132      0.2287
     89  O        146.5520  169.9160  197.2180 O.2   132  ILE132     -0.2864
     90  CB       145.7370  170.3620  194.0680 C.3   132  ILE132      0.0276
     91  CG1      145.4880  169.5580  192.7990 C.3   132  ILE132      0.0022
     92  CG2      147.2240  170.5290  194.1640 C.3   132  ILE132      0.0022
     93  CD1      144.3560  170.0270  191.9810 C.3   132  ILE132      0.0001
@<TRIPOS>BOND
     1     1     2    1
     2     5     2    1
     3     5     6    1
     4     5     7    1
     5     2     3    1
     6    53    51    1
     7     3     4    2
     8    50    51    1
     9    50    47    1
    10    51    52    1
    11    46    47    1
    12    47    48    1
    13    48    49    2
    14    17    15   ar
    15    17    18   ar
    16     8     9    1
    17    15    13   ar
    18    60    59    1
    19    18    16   ar
    20    13    12    1
    21    13    14   ar
    22    59    61    1
    23    59    58    1
    24     9    12    1
    25     9    10    1
    26    16    14   ar
    27    10    11    2
    28    58    55    1
    29    54    55    1
    30    19    20    1
    31    55    56    1
    32    25    23    1
    33    23    20    1
    34    23    24    1
    35    20    21    1
    36    56    57    2
    37    21    22    2
    38    67    66    1
    39    67    69    1
    40    66    68    1
    41    66    63    1
    42    62    63    1
    43    63    64    1
    44    74    71    1
    45    70    64   am
    46    70    71    1
    47    64    65    2
    48    93    91    1
    49    71    72    1
    50    91    90    1
    51    72    73    2
    52    90    92    1
    53    90    87    1
    54    82    84   ar
    55    82    80   ar
    56    84    85   ar
    57    36    35   ar
    58    36    34   ar
    59    35    33   ar
    60    79    80    1
    61    79    76    1
    62    34    32   ar
    63    80    81   ar
    64    86    87    1
    65    86    77   am
    66    87    88    1
    67    75    76    1
    68    85    83   ar
    69    33    31   ar
    70    32    31   ar
    71    26    27    1
    72    76    77    1
    73    77    78    2
    74    31    30    1
    75    81    83   ar
    76    88    89    2
    77    30    27    1
    78    27    28    1
    79    28    29    2
    80    40    39    2
    81    39    38    1
    82    44    43    2
    83    41    38    1
    84    41    42    1
    85    38    37    1
    86    43    42    1
    87    43    45   am
