@<TRIPOS>MOLECULE
tmp/6adqV18.pdb
 105 98 0 0 0
SMALL
GASTEIGER

@<TRIPOS>ATOM
      1  N        200.9980  203.8630  175.1840 N.3   143  LEU143     -0.1245
      2  CA       199.9680  203.6760  176.2040 C.3   143  LEU143      0.1561
      3  C        200.0450  202.2950  176.8270 C.2   143  LEU143      0.2260
      4  O        199.7770  202.1330  178.0220 O.2   143  LEU143     -0.2867
      5  CB       198.5840  203.8850  175.6050 C.3   143  LEU143      0.0270
      6  CG       198.2610  205.3030  175.1700 C.3   143  LEU143      0.0019
      7  CD1      196.9110  205.3330  174.4990 C.3   143  LEU143      0.0001
      8  CD2      198.2790  206.2120  176.3710 C.3   143  LEU143      0.0001
      9  N        202.6540  202.5100  179.4050 N.3   146  ILE146     -0.1231
     10  CA       202.1560  203.2110  180.5940 C.3   146  ILE146      0.1692
     11  C        201.3330  202.2630  181.4510 C.2   146  ILE146      0.2591
     12  O        201.4850  202.2040  182.6790 O.2   146  ILE146     -0.2718
     13  CB       201.3070  204.4360  180.2090 C.3   146  ILE146      0.0266
     14  CG1      202.0150  205.3490  179.2240 C.3   146  ILE146      0.0019
     15  CG2      200.9170  205.2130  181.4440 C.3   146  ILE146      0.0020
     16  CD1      203.3220  205.7730  179.6420 C.3   146  ILE146      0.0001
     17  N        200.4530  201.5010  180.8020 N.am  147  LEU147     -0.1980
     18  CA       199.6170  200.5490  181.5130 C.3   147  LEU147      0.1596
     19  C        200.4360  199.4030  182.0750 C.2   147  LEU147      0.2287
     20  O        200.1280  198.9160  183.1630 O.2   147  LEU147     -0.2864
     21  CB       198.5250  200.0320  180.5910 C.3   147  LEU147      0.0297
     22  CG       197.5380  201.1270  180.2100 C.3   147  LEU147      0.0022
     23  CD1      196.6410  200.6410  179.1180 C.3   147  LEU147      0.0001
     24  CD2      196.7290  201.5520  181.4130 C.3   147  LEU147      0.0001
     25  N        202.1910  201.0510  185.3260 N.3   150  PHE150     -0.1241
     26  CA       201.2380  201.2420  186.4170 C.3   150  PHE150      0.1605
     27  C        200.6520  199.9250  186.8950 C.2   150  PHE150      0.2264
     28  O        200.3930  199.7580  188.0910 O.2   150  PHE150     -0.2867
     29  CB       200.1120  202.1780  185.9840 C.3   150  PHE150      0.0534
     30  CG       200.5210  203.6150  185.8770 C.ar  150  PHE150     -0.0203
     31  CD1      201.6840  204.0610  186.4740 C.ar  150  PHE150     -0.0042
     32  CD2      199.7400  204.5210  185.1820 C.ar  150  PHE150     -0.0042
     33  CE1      202.0680  205.3750  186.3820 C.ar  150  PHE150     -0.0003
     34  CE2      200.1180  205.8460  185.0850 C.ar  150  PHE150     -0.0003
     35  CZ       201.2870  206.2720  185.6880 C.ar  150  PHE150     -0.0000
     36  N        200.9030  198.1840  190.5220 N.3   154  PHE154     -0.1241
     37  CA       199.7880  197.6070  191.2560 C.3   154  PHE154      0.1605
     38  C        200.0730  196.1580  191.6150 C.2   154  PHE154      0.2264
     39  O        199.5580  195.6580  192.6190 O.2   154  PHE154     -0.2867
     40  CB       198.5100  197.7140  190.4270 C.3   154  PHE154      0.0534
     41  CG       198.0730  199.1290  190.1580 C.ar  154  PHE154     -0.0203
     42  CD1      198.4840  200.1730  190.9710 C.ar  154  PHE154     -0.0042
     43  CD2      197.2810  199.4180  189.0640 C.ar  154  PHE154     -0.0042
     44  CE1      198.0980  201.4640  190.7140 C.ar  154  PHE154     -0.0003
     45  CE2      196.8890  200.7130  188.8030 C.ar  154  PHE154     -0.0003
     46  CZ       197.2990  201.7360  189.6310 C.ar  154  PHE154     -0.0000
     47  N        190.5910  207.3480  195.2770 N.3   190  LEU190     -0.1245
     48  CA       191.3620  206.1480  194.9850 C.3   190  LEU190      0.1561
     49  C        191.4330  205.2020  196.1700 C.2   190  LEU190      0.2260
     50  O        191.4620  203.9810  195.9820 O.2   190  LEU190     -0.2867
     51  CB       192.7710  206.5430  194.5510 C.3   190  LEU190      0.0270
     52  CG       193.7940  205.4670  194.2190 C.3   190  LEU190      0.0019
     53  CD1      193.3040  204.6210  193.0780 C.3   190  LEU190      0.0001
     54  CD2      195.0850  206.1420  193.8560 C.3   190  LEU190      0.0001
     55  N        191.8530  196.1840  189.6240 N.3   207  LEU207     -0.1245
     56  CA       192.5360  196.8140  188.5040 C.3   207  LEU207      0.1561
     57  C        193.6520  195.9510  187.9480 C.2   207  LEU207      0.2260
     58  O        194.0580  196.1460  186.8040 O.2   207  LEU207     -0.2867
     59  CB       193.0960  198.1760  188.9160 C.3   207  LEU207      0.0270
     60  CG       192.2240  199.4200  188.7200 C.3   207  LEU207      0.0019
     61  CD1      191.0130  199.4770  189.6240 C.3   207  LEU207      0.0001
     62  CD2      193.0760  200.6550  188.9250 C.3   207  LEU207      0.0001
     63  N        191.1730  194.7760  185.0670 N.3   211  LEU211     -0.1231
     64  CA       190.7970  196.0740  184.5120 C.3   211  LEU211      0.1693
     65  C        191.9460  196.7490  183.7690 C.2   211  LEU211      0.2591
     66  O        191.7330  197.3090  182.6920 O.2   211  LEU211     -0.2718
     67  CB       190.2390  196.9790  185.6050 C.3   211  LEU211      0.0284
     68  CG       189.8070  198.3680  185.1410 C.3   211  LEU211      0.0019
     69  CD1      188.8190  198.2860  183.9900 C.3   211  LEU211      0.0001
     70  CD2      189.1930  199.1080  186.3060 C.3   211  LEU211      0.0001
     71  N        193.1640  196.6940  184.2870 N.am  212  ILE212     -0.1980
     72  CA       194.2710  197.1450  183.4460 C.3   212  ILE212      0.1595
     73  C        194.7310  196.0540  182.4680 C.2   212  ILE212      0.2287
     74  O        194.9680  196.3980  181.3060 O.2   212  ILE212     -0.2864
     75  CB       195.4300  197.7250  184.2750 C.3   212  ILE212      0.0276
     76  CG1      194.9250  198.8210  185.2100 C.3   212  ILE212      0.0022
     77  CG2      196.4440  198.3780  183.3740 C.3   212  ILE212      0.0022
     78  CD1      194.2820  199.9940  184.5100 C.3   212  ILE212      0.0001
     79  N        192.6640  196.1230  179.2960 N.3   215  ILE215     -0.1245
     80  CA       193.0640  197.1650  178.3620 C.3   215  ILE215      0.1561
     81  C        194.3970  196.8130  177.7230 C.2   215  ILE215      0.2260
     82  O        194.6200  197.0960  176.5430 O.2   215  ILE215     -0.2867
     83  CB       193.1210  198.5310  179.0700 C.3   215  ILE215      0.0252
     84  CG1      191.8290  198.7970  179.8320 C.3   215  ILE215      0.0019
     85  CG2      193.2670  199.6440  178.0600 C.3   215  ILE215      0.0019
     86  CD1      190.5900  198.8050  178.9800 C.3   215  ILE215      0.0001
     87  N        194.8470  196.3840  173.7790 N.3   219  LEU219     -0.1245
     88  CA       195.8580  197.1250  173.0390 C.3   219  LEU219      0.1561
     89  C        196.9000  196.2120  172.4050 C.2   219  LEU219      0.2260
     90  O        197.3870  196.5290  171.3260 O.2   219  LEU219     -0.2867
     91  CB       196.5270  198.1610  173.9360 C.3   219  LEU219      0.0270
     92  CG       195.9630  199.5830  173.9650 C.3   219  LEU219      0.0019
     93  CD1      194.6000  199.6910  174.5780 C.3   219  LEU219      0.0001
     94  CD2      196.9180  200.4570  174.7390 C.3   219  LEU219      0.0001
     95  N        205.6250  211.3800  179.5320 N.3   338  PHE338     -0.1241
     96  CA       204.6720  210.5580  178.8020 C.3   338  PHE338      0.1605
     97  C        204.0740  211.3440  177.6470 C.2   338  PHE338      0.2264
     98  O        203.9210  210.8140  176.5420 O.2   338  PHE338     -0.2867
     99  CB       203.5760  210.0490  179.7390 C.3   338  PHE338      0.0534
    100  CG       204.0500  209.0470  180.7710 C.ar  338  PHE338     -0.0203
    101  CD1      205.3040  208.4560  180.6890 C.ar  338  PHE338     -0.0042
    102  CD2      203.2190  208.6860  181.8210 C.ar  338  PHE338     -0.0042
    103  CE1      205.7150  207.5370  181.6310 C.ar  338  PHE338     -0.0003
    104  CE2      203.6310  207.7660  182.7680 C.ar  338  PHE338     -0.0003
    105  CZ       204.8810  207.1930  182.6710 C.ar  338  PHE338     -0.0000
@<TRIPOS>BOND
     1    90    89    2
     2    89    88    1
     3    88    87    1
     4    88    91    1
     5    91    92    1
     6    92    93    1
     7    92    94    1
     8     7     6    1
     9     6     5    1
    10     6     8    1
    11     1     2    1
    12     5     2    1
    13     2     3    1
    14    98    97    2
    15    82    81    2
    16     3     4    2
    17    97    96    1
    18    81    80    1
    19    85    83    1
    20    80    83    1
    21    80    79    1
    22    96    95    1
    23    96    99    1
    24    86    84    1
    25    83    84    1
    26    23    22    1
    27    14    16    1
    28    14    13    1
    29     9    10    1
    30    99   100    1
    31    13    10    1
    32    13    15    1
    33    22    21    1
    34    22    24    1
    35    21    18    1
    36    10    11    1
    37   101   100   ar
    38   101   103   ar
    39   100   102   ar
    40    17    11   am
    41    17    18    1
    42    74    73    2
    43    11    12    2
    44    18    19    1
    45   103   105   ar
    46   102   104   ar
    47    19    20    2
    48    73    72    1
    49   105   104   ar
    50    66    65    2
    51    77    75    1
    52    72    75    1
    53    72    71    1
    54    65    71   am
    55    65    64    1
    56    69    68    1
    57    75    76    1
    58    78    76    1
    59    64    63    1
    60    64    67    1
    61    34    32   ar
    62    34    35   ar
    63    68    67    1
    64    68    70    1
    65    32    30   ar
    66    25    26    1
    67    35    33   ar
    68    30    29    1
    69    30    31   ar
    70    29    26    1
    71    33    31   ar
    72    26    27    1
    73    58    57    2
    74    27    28    2
    75    57    56    1
    76    56    59    1
    77    56    55    1
    78    60    59    1
    79    60    62    1
    80    60    61    1
    81    45    43   ar
    82    45    46   ar
    83    43    41   ar
    84    46    44   ar
    85    41    40    1
    86    41    42   ar
    87    40    37    1
    88    36    37    1
    89    44    42   ar
    90    37    38    1
    91    38    39    2
    92    53    52    1
    93    54    52    1
    94    52    51    1
    95    51    48    1
    96    48    47    1
    97    48    49    1
    98    50    49    2
