@<TRIPOS>MOLECULE
tmp/6adqV08.pdb
 164 160 0 0 0
SMALL
GASTEIGER

@<TRIPOS>ATOM
      1  N        205.7990  187.5080  174.4950 N.3    45  TYR45      -0.1241
      2  CA       205.9820  186.1170  174.8880 C.3    45  TYR45       0.1605
      3  C        206.1480  185.9490  176.3800 C.2    45  TYR45       0.2264
      4  O        205.9210  184.8520  176.8900 O.2    45  TYR45      -0.2867
      5  CB       207.1830  185.5090  174.1660 C.3    45  TYR45       0.0534
      6  CG       206.9310  185.2750  172.6940 C.ar   45  TYR45      -0.0201
      7  CD1      205.6370  185.2640  172.1840 C.ar   45  TYR45      -0.0009
      8  CD2      207.9800  185.1040  171.8100 C.ar   45  TYR45      -0.0009
      9  CE1      205.3970  185.0590  170.8580 C.ar   45  TYR45       0.0417
     10  CE2      207.7480  184.8990  170.4720 C.ar   45  TYR45       0.0417
     11  CZ       206.4520  184.8810  170.0050 C.ar   45  TYR45       0.1957
     12  OH       206.2010  184.6810  168.6720 O.3    45  TYR45      -0.2866
     13  N        203.0040  184.4720  179.5800 N.3    49  ILE49      -0.1245
     14  CA       203.4660  183.8870  180.8350 C.3    49  ILE49       0.1561
     15  C        202.8250  184.6000  182.0140 C.2    49  ILE49       0.2260
     16  O        202.3360  183.9580  182.9530 O.2    49  ILE49      -0.2867
     17  CB       205.0000  183.9390  180.9120 C.3    49  ILE49       0.0252
     18  CG1      205.6100  183.2360  179.7070 C.3    49  ILE49       0.0019
     19  CG2      205.4880  183.2920  182.1770 C.3    49  ILE49       0.0019
     20  CD1      205.1920  181.8060  179.5660 C.3    49  ILE49       0.0001
     21  N        199.5720  183.0500  182.2170 N.3    52  LEU52      -0.1231
     22  CA       199.5610  181.6290  182.5490 C.3    52  LEU52       0.1693
     23  C        200.0690  181.3720  183.9580 C.2    52  LEU52       0.2592
     24  O        199.6530  180.4000  184.5950 O.2    52  LEU52      -0.2718
     25  CB       200.3800  180.8440  181.5310 C.3    52  LEU52       0.0284
     26  CG       199.6990  180.6970  180.1760 C.3    52  LEU52       0.0019
     27  CD1      200.6430  180.0990  179.1620 C.3    52  LEU52       0.0001
     28  CD2      198.4890  179.8130  180.3390 C.3    52  LEU52       0.0001
     29  N        200.9520  182.2300  184.4610 N.am   53  THR53      -0.1953
     30  CA       201.2220  182.2320  185.8890 C.3    53  THR53       0.1897
     31  C        200.1350  182.9790  186.6350 C.2    53  THR53       0.2313
     32  O        199.6530  182.5050  187.6680 O.2    53  THR53      -0.2863
     33  CB       202.5660  182.8830  186.1840 C.3    53  THR53       0.1794
     34  OG1      202.5180  184.2530  185.7760 O.3    53  THR53      -0.2208
     35  CG2      203.6650  182.1900  185.4370 C.3    53  THR53       0.0378
     36  N        196.9040  181.4970  187.6730 N.3    56  TRP56      -0.1241
     37  CA       197.2220  180.5900  188.7710 C.3    56  TRP56       0.1605
     38  C        197.3930  181.3450  190.0780 C.2    56  TRP56       0.2264
     39  O        197.0330  180.8420  191.1480 O.2    56  TRP56      -0.2867
     40  CB       198.5070  179.8420  188.4630 C.3    56  TRP56       0.0550
     41  CG       198.8190  178.7440  189.4100 C.ar   56  TRP56       0.0003
     42  CD1      198.4050  177.4560  189.3160 C.ar   56  TRP56       0.0946
     43  CD2      199.5300  178.8480  190.6510 C.ar   56  TRP56       0.0152
     44  NE1      198.8600  176.7360  190.3880 N.ar   56  TRP56      -0.2442
     45  CE2      199.5420  177.5730  191.2260 C.ar   56  TRP56       0.0810
     46  CE3      200.1340  179.9000  191.3430 C.ar   56  TRP56       0.0012
     47  CZ2      200.1710  177.3110  192.4260 C.ar   56  TRP56       0.0191
     48  CZ3      200.7570  179.6380  192.5280 C.ar   56  TRP56       0.0001
     49  CH2      200.7630  178.3610  193.0610 C.ar   56  TRP56       0.0015
     50  N        207.7090  179.1680  193.2710 N.3   101  PHE101     -0.1227
     51  CA       208.2350  179.2130  191.9190 C.3   101  PHE101      0.1736
     52  C        207.2950  179.9090  190.9590 C.2   101  PHE101      0.2595
     53  O        207.7510  180.6870  190.1190 O.2   101  PHE101     -0.2718
     54  CB       208.5670  177.8240  191.3840 C.3   101  PHE101      0.0547
     55  CG       208.8470  177.8200  189.9120 C.ar  101  PHE101     -0.0202
     56  CD1      209.9800  178.4300  189.4050 C.ar  101  PHE101     -0.0042
     57  CD2      207.9630  177.2290  189.0320 C.ar  101  PHE101     -0.0042
     58  CE1      210.2200  178.4440  188.0600 C.ar  101  PHE101     -0.0003
     59  CE2      208.2050  177.2430  187.6860 C.ar  101  PHE101     -0.0003
     60  CZ       209.3300  177.8460  187.2030 C.ar  101  PHE101     -0.0000
     61  N        205.9870  179.6550  191.0470 N.am  102  VAL102     -0.1980
     62  CA       205.0800  180.2690  190.0660 C.3   102  VAL102      0.1595
     63  C        204.9690  181.7630  190.3260 C.2   102  VAL102      0.2287
     64  O        205.0020  182.5640  189.3930 O.2   102  VAL102     -0.2864
     65  CB       203.7200  179.5730  190.0250 C.3   102  VAL102      0.0276
     66  CG1      202.8280  180.2400  189.0270 C.3   102  VAL102      0.0022
     67  CG2      203.8730  178.1550  189.5510 C.3   102  VAL102      0.0022
     68  N        208.4320  183.2380  189.0370 N.3   105  VAL105     -0.1245
     69  CA       208.4890  183.3160  187.5790 C.3   105  VAL105      0.1561
     70  C        207.4350  184.2820  187.0660 C.2   105  VAL105      0.2260
     71  O        207.6070  184.8800  186.0060 O.2   105  VAL105     -0.2867
     72  CB       208.3520  181.9170  186.9360 C.3   105  VAL105      0.0252
     73  CG1      206.9670  181.3840  187.0550 C.3   105  VAL105      0.0019
     74  CG2      208.7420  181.9270  185.4780 C.3   105  VAL105      0.0019
     75  N        200.1500  193.3180  161.9210 N.3   228  TRP228     -0.1241
     76  CA       199.8620  192.2020  161.0340 C.3   228  TRP228      0.1605
     77  C        199.3780  192.6760  159.6710 C.2   228  TRP228      0.2264
     78  O        200.0190  192.4130  158.6500 O.2   228  TRP228     -0.2867
     79  CB       198.8210  191.2980  161.6810 C.3   228  TRP228      0.0550
     80  CG       198.5540  190.1000  160.8960 C.ar  228  TRP228      0.0003
     81  CD1      197.5550  189.9280  159.9960 C.ar  228  TRP228      0.0946
     82  CD2      199.2660  188.8660  160.9500 C.ar  228  TRP228      0.0152
     83  NE1      197.6160  188.6720  159.4570 N.ar  228  TRP228     -0.2442
     84  CE2      198.6560  187.9950  160.0350 C.ar  228  TRP228      0.0810
     85  CE3      200.3670  188.4130  161.6780 C.ar  228  TRP228      0.0012
     86  CZ2      199.1090  186.7020  159.8300 C.ar  228  TRP228      0.0191
     87  CZ3      200.8130  187.1300  161.4720 C.ar  228  TRP228      0.0001
     88  CH2      200.1860  186.2900  160.5600 C.ar  228  TRP228      0.0015
     89  N        205.1590  182.8200  156.9390 N.3   250  VAL250     -0.1231
     90  CA       204.7280  182.4420  158.2810 C.3   250  VAL250      0.1692
     91  C        204.7940  180.9340  158.4670 C.2   250  VAL250      0.2591
     92  O        205.3700  180.4460  159.4440 O.2   250  VAL250     -0.2718
     93  CB       203.3190  182.9850  158.5700 C.3   250  VAL250      0.0266
     94  CG1      202.7380  182.3410  159.8080 C.3   250  VAL250      0.0020
     95  CG2      203.3810  184.4660  158.7940 C.3   250  VAL250      0.0020
     96  N        204.2530  180.1730  157.5110 N.am  251  MET251     -0.1979
     97  CA       203.9240  178.7770  157.8010 C.3   251  MET251      0.1605
     98  C        205.1310  177.8480  157.9240 C.2   251  MET251      0.2287
     99  O        205.2010  177.1180  158.9270 O.2   251  MET251     -0.2864
    100  CB       202.9020  178.2540  156.7890 C.3   251  MET251      0.0413
    101  CG       202.4030  176.8810  157.1400 C.3   251  MET251      0.0598
    102  SD       201.5980  176.8430  158.7460 S.3   251  MET251     -0.1393
    103  CE       201.8790  175.1370  159.2040 C.3   251  MET251      0.0692
    104  N        208.5810  181.0260  159.9360 N.3   254  PHE254     -0.1227
    105  CA       208.3790  182.0290  160.9800 C.3   254  PHE254      0.1736
    106  C        207.5400  181.5050  162.1350 C.2   254  PHE254      0.2595
    107  O        207.7550  181.9190  163.2780 O.2   254  PHE254     -0.2718
    108  CB       207.7280  183.2830  160.4050 C.3   254  PHE254      0.0547
    109  CG       207.5080  184.3600  161.4170 C.ar  254  PHE254     -0.0202
    110  CD1      208.5720  185.1120  161.8770 C.ar  254  PHE254     -0.0042
    111  CD2      206.2410  184.6150  161.9170 C.ar  254  PHE254     -0.0042
    112  CE1      208.3790  186.1000  162.8140 C.ar  254  PHE254     -0.0003
    113  CE2      206.0410  185.5970  162.8550 C.ar  254  PHE254     -0.0003
    114  CZ       207.1100  186.3440  163.3030 C.ar  254  PHE254     -0.0000
    115  N        206.5860  180.6130  161.8680 N.am  255  ALA255     -0.1966
    116  CA       205.8160  180.0230  162.9570 C.3   255  ALA255      0.1728
    117  C        206.6950  179.1470  163.8320 C.2   255  ALA255      0.2616
    118  O        206.5670  179.1670  165.0610 O.2   255  ALA255     -0.2715
    119  CB       204.6450  179.2150  162.4070 C.3   255  ALA255      0.0334
    120  N        207.6240  178.4150  163.2150 N.am  256  VAL256     -0.1977
    121  CA       208.5110  177.5310  163.9610 C.3   256  VAL256      0.1596
    122  C        209.4580  178.3350  164.8400 C.2   256  VAL256      0.2287
    123  O        209.5840  178.0650  166.0380 O.2   256  VAL256     -0.2864
    124  CB       209.2790  176.6120  162.9990 C.3   256  VAL256      0.0276
    125  CG1      210.2990  175.7970  163.7550 C.3   256  VAL256      0.0022
    126  CG2      208.3080  175.7070  162.2760 C.3   256  VAL256      0.0022
    127  N        209.0560  181.4040  165.7980 N.3   258  SER258     -0.1202
    128  CA       208.3110  182.2110  166.7570 C.3   258  SER258      0.2020
    129  C        207.8530  181.3750  167.9430 C.2   258  SER258      0.2619
    130  O        207.9640  181.8120  169.0920 O.2   258  SER258     -0.2717
    131  CB       207.1140  182.8600  166.0800 C.3   258  SER258      0.2103
    132  OG       206.1580  181.8760  165.7430 O.3   258  SER258     -0.2182
    133  N        207.3500  180.1650  167.6870 N.am  259  GLY259     -0.1942
    134  CA       206.9920  179.2800  168.7830 C.3   259  GLY259      0.2014
    135  C        208.2010  178.8070  169.5660 C.2   259  GLY259      0.2638
    136  O        208.1490  178.6880  170.7940 O.2   259  GLY259     -0.2714
    137  N        209.3170  178.5680  168.8760 N.am  260  ALA260     -0.1977
    138  CA       210.5430  178.1910  169.5610 C.3   260  ALA260      0.1597
    139  C        211.1100  179.3430  170.3680 C.2   260  ALA260      0.2287
    140  O        211.6850  179.1250  171.4350 O.2   260  ALA260     -0.2864
    141  CB       211.5700  177.7080  168.5510 C.3   260  ALA260      0.0319
    142  N        209.1990  181.6950  171.7200 N.3   262  PHE262     -0.1227
    143  CA       208.3060  181.6830  172.8760 C.3   262  PHE262      0.1736
    144  C        208.7580  180.6610  173.9050 C.2   262  PHE262      0.2595
    145  O        208.7960  180.9490  175.1090 O.2   262  PHE262     -0.2718
    146  CB       206.8800  181.3780  172.4260 C.3   262  PHE262      0.0547
    147  CG       205.8870  181.3180  173.5450 C.ar  262  PHE262     -0.0202
    148  CD1      205.4370  182.4710  174.1430 C.ar  262  PHE262     -0.0042
    149  CD2      205.3890  180.1120  173.9880 C.ar  262  PHE262     -0.0042
    150  CE1      204.5230  182.4390  175.1620 C.ar  262  PHE262     -0.0003
    151  CE2      204.4720  180.0760  175.0120 C.ar  262  PHE262     -0.0003
    152  CZ       204.0400  181.2410  175.5980 C.ar  262  PHE262     -0.0000
    153  N        209.1360  179.4720  173.4410 N.am  263  ALA263     -0.1980
    154  CA       209.6000  178.4320  174.3470 C.3   263  ALA263      0.1597
    155  C        210.9280  178.7920  174.9970 C.2   263  ALA263      0.2287
    156  O        211.1370  178.4870  176.1710 O.2   263  ALA263     -0.2864
    157  CB       209.7080  177.1080  173.6000 C.3   263  ALA263      0.0319
    158  N        210.2790  181.4600  177.6230 N.3   266  THR266     -0.1218
    159  CA       209.7590  180.7610  178.7910 C.3   266  THR266      0.1862
    160  C        210.8540  179.9710  179.5030 C.2   266  THR266      0.2287
    161  O        210.8420  179.8710  180.7300 O.2   266  THR266     -0.2866
    162  CB       208.6140  179.8480  178.3650 C.3   266  THR266      0.1770
    163  OG1      207.6540  180.6140  177.6320 O.3   266  THR266     -0.2211
    164  CG2      207.9180  179.2580  179.5680 C.3   266  THR266      0.0375
@<TRIPOS>BOND
     1   100   101    1
     2   100    97    1
     3    89    90    1
     4   101   102    1
     5    96    97    1
     6    96    91   am
     7    97    98    1
     8    98    99    2
     9    90    91    1
    10    90    93    1
    11    91    92    2
    12    93    95    1
    13    93    94    1
    14    78    77    2
    15   102   103    1
    16    83    81   ar
    17    83    84   ar
    18    77    76    1
    19    86    84   ar
    20    86    88   ar
    21   104   105    1
    22    81    80   ar
    23    84    82   ar
    24   108   105    1
    25   108   109    1
    26    88    87   ar
    27    80    82   ar
    28    80    79    1
    29    82    85   ar
    30   105   106    1
    31    76    79    1
    32    76    75    1
    33   109   110   ar
    34   109   111   ar
    35    87    85   ar
    36   115   106   am
    37   115   116    1
    38   110   112   ar
    39   111   113   ar
    40   106   107    2
    41   126   124    1
    42   119   116    1
    43   112   114   ar
    44   113   114   ar
    45   116   117    1
    46   124   125    1
    47   124   121    1
    48   120   117   am
    49   120   121    1
    50   117   118    2
    51   121   122    1
    52   122   123    2
    53   132   131    1
    54   127   128    1
    55   131   128    1
    56   128   129    1
    57   133   129   am
    58   133   134    1
    59   129   130    2
    60   141   138    1
    61    12    11    1
    62   134   135    1
    63   137   138    1
    64   137   135   am
    65   138   139    1
    66   135   136    2
    67    11    10   ar
    68    11     9   ar
    69   139   140    2
    70    10     8   ar
    71     9     7   ar
    72   142   143    1
    73     8     6   ar
    74     7     6   ar
    75   146   143    1
    76   146   147    1
    77     6     5    1
    78   143   144    1
    79   153   144   am
    80   153   154    1
    81   147   149   ar
    82   147   148   ar
    83   157   154    1
    84   144   145    2
    85   149   151   ar
    86   148   150   ar
    87     5     2    1
    88   154   155    1
    89     1     2    1
    90     2     3    1
    91   155   156    2
    92   151   152   ar
    93   150   152   ar
    94     3     4    2
    95   158   159    1
    96   163   162    1
    97   162   159    1
    98   162   164    1
    99   159   160    1
   100    27    26    1
   101   160   161    2
   102    20    18    1
   103    13    14    1
   104    18    17    1
   105    26    28    1
   106    26    25    1
   107    14    17    1
   108    14    15    1
   109    17    19    1
   110    25    22    1
   111    15    16    2
   112    21    22    1
   113    22    23    1
   114    23    29   am
   115    23    24    2
   116    29    30    1
   117    35    33    1
   118    74    72    1
   119    34    33    1
   120    30    33    1
   121    30    31    1
   122    71    70    2
   123    31    32    2
   124    72    73    1
   125    72    69    1
   126    70    69    1
   127    60    59   ar
   128    60    58   ar
   129    69    68    1
   130    36    37    1
   131    59    57   ar
   132    58    56   ar
   133    40    37    1
   134    40    41    1
   135    37    38    1
   136    66    65    1
   137    57    55   ar
   138    42    41   ar
   139    42    44   ar
   140    64    63    2
   141    56    55   ar
   142    41    43   ar
   143    67    65    1
   144    55    54    1
   145    65    62    1
   146    62    63    1
   147    62    61    1
   148    38    39    2
   149    53    52    2
   150    44    45   ar
   151    43    45   ar
   152    43    46   ar
   153    52    61   am
   154    52    51    1
   155    45    47   ar
   156    46    48   ar
   157    54    51    1
   158    51    50    1
   159    47    49   ar
   160    48    49   ar
