@<TRIPOS>MOLECULE
tmp/6adqV01.pdb
 116 110 0 0 0
SMALL
GASTEIGER

@<TRIPOS>ATOM
      1  N        219.9700  207.7270  178.4220 N.3   379  ALA379     -0.1245
      2  CA       220.8920  208.0120  179.5090 C.3   379  ALA379      0.1562
      3  C        220.2270  208.7960  180.6280 C.2   379  ALA379      0.2260
      4  O        220.6430  208.6830  181.7810 O.2   379  ALA379     -0.2867
      5  CB       222.0980  208.7630  178.9700 C.3   379  ALA379      0.0290
      6  N        218.6590  206.0180  182.4810 N.3   382  LEU382     -0.1231
      7  CA       219.7050  205.3220  183.2220 C.3   382  LEU382      0.1693
      8  C        220.2020  206.1390  184.3970 C.2   382  LEU382      0.2591
      9  O        220.6700  205.5750  185.3860 O.2   382  LEU382     -0.2718
     10  CB       220.8870  204.9860  182.3170 C.3   382  LEU382      0.0284
     11  CG       220.9680  203.6060  181.6810 C.3   382  LEU382      0.0019
     12  CD1      221.0370  202.5830  182.7860 C.3   382  LEU382      0.0001
     13  CD2      219.8050  203.3310  180.7750 C.3   382  LEU382      0.0001
     14  N        220.1110  207.4580  184.3100 N.am  383  LEU383     -0.1980
     15  CA       220.5140  208.2950  185.4250 C.3   383  LEU383      0.1596
     16  C        219.4500  208.2970  186.5130 C.2   383  LEU383      0.2287
     17  O        219.7690  208.1700  187.6990 O.2   383  LEU383     -0.2864
     18  CB       220.8030  209.7050  184.9130 C.3   383  LEU383      0.0297
     19  CG       221.4910  210.7500  185.7850 C.3   383  LEU383      0.0022
     20  CD1      220.5300  211.4890  186.6730 C.3   383  LEU383      0.0001
     21  CD2      222.5550  210.0810  186.6170 C.3   383  LEU383      0.0001
     22  N        219.6930  204.8230  187.9650 N.3   386  PHE386     -0.1241
     23  CA       220.9480  204.6560  188.6990 C.3   386  PHE386      0.1605
     24  C        221.1710  205.6910  189.7820 C.2   386  PHE386      0.2264
     25  O        222.2420  205.6910  190.3890 O.2   386  PHE386     -0.2867
     26  CB       222.1550  204.6700  187.7600 C.3   386  PHE386      0.0534
     27  CG       222.3700  203.3850  187.0260 C.ar  386  PHE386     -0.0203
     28  CD1      221.6430  202.2540  187.3540 C.ar  386  PHE386     -0.0042
     29  CD2      223.3350  203.2930  186.0390 C.ar  386  PHE386     -0.0042
     30  CE1      221.8420  201.0690  186.6880 C.ar  386  PHE386     -0.0003
     31  CE2      223.5470  202.1020  185.3730 C.ar  386  PHE386     -0.0003
     32  CZ       222.7970  200.9900  185.6970 C.ar  386  PHE386     -0.0000
     33  N        230.2780  205.5750  198.5550 N.3   399  ILE399     -0.1231
     34  CA       230.1240  206.9630  198.1420 C.3   399  ILE399      0.1692
     35  C        229.2500  207.6030  199.2110 C.2   399  ILE399      0.2592
     36  O        228.4240  206.9230  199.8250 O.2   399  ILE399     -0.2718
     37  CB       229.4780  207.0710  196.7310 C.3   399  ILE399      0.0266
     38  CG1      230.3470  206.4060  195.6720 C.3   399  ILE399      0.0019
     39  CG2      229.2590  208.5010  196.2780 C.3   399  ILE399      0.0020
     40  CD1      229.6800  206.3110  194.3340 C.3   399  ILE399      0.0001
     41  N        229.4780  208.8880  199.4930 N.am  400  SER400     -0.1952
     42  CA       228.5360  209.6240  200.3240 C.3   400  SER400      0.1924
     43  C        227.1760  209.6470  199.6510 C.2   400  SER400      0.2314
     44  O        227.0760  209.8480  198.4420 O.2   400  SER400     -0.2863
     45  CB       229.0130  211.0520  200.5730 C.3   400  SER400      0.2116
     46  OG       230.2410  211.0940  201.2640 O.3   400  SER400     -0.2180
     47  N        224.6760  211.7250  200.0980 N.3   402  ASN402     -0.1225
     48  CA       224.4620  213.0770  199.6080 C.3   402  ASN402      0.1785
     49  C        225.2410  213.3110  198.3280 C.2   402  ASN402      0.2597
     50  O        224.7470  213.9660  197.4090 O.2   402  ASN402     -0.2718
     51  CB       224.8910  214.0910  200.6590 C.3   402  ASN402      0.1169
     52  CG       224.1950  213.8950  201.9720 C.2   402  ASN402      0.2627
     53  OD1      223.0210  213.5430  202.0300 O.2   402  ASN402     -0.2716
     54  ND2      224.9220  214.1280  203.0510 N.am  402  ASN402     -0.0877
     55  N        226.4450  212.7390  198.2300 N.am  403  ALA403     -0.1979
     56  CA       227.2580  212.9580  197.0410 C.3   403  ALA403      0.1597
     57  C        226.6620  212.2820  195.8210 C.2   403  ALA403      0.2287
     58  O        226.6040  212.8920  194.7580 O.2   403  ALA403     -0.2864
     59  CB       228.6860  212.4730  197.2550 C.3   403  ALA403      0.0319
     60  N        223.6430  214.1660  194.7320 N.3   406  TRP406     -0.1227
     61  CA       224.0440  215.3560  193.9850 C.3   406  TRP406      0.1737
     62  C        224.5900  215.0030  192.6130 C.2   406  TRP406      0.2595
     63  O        224.4270  215.7840  191.6720 O.2   406  TRP406     -0.2718
     64  CB       225.1030  216.1800  194.7120 C.3   406  TRP406      0.0564
     65  CG       224.6250  217.0570  195.8070 C.ar  406  TRP406      0.0003
     66  CD1      224.9100  216.9460  197.1290 C.ar  406  TRP406      0.0946
     67  CD2      223.7590  218.1800  195.6790 C.ar  406  TRP406      0.0152
     68  NE1      224.2920  217.9380  197.8350 N.ar  406  TRP406     -0.2442
     69  CE2      223.5710  218.7080  196.9660 C.ar  406  TRP406      0.0810
     70  CE3      223.1450  218.8100  194.5970 C.ar  406  TRP406      0.0012
     71  CZ2      222.8020  219.8300  197.1980 C.ar  406  TRP406      0.0191
     72  CZ3      222.3790  219.9170  194.8340 C.ar  406  TRP406      0.0001
     73  CH2      222.2040  220.4120  196.1220 C.ar  406  TRP406      0.0015
     74  N        225.2800  213.8640  192.5010 N.am  407  ILE407     -0.1980
     75  CA       225.7490  213.3760  191.2080 C.3   407  ILE407      0.1595
     76  C        224.5700  213.1330  190.2880 C.2   407  ILE407      0.2287
     77  O        224.5890  213.5370  189.1280 O.2   407  ILE407     -0.2864
     78  CB       226.6090  212.1070  191.3760 C.3   407  ILE407      0.0276
     79  CG1      228.0000  212.4370  191.9070 C.3   407  ILE407      0.0022
     80  CG2      226.7610  211.3660  190.0770 C.3   407  ILE407      0.0022
     81  CD1      228.7790  211.2120  192.3170 C.3   407  ILE407      0.0001
     82  N        222.8940  216.7410  189.4250 N.3   410  ILE410     -0.1231
     83  CA       223.5980  217.4360  188.3540 C.3   410  ILE410      0.1692
     84  C        223.6110  216.5890  187.0850 C.2   410  ILE410      0.2592
     85  O        223.6100  217.1360  185.9760 O.2   410  ILE410     -0.2718
     86  CB       225.0260  217.7950  188.8050 C.3   410  ILE410      0.0266
     87  CG1      224.9770  218.6480  190.0580 C.3   410  ILE410      0.0019
     88  CG2      225.7750  218.6110  187.7650 C.3   410  ILE410      0.0020
     89  CD1      226.3270  218.8930  190.6450 C.3   410  ILE410      0.0001
     90  N        223.5610  215.2650  187.2340 N.am  411  GLY411     -0.1957
     91  CA       223.6710  214.3850  186.0930 C.3   411  GLY411      0.1869
     92  C        222.4690  214.4650  185.1860 C.2   411  GLY411      0.2309
     93  O        222.6220  214.4910  183.9730 O.2   411  GLY411     -0.2863
     94  N        223.3100  217.6690  183.0930 N.3   414  VAL414     -0.1231
     95  CA       224.5040  217.7790  182.2700 C.3   414  VAL414      0.1692
     96  C        224.8130  216.5020  181.4830 C.2   414  VAL414      0.2591
     97  O        225.3550  216.5920  180.3750 O.2   414  VAL414     -0.2718
     98  CB       225.7260  218.2290  183.1140 C.3   414  VAL414      0.0266
     99  CG1      226.2360  217.1520  184.0400 C.3   414  VAL414      0.0020
    100  CG2      226.8490  218.7490  182.2390 C.3   414  VAL414      0.0020
    101  N        224.4460  215.3230  181.9790 N.am  415  LEU415     -0.1980
    102  CA       224.7460  214.0700  181.3020 C.3   415  LEU415      0.1596
    103  C        223.8910  213.8310  180.0540 C.2   415  LEU415      0.2287
    104  O        224.3960  213.1910  179.1290 O.2   415  LEU415     -0.2864
    105  CB       224.6370  212.9090  182.2990 C.3   415  LEU415      0.0297
    106  CG       225.1040  211.5110  181.8900 C.3   415  LEU415      0.0022
    107  CD1      225.7650  210.8290  183.0420 C.3   415  LEU415      0.0001
    108  CD2      223.9280  210.6810  181.4910 C.3   415  LEU415      0.0001
    109  N        226.0470  215.7710  177.6160 N.3   418  ILE418     -0.1245
    110  CA       227.2540  215.0240  177.2770 C.3   418  ILE418      0.1561
    111  C        226.9200  213.8650  176.3530 C.2   418  ILE418      0.2260
    112  O        227.5890  213.6510  175.3340 O.2   418  ILE418     -0.2867
    113  CB       227.9590  214.5390  178.5570 C.3   418  ILE418      0.0252
    114  CG1      228.4930  215.7270  179.3540 C.3   418  ILE418      0.0019
    115  CG2      229.0820  213.5760  178.2370 C.3   418  ILE418      0.0019
    116  CD1      228.9990  215.3580  180.7270 C.3   418  ILE418      0.0001
@<TRIPOS>BOND
     1   112   111    2
     2   111   110    1
     3   110   109    1
     4   110   113    1
     5   115   113    1
     6     1     2    1
     7   113   114    1
     8     5     2    1
     9   104   103    2
    10   114   116    1
    11     2     3    1
    12   103   102    1
    13    97    96    2
    14     3     4    2
    15    13    11    1
    16   102   101    1
    17   102   105    1
    18    96   101   am
    19    96    95    1
    20   108   106    1
    21    11    10    1
    22    11    12    1
    23   106   105    1
    24   106   107    1
    25   100    98    1
    26    95    94    1
    27    95    98    1
    28    10     7    1
    29     6     7    1
    30    98    99    1
    31     7     8    1
    32    93    92    2
    33    14     8   am
    34    14    15    1
    35     8     9    2
    36    18    15    1
    37    18    19    1
    38    92    91    1
    39    31    32   ar
    40    31    29   ar
    41    15    16    1
    42    32    30   ar
    43    19    21    1
    44    19    20    1
    45    85    84    2
    46    29    27   ar
    47    91    90    1
    48    16    17    2
    49    30    28   ar
    50    27    28   ar
    51    27    26    1
    52    84    90   am
    53    84    83    1
    54    26    23    1
    55    88    86    1
    56    22    23    1
    57    83    86    1
    58    83    82    1
    59    23    24    1
    60    86    87    1
    61    77    76    2
    62    24    25    2
    63    87    89    1
    64    80    78    1
    65    76    75    1
    66    75    78    1
    67    75    74    1
    68    78    79    1
    69    63    62    2
    70    79    81    1
    71    74    62   am
    72    62    61    1
    73    61    64    1
    74    61    60    1
    75    40    38    1
    76    70    72   ar
    77    70    67   ar
    78    64    65    1
    79    58    57    2
    80    72    73   ar
    81    38    37    1
    82    67    65   ar
    83    67    69   ar
    84    65    66   ar
    85    57    56    1
    86    73    71   ar
    87    39    37    1
    88    37    34    1
    89    69    71   ar
    90    69    68   ar
    91    56    59    1
    92    56    55    1
    93    66    68   ar
    94    50    49    2
    95    34    33    1
    96    34    35    1
    97    55    49   am
    98    49    48    1
    99    44    43    2
   100    35    41   am
   101    35    36    2
   102    41    42    1
   103    48    47    1
   104    48    51    1
   105    43    42    1
   106    42    45    1
   107    45    46    1
   108    51    52    1
   109    52    53    2
   110    52    54   am
