@<TRIPOS>MOLECULE
tmp/6adwA00.pdb
 141 134 0 0 0
SMALL
GASTEIGER

@<TRIPOS>ATOM
      1  N        -28.4910   14.9320  -19.8930 N.3    12  LEU12      -0.1231
      2  CA       -28.1950   14.6200  -21.2840 C.3    12  LEU12       0.1693
      3  C        -26.9020   13.8130  -21.3800 C.2    12  LEU12       0.2592
      4  O        -26.0040   13.9310  -20.5410 O.2    12  LEU12      -0.2718
      5  CB       -28.0690   15.9010  -22.1120 C.3    12  LEU12       0.0284
      6  CG       -29.2610   16.8700  -22.1410 C.3    12  LEU12       0.0019
      7  CD1      -29.0840   17.9090  -23.2220 C.3    12  LEU12       0.0001
      8  CD2      -30.5870   16.1460  -22.3050 C.3    12  LEU12       0.0001
      9  N        -26.8090   12.9860  -22.4210 N.am   13  HIS13      -0.1962
     10  CA       -25.6210   12.1690  -22.6030 C.3    13  HIS13       0.1772
     11  C        -24.4190   13.0570  -22.9410 C.2    13  HIS13       0.2462
     12  O        -24.5830   14.2340  -23.2780 O.2    13  HIS13      -0.2730
     13  CB       -25.8770   11.1050  -23.6760 C.3    13  HIS13       0.0785
     14  CG       -26.0550   11.6480  -25.0610 C.ar   13  HIS13       0.0821
     15  ND1      -24.9990   12.1050  -25.8240 N.ar   13  HIS13      -0.2267
     16  CD2      -27.1610   11.7740  -25.8320 C.ar   13  HIS13       0.1154
     17  CE1      -25.4520   12.5100  -26.9970 C.ar   13  HIS13       0.1986
     18  NE2      -26.7600   12.3220  -27.0270 N.ar   13  HIS13      -0.2212
     19  N        -23.1920   12.5430  -22.7910 N.am   14  PRO14      -0.2716
     20  CA       -22.0160   13.3860  -23.0760 C.3    14  PRO14       0.1536
     21  C        -22.0850   13.9310  -24.4910 C.2    14  PRO14       0.2599
     22  O        -22.5350   13.2520  -25.4150 O.2    14  PRO14      -0.2715
     23  CB       -20.8260   12.4320  -22.8960 C.3    14  PRO14       0.0310
     24  CG       -21.3220   11.3610  -21.9900 C.3    14  PRO14       0.0237
     25  CD       -22.8040   11.2030  -22.3040 C.3    14  PRO14       0.0939
     26  N        -21.6700   15.1830  -24.6510 N.am   15  GLY15      -0.1941
     27  CA       -21.6810   15.8190  -25.9470 C.3    15  GLY15       0.2014
     28  C        -23.0260   16.3600  -26.3840 C.2    15  GLY15       0.2639
     29  O        -23.0990   16.9810  -27.4550 O.2    15  GLY15      -0.2714
     30  N        -24.0850   16.2040  -25.5710 N.am   16  ALA16      -0.1963
     31  CA       -25.4390   16.4910  -26.0450 C.3    16  ALA16       0.1728
     32  C        -25.8090   17.9710  -26.0610 C.2    16  ALA16       0.2617
     33  O        -26.8930   18.3040  -26.5480 O.2    16  ALA16      -0.2715
     34  CB       -26.4670   15.7510  -25.2030 C.3    16  ALA16       0.0334
     35  N        -24.9800   18.8630  -25.5250 N.am   17  GLY17      -0.1940
     36  CA       -25.3110   20.2770  -25.5830 C.3    17  GLY17       0.2014
     37  C        -25.4320   21.0260  -24.2660 C.2    17  GLY17       0.2639
     38  O        -25.8020   22.2050  -24.2590 O.2    17  GLY17      -0.2714
     39  N        -25.1140   20.3700  -23.1490 N.am   18  LYS18      -0.1963
     40  CA       -25.4920   20.9070  -21.8440 C.3    18  LYS18       0.1728
     41  C        -24.8570   22.2770  -21.5650 C.2    18  LYS18       0.2617
     42  O        -25.5460   23.2090  -21.1280 O.2    18  LYS18      -0.2715
     43  CB       -25.1780   19.8570  -20.7640 C.3    18  LYS18       0.0311
     44  CG       -23.9100   20.0770  -19.9430 C.3    18  LYS18       0.0038
     45  CD       -23.7170   19.0110  -18.8670 C.3    18  LYS18       0.0206
     46  CE       -22.2320   18.7600  -18.6040 C.3    18  LYS18       0.1093
     47  NZ       -21.5250   20.0240  -18.3810 N.3    18  LYS18      -0.1314
     48  N        -23.5720   22.4400  -21.8650 N.am   19  THR19      -0.1937
     49  CA       -22.8540   23.6810  -21.5650 C.3    19  THR19       0.2028
     50  C        -22.9070   24.6950  -22.7020 C.2    19  THR19       0.2642
     51  O        -23.0900   25.9010  -22.4490 O.2    19  THR19      -0.2714
     52  CB       -21.3710   23.4030  -21.2200 C.3    19  THR19       0.1808
     53  OG1      -21.2890   22.4770  -20.1280 O.3    19  THR19      -0.2208
     54  CG2      -20.6790   24.6730  -20.8090 C.3    19  THR19       0.0379
     55  N        -22.7120   24.2410  -23.9460 N.am   20  ARG20      -0.1963
     56  CA       -22.6950   25.1660  -25.0760 C.3    20  ARG20       0.1729
     57  C        -24.0930   25.5620  -25.5280 C.2    20  ARG20       0.2616
     58  O        -24.2680   26.6750  -26.0370 O.2    20  ARG20      -0.2715
     59  CB       -21.8830   24.5820  -26.2540 C.3    20  ARG20       0.0348
     60  CG       -20.4930   24.0410  -25.8210 C.3    20  ARG20       0.0492
     61  CD       -19.5230   23.5510  -26.9180 C.3    20  ARG20       0.2205
     62  NE       -19.6030   22.1220  -27.2490 N.pl3  20  ARG20      -0.0865
     63  CZ       -18.9840   21.1390  -26.5810 C.cat  20  ARG20       0.5346
     64  NH1      -18.2750   21.4000  -25.4900 N.pl3  20  ARG20       0.1354
     65  NH2      -19.1000   19.8720  -26.9750 N.pl3  20  ARG20       0.1354
     66  N        -25.0990   24.7100  -25.3110 N.am   21  ARG21      -0.1977
     67  CA       -26.4540   24.9890  -25.7810 C.3    21  ARG21       0.1597
     68  C        -27.4730   25.2210  -24.6700 C.2    21  ARG21       0.2287
     69  O        -28.1980   26.2190  -24.6980 O.2    21  ARG21      -0.2864
     70  CB       -26.9430   23.8510  -26.6910 C.3    21  ARG21       0.0334
     71  CG       -28.3850   24.0310  -27.1300 C.3    21  ARG21       0.0492
     72  CD       -28.8100   22.9640  -28.1160 C.3    21  ARG21       0.2205
     73  NE       -28.5150   21.6320  -27.6070 N.pl3  21  ARG21      -0.0865
     74  CZ       -29.3660   20.9330  -26.8780 C.cat  21  ARG21       0.5346
     75  NH1      -30.5480   21.4600  -26.5870 N.pl3  21  ARG21       0.1354
     76  NH2      -29.0350   19.7250  -26.4480 N.pl3  21  ARG21       0.1354
     77  N        -21.2750   19.8880  -14.3450 N.3   103  GLU103     -0.1245
     78  CA       -20.4820   18.7140  -13.9830 C.3   103  GLU103      0.1567
     79  C        -20.7660   18.3240  -12.5350 C.2   103  GLU103      0.2260
     80  O        -19.8780   18.2720  -11.6800 O.2   103  GLU103     -0.2867
     81  CB       -18.9860   18.9610  -14.2300 C.3   103  GLU103      0.0388
     82  CG       -18.6550   19.5150  -15.6350 C.3   103  GLU103      0.1160
     83  CD       -18.9880   18.5330  -16.7830 C.2   103  GLU103      0.3649
     84  OE1      -19.6850   17.5250  -16.5620 O.co2 103  GLU103     -0.2457
     85  OE2      -18.5660   18.7820  -17.9220 O.co2 103  GLU103     -0.2457
     86  N        -23.9350   14.2270  -17.2710 N.3   134  ALA134     -0.1245
     87  CA       -24.3360   13.0080  -17.9480 C.3   134  ALA134      0.1562
     88  C        -24.4930   11.8370  -16.9940 C.2   134  ALA134      0.2260
     89  O        -25.1120   10.8420  -17.3720 O.2   134  ALA134     -0.2867
     90  CB       -23.3080   12.6580  -19.0300 C.3   134  ALA134      0.0290
     91  N        -22.4480   11.1710  -29.4250 N.3   147  ASN147     -0.1240
     92  CA       -22.7590   11.8670  -30.6700 C.3   147  ASN147      0.1653
     93  C        -22.4360   11.0140  -31.8920 C.2   147  ASN147      0.2266
     94  O        -23.0590   11.1910  -32.9420 O.2   147  ASN147     -0.2867
     95  CB       -22.0040   13.1920  -30.7350 C.3   147  ASN147      0.1155
     96  CG       -22.6060   14.2500  -29.8290 C.2   147  ASN147      0.2627
     97  OD1      -23.7520   14.1340  -29.3970 O.2   147  ASN147     -0.2716
     98  ND2      -21.8400   15.2950  -29.5470 N.am  147  ASN147     -0.0877
     99  N        -15.2610   17.7590  -17.1730 N.3   232  GLY232     -0.1225
    100  CA       -15.4110   18.8050  -18.1450 C.3   232  GLY232      0.1811
    101  C        -14.3060   18.8680  -19.1700 C.2   232  GLY232      0.2280
    102  O        -14.5340   19.3940  -20.2670 O.2   232  GLY232     -0.2866
    103  N        -12.0380   18.4840  -22.1900 N.3   234  ASN234     -0.1240
    104  CA       -12.3000   17.9450  -23.5200 C.3   234  ASN234      0.1653
    105  C        -11.0250   17.9440  -24.3590 C.2   234  ASN234      0.2266
    106  O        -10.1140   18.7540  -24.1530 O.2   234  ASN234     -0.2867
    107  CB       -13.4320   18.7110  -24.2160 C.3   234  ASN234      0.1155
    108  CG       -14.8260   18.2250  -23.7710 C.2   234  ASN234      0.2627
    109  OD1      -15.1270   17.0210  -23.7970 O.2   234  ASN234     -0.2716
    110  ND2      -15.6640   19.1570  -23.3450 N.am  234  ASN234     -0.0877
    111  N        -17.8580    8.8170  -17.7390 N.3   272  GLN272     -0.1245
    112  CA       -17.2700   10.1300  -17.9780 C.3   272  GLN272      0.1566
    113  C        -15.9740   10.0000  -18.7430 C.2   272  GLN272      0.2260
    114  O        -15.6790   10.8250  -19.6150 O.2   272  GLN272     -0.2867
    115  CB       -17.0310   10.8610  -16.6590 C.3   272  GLN272      0.0367
    116  CG       -18.2910   11.4100  -16.0070 C.3   272  GLN272      0.0905
    117  CD       -18.9430   12.5060  -16.8340 C.2   272  GLN272      0.2608
    118  OE1      -18.3610   13.0160  -17.8110 O.2   272  GLN272     -0.2717
    119  NE2      -20.1660   12.8710  -16.4570 N.am  272  GLN272     -0.0878
    120  N        -15.2110   11.1380  -23.2140 N.3   276  ARG276     -0.1245
    121  CA       -14.3100   12.0890  -23.8550 C.3   276  ARG276      0.1563
    122  C        -14.2600   11.8930  -25.3600 C.2   276  ARG276      0.2260
    123  O        -13.8050   12.7870  -26.0670 O.2   276  ARG276     -0.2867
    124  CB       -12.8720   11.9680  -23.2980 C.3   276  ARG276      0.0307
    125  CG       -12.6710   12.2710  -21.7960 C.3   276  ARG276      0.0489
    126  CD       -13.4010   13.5470  -21.3640 C.3   276  ARG276      0.2205
    127  NE       -14.6620   13.2190  -20.7230 N.pl3 276  ARG276     -0.0865
    128  CZ       -15.7750   13.9300  -20.8480 C.cat 276  ARG276      0.5346
    129  NH1      -15.7960   15.0450  -21.5720 N.pl3 276  ARG276      0.1354
    130  NH2      -16.8660   13.5220  -20.2410 N.pl3 276  ARG276      0.1354
    131  N        -17.5180   12.1850  -29.5870 N.3   279  ARG279     -0.1245
    132  CA       -18.2300   13.4440  -29.3850 C.3   279  ARG279      0.1563
    133  C        -18.5180   14.1930  -30.6700 C.2   279  ARG279      0.2260
    134  O        -19.3620   15.0920  -30.6700 O.2   279  ARG279     -0.2867
    135  CB       -17.4260   14.3570  -28.4600 C.3   279  ARG279      0.0307
    136  CG       -17.1950   13.7680  -27.0930 C.3   279  ARG279      0.0489
    137  CD       -16.4130   14.7160  -26.2360 C.3   279  ARG279      0.2205
    138  NE       -17.1720   15.9060  -25.8690 N.pl3 279  ARG279     -0.0865
    139  CZ       -17.9230   15.9930  -24.7810 C.cat 279  ARG279      0.5346
    140  NH1      -18.0230   14.9440  -23.9870 N.pl3 279  ARG279      0.1354
    141  NH2      -18.5810   17.1140  -24.4980 N.pl3 279  ARG279      0.1354
@<TRIPOS>BOND
     1    94    93    2
     2    93    92    1
     3    95    92    1
     4    95    96    1
     5   134   133    2
     6   133   132    1
     7    92    91    1
     8    96    98   am
     9    96    97    2
    10   131   132    1
    11   132   135    1
    12   135   136    1
    13    72    73    1
    14    72    71    1
    15    73    74    2
    16    29    28    2
    17    62    61    1
    18    62    63    2
    19    71    70    1
    20   136   137    1
    21    18    17   ar
    22    18    16   ar
    23    17    15   ar
    24    65    63    1
    25    61    60    1
    26    74    75    1
    27    74    76    1
    28    70    67    1
    29    63    64    1
    30    33    32    2
    31    28    27    1
    32    28    30   am
    33    59    60    1
    34    59    56    1
    35   137   138    1
    36   123   122    2
    37    32    31    1
    38    32    35   am
    39    31    30    1
    40    31    34    1
    41    58    57    2
    42    27    26    1
    43   138   139    2
    44    16    14   ar
    45    15    14   ar
    46    67    66    1
    47    67    68    1
    48    36    35    1
    49    36    37    1
    50    57    66   am
    51    57    56    1
    52    22    21    2
    53   122   121    1
    54    56    55    1
    55    14    13    1
    56   139   141    1
    57   139   140    1
    58    69    68    2
    59    26    21   am
    60    21    20    1
    61   105   106    2
    62   105   104    1
    63    37    38    2
    64    37    39   am
    65   107   108    1
    66   107   104    1
    67    55    50   am
    68   121   124    1
    69   121   120    1
    70   109   108    2
    71   108   110   am
    72    13    10    1
    73   104   103    1
    74   124   125    1
    75    12    11    2
    76     7     6    1
    77    39    40    1
    78    20    23    1
    79    20    19    1
    80    11    19   am
    81    11    10    1
    82    23    24    1
    83    19    25    1
    84    50    51    2
    85    50    49    1
    86    10     9    1
    87     9     3   am
    88     8     6    1
    89    25    24    1
    90     6     5    1
    91     5     2    1
    92    48    49    1
    93    48    41   am
    94    40    41    1
    95    40    43    1
    96   125   126    1
    97   129   128    1
    98    49    52    1
    99    41    42    2
   100     3     2    1
   101     3     4    2
   102   126   127    1
   103     2     1    1
   104    52    54    1
   105    52    53    1
   106   128   127    2
   107   128   130    1
   108    43    44    1
   109   102   101    2
   110    44    45    1
   111   114   113    2
   112   101   100    1
   113    90    87    1
   114    45    46    1
   115   113   112    1
   116    46    47    1
   117   100    99    1
   118   112   111    1
   119   112   115    1
   120    87    86    1
   121    87    88    1
   122    85    83   ar
   123   118   117    2
   124    89    88    2
   125   117   119   am
   126   117   116    1
   127    83    84   ar
   128    83    82    1
   129   115   116    1
   130    82    81    1
   131    77    78    1
   132    81    78    1
   133    78    79    1
   134    79    80    2
