@<TRIPOS>MOLECULE
tmp/6ae3B00.pdb
 146 137 0 0 0
SMALL
GASTEIGER

@<TRIPOS>ATOM
      1  N         53.3360    9.2170   15.8090 N.3    27  ILE27      -0.1231
      2  CA        52.1560   10.0410   16.0010 C.3    27  ILE27       0.1692
      3  C         51.1980    9.8830   14.8170 C.2    27  ILE27       0.2593
      4  O         50.0960   10.3510   14.8940 O.2    27  ILE27      -0.2718
      5  CB        52.5080   11.5090   16.2760 C.3    27  ILE27       0.0266
      6  CG1       53.1950   12.1740   15.0850 C.3    27  ILE27       0.0019
      7  CG2       53.3160   11.6090   17.5640 C.3    27  ILE27       0.0020
      8  CD1       53.9300   13.4390   15.4520 C.3    27  ILE27       0.0001
      9  N         51.5940    9.1970   13.7410 N.am   28  GLY28      -0.1942
     10  CA        50.6600    9.0430   12.6310 C.3    28  GLY28       0.2014
     11  C         51.1420    8.0850   11.5610 C.2    28  GLY28       0.2639
     12  O         52.3460    7.9800   11.3300 O.2    28  GLY28      -0.2714
     13  N         50.1870    7.3830   10.9310 N.am   29  ASN29      -0.1958
     14  CA        50.4040    6.5960    9.7230 C.3    29  ASN29       0.1819
     15  C         49.5200    7.2010    8.6400 C.2    29  ASN29       0.2621
     16  O         48.3150    7.3720    8.8840 O.2    29  ASN29      -0.2715
     17  CB        50.0770    5.1060    9.8890 C.3    29  ASN29       0.1195
     18  CG        50.9280    4.4460   10.9540 C.2    29  ASN29       0.2630
     19  OD1       52.1330    4.2680   10.7780 O.2    29  ASN29      -0.2716
     20  ND2       50.3200    4.0920   12.0720 N.am   29  ASN29      -0.0877
     21  N         50.1380    7.5180    7.4890 N.am   30  GLY30      -0.1954
     22  CA        49.4800    8.1170    6.3040 C.3    30  GLY30       0.1869
     23  C         49.7370    7.3180    5.0370 C.2    30  GLY30       0.2309
     24  O         50.3000    6.1840    5.0880 O.2    30  GLY30      -0.2863
     25  N         51.6630    8.1930    2.5750 N.3    32  PHE32      -0.1241
     26  CA        53.1000    8.3450    2.2990 C.3    32  PHE32       0.1605
     27  C         53.9680    7.4270    3.1710 C.2    32  PHE32       0.2264
     28  O         55.0800    7.1210    2.7810 O.2    32  PHE32      -0.2867
     29  CB        53.5450    9.7800    2.5590 C.3    32  PHE32       0.0534
     30  CG        53.1230   10.3350    3.8910 C.ar   32  PHE32      -0.0203
     31  CD1       53.8820   10.1180    5.0310 C.ar   32  PHE32      -0.0042
     32  CD2       51.9460   11.0520    4.0090 C.ar   32  PHE32      -0.0042
     33  CE1       53.4700   10.6040    6.2640 C.ar   32  PHE32      -0.0003
     34  CE2       51.5490   11.5650    5.2350 C.ar   32  PHE32      -0.0003
     35  CZ        52.3100   11.3430    6.3640 C.ar   32  PHE32      -0.0000
     36  N         54.7030    9.0660   10.5040 N.3    35  VAL35      -0.1245
     37  CA        55.2690   10.2680   11.1000 C.3    35  VAL35       0.1561
     38  C         55.5640    9.9800   12.5790 C.2    35  VAL35       0.2260
     39  O         54.7060    9.5140   13.2940 O.2    35  VAL35      -0.2867
     40  CB        54.3480   11.4910   10.9230 C.3    35  VAL35       0.0252
     41  CG1       54.9740   12.7700   11.4500 C.3    35  VAL35       0.0019
     42  CG2       53.9570   11.6830    9.4770 C.3    35  VAL35       0.0019
     43  N         59.6670   16.4330   14.7560 N.3    48  ALA48      -0.1245
     44  CA        58.8690   15.4360   14.0970 C.3    48  ALA48       0.1562
     45  C         59.7520   14.7430   13.0510 C.2    48  ALA48       0.2260
     46  O         60.6620   15.3660   12.4790 O.2    48  ALA48      -0.2867
     47  CB        57.6690   16.0880   13.4550 C.3    48  ALA48       0.0290
     48  N         59.1560   12.5910    9.6050 N.3    50  LYS50      -0.1245
     49  CA        58.1960   12.1620    8.5970 C.3    50  LYS50       0.1561
     50  C         58.9260   11.2220    7.6420 C.2    50  LYS50       0.2260
     51  O         59.8210   11.6480    6.9310 O.2    50  LYS50      -0.2867
     52  CB        57.6070   13.3960    7.9020 C.3    50  LYS50       0.0271
     53  CG        56.7570   13.0850    6.6800 C.3    50  LYS50       0.0035
     54  CD        56.1560   14.2880    6.0050 C.3    50  LYS50       0.0206
     55  CE        54.9990   13.8960    5.1030 C.3    50  LYS50       0.1093
     56  NZ        54.5170   15.0510    4.3020 N.3    50  LYS50      -0.1314
     57  N         59.2270   16.7710   -2.6710 N.3    60  GLU60      -0.1245
     58  CA        58.9700   17.4220   -1.3830 C.3    60  GLU60       0.1567
     59  C         60.2950   17.8090   -0.7200 C.2    60  GLU60       0.2260
     60  O         60.3800   18.9000   -0.1770 O.2    60  GLU60      -0.2867
     61  CB        58.1120   16.5110   -0.5050 C.3    60  GLU60       0.0388
     62  CG        58.0840   16.8790    0.9600 C.3    60  GLU60       0.1160
     63  CD        57.0820   16.0550    1.7730 C.2    60  GLU60       0.3649
     64  OE1       56.5980   14.9690    1.2790 O.co2  60  GLU60      -0.2457
     65  OE2       56.7500   16.5140    2.8920 O.co2  60  GLU60      -0.2457
     66  N         56.9990   24.9830    8.6130 N.3    73  VAL73      -0.1245
     67  CA        57.7090   23.9380    9.3390 C.3    73  VAL73       0.1561
     68  C         59.0940   23.7830    8.7230 C.2    73  VAL73       0.2260
     69  O         59.2030   23.5890    7.5410 O.2    73  VAL73      -0.2867
     70  CB        56.9030   22.6340    9.2950 C.3    73  VAL73       0.0252
     71  CG1       57.8050   21.4360    9.3600 C.3    73  VAL73       0.0019
     72  CG2       55.8970   22.6290   10.4330 C.3    73  VAL73       0.0019
     73  N         61.8000   17.5630   11.1360 N.3    94  LEU94      -0.1231
     74  CA        61.0210   18.8010   10.9810 C.3    94  LEU94       0.1693
     75  C         60.7340   19.4120   12.3470 C.2    94  LEU94       0.2592
     76  O         60.6420   18.7000   13.3260 O.2    94  LEU94      -0.2718
     77  CB        59.7190   18.4600   10.2520 C.3    94  LEU94       0.0284
     78  CG        59.8930   17.9430    8.8320 C.3    94  LEU94       0.0019
     79  CD1       58.7560   17.0140    8.4290 C.3    94  LEU94       0.0001
     80  CD2       59.9940   19.0790    7.8640 C.3    94  LEU94       0.0001
     81  N         60.4900   20.7300   12.3660 N.am   95  ASP95      -0.1960
     82  CA        59.8810   21.3940   13.5360 C.3    95  ASP95       0.1840
     83  C         58.6460   20.6090   13.9990 C.2    95  ASP95       0.2622
     84  O         57.8730   20.1710   13.1810 O.2    95  ASP95      -0.2715
     85  CB        59.3900   22.8180   13.2560 C.3    95  ASP95       0.1450
     86  CG        60.4480   23.8180   12.8210 C.2    95  ASP95       0.3671
     87  OD1       61.6580   23.5570   13.0350 O.co2  95  ASP95      -0.2456
     88  OD2       60.0480   24.8420   12.2420 O.co2  95  ASP95      -0.2456
     89  N         58.4740   20.4760   15.3100 N.am   96  TYR96      -0.1960
     90  CA        57.3290   19.8670   15.8810 C.3    96  TYR96       0.1771
     91  C         56.4060   20.9620   16.4070 C.2    96  TYR96       0.2619
     92  O         56.8580   21.8470   17.0950 O.2    96  TYR96      -0.2715
     93  CB        57.6580   18.9610   17.0630 C.3    96  TYR96       0.0574
     94  CG        56.4120   18.4530   17.7470 C.ar   96  TYR96      -0.0198
     95  CD1       55.5800   17.5540   17.1020 C.ar   96  TYR96      -0.0009
     96  CD2       56.0210   18.9250   18.9910 C.ar   96  TYR96      -0.0009
     97  CE1       54.4040   17.1050   17.6820 C.ar   96  TYR96       0.0417
     98  CE2       54.8490   18.4850   19.5940 C.ar   96  TYR96       0.0417
     99  CZ        54.0460   17.5680   18.9360 C.ar   96  TYR96       0.1957
    100  OH        52.9020   17.0910   19.4910 O.3    96  TYR96      -0.2866
    101  N         55.1210   20.8710   16.0620 N.am   97  VAL97      -0.1977
    102  CA        54.1100   21.7880   16.5330 C.3    97  VAL97       0.1596
    103  C         52.9600   20.9280   17.0310 C.2    97  VAL97       0.2287
    104  O         52.5910   19.9810   16.3610 O.2    97  VAL97      -0.2864
    105  CB        53.6960   22.7300   15.3850 C.3    97  VAL97       0.0276
    106  CG1       52.7890   23.8640   15.8300 C.3    97  VAL97       0.0022
    107  CG2       54.9190   23.3000   14.6710 C.3    97  VAL97       0.0022
    108  N         43.8820   21.0740    8.3810 N.3   147  GLN147     -0.1231
    109  CA        44.7220   19.9670    8.8740 C.3   147  GLN147      0.1698
    110  C         46.2180   20.2970    8.7080 C.2   147  GLN147      0.2592
    111  O         47.0260   19.8610    9.5370 O.2   147  GLN147     -0.2718
    112  CB        44.3020   18.6840    8.1570 C.3   147  GLN147      0.0381
    113  CG        45.2990   17.5180    8.2200 C.3   147  GLN147      0.0905
    114  CD        44.8440   16.2950    7.4290 C.2   147  GLN147      0.2608
    115  OE1       43.6790   15.9150    7.4410 O.2   147  GLN147     -0.2717
    116  NE2       45.7580   15.6680    6.7120 N.am  147  GLN147     -0.0878
    117  N         46.5800   21.0830    7.6840 N.am  148  ASN148     -0.1974
    118  CA        47.9710   21.3400    7.3150 C.3   148  ASN148      0.1688
    119  C         48.4620   22.6450    7.9470 C.2   148  ASN148      0.2292
    120  O         49.5730   23.0870    7.6200 O.2   148  ASN148     -0.2864
    121  CB        48.1320   21.3170    5.7830 C.3   148  ASN148      0.1181
    122  CG        48.0260   19.8940    5.2660 C.2   148  ASN148      0.2629
    123  OD1       48.1990   18.9210    6.0270 O.2   148  ASN148     -0.2716
    124  ND2       47.6680   19.7550    4.0040 N.am  148  ASN148     -0.0877
    125  N         49.6500   24.1040   11.3340 N.3   150  LEU150     -0.1245
    126  CA        50.0050   23.6990   12.6990 C.3   150  LEU150      0.1561
    127  C         50.0040   24.9450   13.5770 C.2   150  LEU150      0.2260
    128  O         50.3350   26.0390   13.1100 O.2   150  LEU150     -0.2867
    129  CB        51.3650   22.9930   12.7190 C.3   150  LEU150      0.0270
    130  CG        51.4750   21.7780   11.8010 C.3   150  LEU150      0.0019
    131  CD1       52.8520   21.1220   11.8960 C.3   150  LEU150      0.0001
    132  CD2       50.3560   20.7820   12.0570 C.3   150  LEU150      0.0001
    133  N         52.5040   23.2130    6.9750 N.3   161  CYS161     -0.1221
    134  CA        53.2170   21.9180    6.8540 C.3   161  CYS161      0.1808
    135  C         52.7050   21.1370    5.6270 C.2   161  CYS161      0.2601
    136  O         51.8370   21.6290    4.8910 O.2   161  CYS161     -0.2717
    137  CB        53.0920   21.1070    8.1350 C.3   161  CYS161      0.0970
    138  SG        51.4850   20.2620    8.3090 S.3   161  CYS161     -0.0800
    139  N         53.2780   19.9450    5.4050 N.am  162  ASP162     -0.1973
    140  CA        52.8650   18.9400    4.4020 C.3   162  ASP162      0.1709
    141  C         53.0410   19.4380    2.9600 C.2   162  ASP162      0.2293
    142  O         52.0820   19.6740    2.2280 O.2   162  ASP162     -0.2864
    143  CB        51.4380   18.4010    4.5710 C.3   162  ASP162      0.1436
    144  CG        51.1700   17.2330    3.6030 C.2   162  ASP162      0.3671
    145  OD1       52.1390   16.8120    2.8960 O.co2 162  ASP162     -0.2456
    146  OD2       50.0190   16.7570    3.5290 O.co2 162  ASP162     -0.2456
@<TRIPOS>BOND
     1    57    58    1
     2    58    59    1
     3    58    61    1
     4    59    60    2
     5    61    62    1
     6    62    63    1
     7    64    63   ar
     8    63    65   ar
     9   142   141    2
    10    26    29    1
    11    26    25    1
    12    26    27    1
    13    29    30    1
    14    28    27    2
    15   145   144   ar
    16   141   140    1
    17   146   144   ar
    18   144   143    1
    19    30    32   ar
    20    30    31   ar
    21   124   122   am
    22    32    34   ar
    23    56    55    1
    24   140   143    1
    25   140   139    1
    26   136   135    2
    27    31    33   ar
    28    23    24    2
    29    23    22    1
    30    55    54    1
    31    34    35   ar
    32   122   121    1
    33   122   123    2
    34   139   135   am
    35   135   134    1
    36   121   118    1
    37    54    53    1
    38    33    35   ar
    39    22    21    1
    40    53    52    1
    41   116   114   am
    42   134   133    1
    43   134   137    1
    44    51    50    2
    45   118   117    1
    46   118   119    1
    47   114   115    2
    48   114   113    1
    49    21    15   am
    50    69    68    2
    51   120   119    2
    52    50    49    1
    53   117   110   am
    54    80    78    1
    55    52    49    1
    56   137   138    1
    57   112   113    1
    58   112   109    1
    59   108   109    1
    60    79    78    1
    61    49    48    1
    62    66    67    1
    63    15    16    2
    64    15    14    1
    65   110   109    1
    66   110   111    2
    67    68    67    1
    68    78    77    1
    69    70    67    1
    70    70    71    1
    71    70    72    1
    72    42    40    1
    73    14    17    1
    74    14    13    1
    75    17    18    1
    76    77    74    1
    77    36    37    1
    78    19    18    2
    79    40    37    1
    80    40    41    1
    81    13    11   am
    82    18    20   am
    83    74    73    1
    84    74    75    1
    85    37    38    1
    86    12    11    2
    87   125   126    1
    88    11    10    1
    89   130   131    1
    90   130   132    1
    91   130   129    1
    92    88    86   ar
    93    75    81   am
    94    75    76    2
    95    81    82    1
    96    46    45    2
    97    38    39    2
    98    10     9    1
    99   126   129    1
   100   126   127    1
   101    86    87   ar
   102    86    85    1
   103    45    44    1
   104   128   127    2
   105    84    83    2
   106    85    82    1
   107    47    44    1
   108    82    83    1
   109     9     3   am
   110    83    89   am
   111    44    43    1
   112   107   105    1
   113     3     4    2
   114     3     2    1
   115     6     8    1
   116     6     5    1
   117    89    90    1
   118   105   106    1
   119   105   102    1
   120     1     2    1
   121    90    91    1
   122    90    93    1
   123     2     5    1
   124   101    91   am
   125   101   102    1
   126     5     7    1
   127   104   103    2
   128    91    92    2
   129   102   103    1
   130    93    94    1
   131    95    97   ar
   132    95    94   ar
   133    97    99   ar
   134    94    96   ar
   135    99   100    1
   136    99    98   ar
   137    96    98   ar
