@<TRIPOS>MOLECULE
tmp/6ae9B00.pdb
 115 109 0 0 0
SMALL
GASTEIGER

@<TRIPOS>ATOM
      1  N         12.4220   14.5790   19.2290 N.3    39  VAL39      -0.1245
      2  CA        13.2540   13.4200   19.5610 C.3    39  VAL39       0.1561
      3  C         12.4100   12.3460   20.2420 C.2    39  VAL39       0.2260
      4  O         11.7390   12.6110   21.2470 O.2    39  VAL39      -0.2867
      5  CB        14.4440   13.8410   20.4390 C.3    39  VAL39       0.0252
      6  CG1       15.2390   12.6130   20.8770 C.3    39  VAL39       0.0019
      7  CG2       15.3390   14.8170   19.6930 C.3    39  VAL39       0.0019
      8  N         12.7840    9.9370   22.2730 N.3    41  GLY41      -0.1210
      9  CA        12.9530    9.4890   23.6580 C.3    41  GLY41       0.1956
     10  C         12.0260   10.1290   24.6920 C.2    41  GLY41       0.2611
     11  O         11.9430    9.6130   25.8150 O.2    41  GLY41      -0.2717
     12  N         11.3300   11.2220   24.3590 N.am   42  TRP42      -0.1976
     13  CA        10.5980   11.9790   25.3770 C.3    42  TRP42       0.1640
     14  C          9.3360   11.2860   25.8780 C.2    42  TRP42       0.2290
     15  O          8.8140   11.6740   26.9310 O.2    42  TRP42      -0.2864
     16  CB        10.2560   13.3830   24.8790 C.3    42  TRP42       0.0576
     17  CG        11.4360   14.2770   24.8800 C.ar   42  TRP42       0.0006
     18  CD1       12.2960   14.4920   23.8450 C.ar   42  TRP42       0.0946
     19  CD2       11.9200   15.0650   25.9730 C.ar   42  TRP42       0.0152
     20  NE1       13.2750   15.3700   24.2180 N.ar   42  TRP42      -0.2442
     21  CE2       13.0680   15.7420   25.5200 C.ar   42  TRP42       0.0810
     22  CE3       11.4860   15.2750   27.2870 C.ar   42  TRP42       0.0012
     23  CZ2       13.7920   16.6110   26.3310 C.ar   42  TRP42       0.0191
     24  CZ3       12.2050   16.1420   28.0910 C.ar   42  TRP42       0.0001
     25  CH2       13.3470   16.7980   27.6090 C.ar   42  TRP42       0.0015
     26  N          9.2870   10.2490   29.5140 N.3    45  LYS45      -0.1245
     27  CA         9.0650   11.2530   30.5460 C.3    45  LYS45       0.1561
     28  C          7.5980   11.6280   30.6610 C.2    45  LYS45       0.2260
     29  O          7.2580   12.5880   31.3600 O.2    45  LYS45      -0.2867
     30  CB         9.9090   12.5010   30.2400 C.3    45  LYS45       0.0271
     31  CG        10.0040   13.5580   31.3530 C.3    45  LYS45       0.0035
     32  CD        10.9560   14.6760   30.9430 C.3    45  LYS45       0.0206
     33  CE        11.0720   15.7520   32.0120 C.3    45  LYS45       0.1093
     34  NZ        11.4910   15.1840   33.3230 N.3    45  LYS45      -0.1314
     35  N          6.1610   12.9120   28.2030 N.3    47  VAL47      -0.1245
     36  CA         6.2220   14.1390   27.4220 C.3    47  VAL47       0.1561
     37  C          5.9570   13.7850   25.9660 C.2    47  VAL47       0.2260
     38  O          6.5040   12.8090   25.4400 O.2    47  VAL47      -0.2867
     39  CB         7.5840   14.8540   27.5780 C.3    47  VAL47       0.0252
     40  CG1        7.7230   15.9930   26.5690 C.3    47  VAL47       0.0019
     41  CG2        7.7570   15.3770   28.9990 C.3    47  VAL47       0.0019
     42  N          8.1530   21.5330   26.8350 N.3    87  VAL87      -0.1245
     43  CA         9.1830   20.5710   27.1980 C.3    87  VAL87       0.1561
     44  C          9.4360   19.6290   26.0280 C.2    87  VAL87       0.2260
     45  O          8.4980   19.1400   25.3840 O.2    87  VAL87      -0.2867
     46  CB         8.7560   19.8030   28.4600 C.3    87  VAL87       0.0252
     47  CG1        9.7520   18.7150   28.7820 C.3    87  VAL87       0.0019
     48  CG2        8.6010   20.7680   29.6290 C.3    87  VAL87       0.0019
     49  N         26.1990   13.1800   19.0610 N.3   129  HIS129     -0.1226
     50  CA        27.0650   12.8820   20.1960 C.3   129  HIS129      0.1752
     51  C         27.6280   11.4740   20.1050 C.2   129  HIS129      0.2596
     52  O         28.7620   11.2310   20.5350 O.2   129  HIS129     -0.2718
     53  CB        26.2700   13.0460   21.4860 C.3   129  HIS129      0.0759
     54  CG        25.7090   14.4210   21.6650 C.ar  129  HIS129      0.0818
     55  ND1       26.4940   15.5040   21.9990 N.ar  129  HIS129     -0.2268
     56  CD2       24.4480   14.8950   21.5280 C.ar  129  HIS129      0.1154
     57  CE1       25.7350   16.5840   22.0770 C.ar  129  HIS129      0.1986
     58  NE2       24.4900   16.2420   21.7920 N.ar  129  HIS129     -0.2212
     59  N         26.8430   10.5510   19.5690 N.am  130  TYR130     -0.1976
     60  CA        27.2380    9.1850   19.2400 C.3   130  TYR130      0.1639
     61  C         26.1180    8.6500   18.3560 C.2   130  TYR130      0.2290
     62  O         25.1520    9.3650   18.0720 O.2   130  TYR130     -0.2864
     63  CB        27.4940    8.3390   20.4920 C.3   130  TYR130      0.0560
     64  CG        26.3690    8.3430   21.4940 C.ar  130  TYR130     -0.0198
     65  CD1       25.3320    7.4240   21.4060 C.ar  130  TYR130     -0.0009
     66  CD2       26.3380    9.2700   22.5270 C.ar  130  TYR130     -0.0009
     67  CE1       24.3010    7.4200   22.3210 C.ar  130  TYR130      0.0417
     68  CE2       25.3110    9.2750   23.4470 C.ar  130  TYR130      0.0417
     69  CZ        24.2950    8.3480   23.3400 C.ar  130  TYR130      0.1957
     70  OH        23.2660    8.3530   24.2540 O.3   130  TYR130     -0.2866
     71  N         20.7770   18.4690   19.4100 N.3   135  GLN135     -0.1245
     72  CA        19.3570   18.7880   19.4430 C.3   135  GLN135      0.1566
     73  C         19.1470   20.0280   20.2910 C.2   135  GLN135      0.2260
     74  O         19.8380   20.2250   21.2920 O.2   135  GLN135     -0.2867
     75  CB        18.5470   17.6130   20.0140 C.3   135  GLN135      0.0367
     76  CG        19.0630   17.0890   21.3640 C.3   135  GLN135      0.0905
     77  CD        18.5140   15.7130   21.7080 C.2   135  GLN135      0.2608
     78  OE1       17.4930   15.5960   22.3840 O.2   135  GLN135     -0.2717
     79  NE2       19.1820   14.6650   21.2330 N.am  135  GLN135     -0.0878
     80  N         16.7410   21.9720   22.8810 N.3   137  SER137     -0.1217
     81  CA        15.9280   21.3560   23.9200 C.3   137  SER137      0.1889
     82  C         15.4270   22.3950   24.9080 C.2   137  SER137      0.2288
     83  O         15.8990   23.5350   24.9540 O.2   137  SER137     -0.2866
     84  CB        16.7320   20.2980   24.6820 C.3   137  SER137      0.2089
     85  OG        15.9490   19.6990   25.7010 O.3   137  SER137     -0.2183
     86  N         16.0070   21.4820   27.9060 N.3   139  GLU139     -0.1245
     87  CA        16.9340   21.1310   28.9730 C.3   139  GLU139      0.1567
     88  C         18.3150   21.7150   28.6980 C.2   139  GLU139      0.2260
     89  O         18.7450   21.8200   27.5460 O.2   139  GLU139     -0.2867
     90  CB        17.0440   19.6090   29.1160 C.3   139  GLU139      0.0388
     91  CG        15.7040   18.9140   29.2900 C.3   139  GLU139      0.1160
     92  CD        14.8340   19.5890   30.3330 C.2   139  GLU139      0.3649
     93  OE1       13.7390   20.0790   29.9760 O.co2 139  GLU139     -0.2457
     94  OE2       15.2490   19.6320   31.5100 O.co2 139  GLU139     -0.2457
     95  N         21.1520   20.4750   29.0220 N.3   141  ILE141     -0.1231
     96  CA        22.1000   19.5490   28.4100 C.3   141  ILE141      0.1692
     97  C         22.0550   19.5680   26.8860 C.2   141  ILE141      0.2593
     98  O         22.9790   19.0660   26.2390 O.2   141  ILE141     -0.2718
     99  CB        21.8960   18.1360   28.9970 C.3   141  ILE141      0.0266
    100  CG1       23.1250   17.2540   28.7460 C.3   141  ILE141      0.0019
    101  CG2       20.6180   17.5060   28.4500 C.3   141  ILE141      0.0020
    102  CD1       23.0920   15.9360   29.4940 C.3   141  ILE141      0.0001
    103  N         21.0150   20.1400   26.2910 N.am  142  GLY142     -0.1942
    104  CA        20.9340   20.2090   24.8460 C.3   142  GLY142      0.2014
    105  C         21.8760   21.2500   24.2570 C.2   142  GLY142      0.2638
    106  O         22.6510   21.9240   24.9410 O.2   142  GLY142     -0.2714
    107  N         21.7900   21.3790   22.9350 N.am  143  GLN143     -0.1977
    108  CA        22.6300   22.2890   22.1750 C.3   143  GLN143      0.1601
    109  C         21.9330   23.6400   21.9990 C.2   143  GLN143      0.2287
    110  O         20.7650   23.8210   22.3540 O.2   143  GLN143     -0.2864
    111  CB        22.9660   21.6700   20.8130 C.3   143  GLN143      0.0394
    112  CG        24.0720   20.6100   20.8580 C.3   143  GLN143      0.0908
    113  CD        23.7580   19.4680   21.8160 C.2   143  GLN143      0.2608
    114  OE1       22.9020   18.6250   21.5480 O.2   143  GLN143     -0.2717
    115  NE2       24.4510   19.4440   22.9510 N.am  143  GLN143     -0.0878
@<TRIPOS>BOND
     1    62    61    2
     2    61    60    1
     3    49    50    1
     4     1     2    1
     5    60    59    1
     6    60    63    1
     7    71    72    1
     8    72    75    1
     9    72    73    1
    10     2     3    1
    11     2     5    1
    12    59    51   am
    13     7     5    1
    14    75    76    1
    15    51    50    1
    16    51    52    2
    17    50    53    1
    18     3     4    2
    19    73    74    2
    20     5     6    1
    21    63    64    1
    22   111   112    1
    23   111   108    1
    24   112   113    1
    25    79    77   am
    26    76    77    1
    27    65    64   ar
    28    65    67   ar
    29    53    54    1
    30    64    66   ar
    31    56    54   ar
    32    56    58   ar
    33   114   113    2
    34    54    55   ar
    35    77    78    2
    36    58    57   ar
    37   113   115   am
    38    55    57   ar
    39   109   108    1
    40   109   110    2
    41   108   107    1
    42     8     9    1
    43    67    69   ar
    44    66    68   ar
    45    80    81    1
    46   107   105   am
    47    69    68   ar
    48    69    70    1
    49     9    10    1
    50    18    20   ar
    51    18    17   ar
    52    81    84    1
    53    81    82    1
    54    20    21   ar
    55   105   104    1
    56   105   106    2
    57    12    10   am
    58    12    13    1
    59    84    85    1
    60    10    11    2
    61   104   103    1
    62    16    17    1
    63    16    13    1
    64    17    19   ar
    65    82    83    2
    66    13    14    1
    67    45    44    2
    68    38    37    2
    69    21    19   ar
    70    21    23   ar
    71    14    15    2
    72    37    36    1
    73    19    22   ar
    74    44    43    1
    75    98    97    2
    76   103    97   am
    77    23    25   ar
    78    40    39    1
    79    42    43    1
    80    97    96    1
    81    43    46    1
    82    22    24   ar
    83    36    39    1
    84    36    35    1
    85    89    88    2
    86    39    41    1
    87    25    24   ar
    88    86    87    1
    89    96    99    1
    90    96    95    1
    91   101    99    1
    92    46    47    1
    93    46    48    1
    94    88    87    1
    95   100    99    1
    96   100   102    1
    97    87    90    1
    98    90    91    1
    99    91    92    1
   100    26    27    1
   101    93    92   ar
   102    30    27    1
   103    30    31    1
   104    92    94   ar
   105    27    28    1
   106    28    29    2
   107    32    31    1
   108    32    33    1
   109    33    34    1
