@<TRIPOS>MOLECULE
tmp/6aekA04.pdb
 188 184 0 0 0
SMALL
GASTEIGER

@<TRIPOS>ATOM
      1  N         24.6530   -0.7390   28.0530 N.3    31  ASP31      -0.1239
      2  CA        23.8230    0.3740   27.5970 C.3    31  ASP31       0.1674
      3  C         24.6870    1.4830   27.0120 C.2    31  ASP31       0.2266
      4  O         25.7020    1.8680   27.5960 O.2    31  ASP31      -0.2867
      5  CB        22.9670    0.9150   28.7510 C.3    31  ASP31       0.1410
      6  CG        21.8060    1.7580   28.2540 C.2    31  ASP31       0.3668
      7  OD1       22.0670    2.6500   27.4380 O.co2  31  ASP31      -0.2456
      8  OD2       20.6480    1.5200   28.6610 O.co2  31  ASP31      -0.2456
      9  N         16.7650    5.0050   21.6210 N.3    68  LYS68      -0.1231
     10  CA        16.5910    5.0910   23.0720 C.3    68  LYS68       0.1693
     11  C         16.5740    3.6930   23.6840 C.2    68  LYS68       0.2592
     12  O         16.3570    2.7040   22.9870 O.2    68  LYS68      -0.2718
     13  CB        15.2810    5.7930   23.4410 C.3    68  LYS68       0.0285
     14  CG        15.1450    7.2110   22.8790 C.3    68  LYS68       0.0035
     15  CD        16.2520    8.0910   23.4080 C.3    68  LYS68       0.0206
     16  CE        15.8540    8.7580   24.7100 C.3    68  LYS68       0.1093
     17  NZ        14.6170    9.5870   24.5590 N.3    68  LYS68      -0.1314
     18  N         16.7620    3.6240   25.0140 N.am   69  ALA69      -0.1966
     19  CA        16.9690    2.3300   25.6730 C.3    69  ALA69       0.1728
     20  C         15.7670    1.4070   25.5260 C.2    69  ALA69       0.2616
     21  O         15.9110    0.2430   25.1300 O.2    69  ALA69      -0.2715
     22  CB        17.2850    2.5190   27.1650 C.3    69  ALA69       0.0334
     23  N         14.5790    1.8780   25.9140 N.am   70  PHE70      -0.1974
     24  CA        13.4510    0.9520   26.0100 C.3    70  PHE70       0.1639
     25  C         12.9730    0.4900   24.6370 C.2    70  PHE70       0.2290
     26  O         12.7760   -0.7250   24.4560 O.2    70  PHE70      -0.2864
     27  CB        12.3250    1.5630   26.8530 C.3    70  PHE70       0.0560
     28  CG        12.1710    0.9060   28.2200 C.ar   70  PHE70      -0.0200
     29  CD1       13.2300    0.8750   29.1100 C.ar   70  PHE70      -0.0042
     30  CD2       10.9700    0.3230   28.5970 C.ar   70  PHE70      -0.0042
     31  CE1       13.0980    0.2570   30.3590 C.ar   70  PHE70      -0.0003
     32  CE2       10.8280   -0.2910   29.8520 C.ar   70  PHE70      -0.0003
     33  CZ        11.8940   -0.3290   30.7220 C.ar   70  PHE70      -0.0000
     34  N         16.0230   -2.0640   23.4520 N.3    73  HIS73      -0.1241
     35  CA        16.1010   -3.3380   24.1700 C.3    73  HIS73       0.1621
     36  C         14.8990   -4.2190   23.8400 C.2    73  HIS73       0.2264
     37  O         15.0370   -5.4360   23.6370 O.2    73  HIS73      -0.2867
     38  CB        16.1850   -3.1210   25.6860 C.3    73  HIS73       0.0745
     39  CG        17.5410   -2.7120   26.1810 C.ar   73  HIS73       0.0817
     40  ND1       17.9360   -1.3960   26.2710 N.ar   73  HIS73      -0.2268
     41  CD2       18.5800   -3.4480   26.6450 C.ar   73  HIS73       0.1154
     42  CE1       19.1650   -1.3400   26.7610 C.ar   73  HIS73       0.1986
     43  NE2       19.5800   -2.5730   26.9940 N.ar   73  HIS73      -0.2212
     44  N         11.1260    5.9340   25.8340 N.3    90  ASN90      -0.1240
     45  CA        11.1560    5.7780   27.2880 C.3    90  ASN90       0.1653
     46  C         10.0030    6.5040   27.9680 C.2    90  ASN90       0.2266
     47  O          9.6430    6.1560   29.0970 O.2    90  ASN90      -0.2867
     48  CB        12.4730    6.2960   27.8570 C.3    90  ASN90       0.1155
     49  CG        13.6730    5.5480   27.3300 C.2    90  ASN90       0.2627
     50  OD1       13.5610    4.4360   26.8170 O.2    90  ASN90      -0.2716
     51  ND2       14.8440    6.1530   27.4720 N.am   90  ASN90      -0.0877
     52  N          9.8610    5.5820   32.9260 N.3   103  LEU103     -0.1231
     53  CA        10.6730    4.5120   33.5090 C.3   103  LEU103      0.1693
     54  C         10.6820    4.5400   35.0270 C.2   103  LEU103      0.2591
     55  O         10.9910    3.5180   35.6490 O.2   103  LEU103     -0.2718
     56  CB        12.1170    4.5750   33.0040 C.3   103  LEU103      0.0284
     57  CG        12.3060    4.5130   31.4780 C.3   103  LEU103      0.0019
     58  CD1       13.7760    4.3950   31.0950 C.3   103  LEU103      0.0001
     59  CD2       11.5070    3.3820   30.8630 C.3   103  LEU103      0.0001
     60  N         10.3860    5.6840   35.6340 N.am  104  LYS104     -0.1980
     61  CA        10.3850    5.8210   37.0810 C.3   104  LYS104      0.1596
     62  C          8.9720    5.8910   37.6440 C.2   104  LYS104      0.2287
     63  O          8.7680    6.4280   38.7370 O.2   104  LYS104     -0.2864
     64  CB        11.1910    7.0520   37.4940 C.3   104  LYS104      0.0298
     65  CG        12.6640    7.1250   37.1030 C.3   104  LYS104      0.0038
     66  CD        13.3230    6.0120   37.8330 C.3   104  LYS104      0.0206
     67  CE        14.7310    6.0690   37.1880 C.3   104  LYS104      0.1093
     68  NZ        15.2360    4.6890   37.1230 N.3   104  LYS104     -0.1314
     69  N          5.3070    1.6740   34.2700 N.3   108  LYS108     -0.1245
     70  CA         6.2900    0.7980   33.6420 C.3   108  LYS108      0.1561
     71  C          5.8960   -0.6720   33.7530 C.2   108  LYS108      0.2260
     72  O          6.2360   -1.4740   32.8720 O.2   108  LYS108     -0.2867
     73  CB         7.6660    1.0130   34.2640 C.3   108  LYS108      0.0271
     74  CG         8.7960    0.5050   33.3870 C.3   108  LYS108      0.0035
     75  CD        10.0180    0.1280   34.2000 C.3   108  LYS108      0.0206
     76  CE         9.8390   -1.2230   34.8820 C.3   108  LYS108      0.1093
     77  NZ        11.0980   -1.6750   35.5440 N.3   108  LYS108     -0.1314
     78  N         17.5090   -8.1380   34.7920 N.3   134  PHE134     -0.1227
     79  CA        17.1830   -6.8590   34.1720 C.3   134  PHE134      0.1736
     80  C         17.1030   -7.0120   32.6560 C.2   134  PHE134      0.2595
     81  O         17.9680   -7.6300   32.0160 O.2   134  PHE134     -0.2718
     82  CB        18.1810   -5.7510   34.5430 C.3   134  PHE134      0.0547
     83  CG        18.3220   -5.4910   36.0380 C.ar  134  PHE134     -0.0202
     84  CD1       17.3840   -5.9570   36.9560 C.ar  134  PHE134     -0.0042
     85  CD2       19.3990   -4.7530   36.5090 C.ar  134  PHE134     -0.0042
     86  CE1       17.5360   -5.6970   38.3300 C.ar  134  PHE134     -0.0003
     87  CE2       19.5550   -4.4930   37.8680 C.ar  134  PHE134     -0.0003
     88  CZ        18.6230   -4.9670   38.7830 C.ar  134  PHE134     -0.0000
     89  N         16.0300   -6.4850   32.1020 N.am  135  TRP135     -0.1963
     90  CA        15.7770   -6.2650   30.6860 C.3   135  TRP135      0.1756
     91  C         14.4220   -5.5850   30.6170 C.2   135  TRP135      0.2461
     92  O         13.4800   -6.0230   31.2920 O.2   135  TRP135     -0.2730
     93  CB        15.7860   -7.5660   29.8680 C.3   135  TRP135      0.0590
     94  CG        16.0460   -7.2680   28.4280 C.ar  135  TRP135      0.0006
     95  CD1       15.1240   -6.9390   27.4830 C.ar  135  TRP135      0.0946
     96  CD2       17.3240   -7.2280   27.7770 C.ar  135  TRP135      0.0152
     97  NE1       15.7430   -6.7030   26.2770 N.ar  135  TRP135     -0.2442
     98  CE2       17.0940   -6.8760   26.4330 C.ar  135  TRP135      0.0810
     99  CE3       18.6400   -7.4550   28.2020 C.ar  135  TRP135      0.0012
    100  CZ2       18.1260   -6.7550   25.5030 C.ar  135  TRP135      0.0191
    101  CZ3       19.6660   -7.3420   27.2770 C.ar  135  TRP135      0.0001
    102  CH2       19.4010   -6.9900   25.9440 C.ar  135  TRP135      0.0015
    103  N         14.2910   -4.4960   29.8640 N.am  136  PRO136     -0.2727
    104  CA        12.9730   -3.8790   29.6790 C.3   136  PRO136      0.1402
    105  C         11.9280   -4.9140   29.2840 C.2   136  PRO136      0.2269
    106  O         12.1380   -5.7250   28.3790 O.2   136  PRO136     -0.2865
    107  CB        13.2240   -2.8510   28.5680 C.3   136  PRO136      0.0296
    108  CG        14.6570   -2.4510   28.7830 C.3   136  PRO136      0.0237
    109  CD        15.3630   -3.7300   29.2070 C.3   136  PRO136      0.0939
    110  N         10.3700   -7.6560   33.8760 N.3   139  ASP139     -0.1239
    111  CA         9.7180   -7.6110   35.1740 C.3   139  ASP139      0.1674
    112  C          8.2420   -7.2540   35.0590 C.2   139  ASP139      0.2266
    113  O          7.6470   -6.7700   36.0320 O.2   139  ASP139     -0.2867
    114  CB        10.4460   -6.6320   36.0980 C.3   139  ASP139      0.1410
    115  CG        10.6210   -5.2350   35.4920 C.2   139  ASP139      0.3668
    116  OD1       10.1490   -4.9620   34.3570 O.co2 139  ASP139     -0.2456
    117  OD2       11.2470   -4.3890   36.1680 O.co2 139  ASP139     -0.2456
    118  N         13.5810   -4.1990   38.1030 N.3   153  TYR153     -0.1241
    119  CA        14.7260   -3.3520   37.8000 C.3   153  TYR153      0.1605
    120  C         15.0710   -2.4670   38.9850 C.2   153  TYR153      0.2264
    121  O         14.1980   -1.8860   39.6320 O.2   153  TYR153     -0.2867
    122  CB        14.4830   -2.4670   36.5790 C.3   153  TYR153      0.0534
    123  CG        15.6810   -1.5750   36.3140 C.ar  153  TYR153     -0.0201
    124  CD1       16.8340   -2.0840   35.7270 C.ar  153  TYR153     -0.0009
    125  CD2       15.6720   -0.2300   36.6780 C.ar  153  TYR153     -0.0009
    126  CE1       17.9330   -1.2800   35.4900 C.ar  153  TYR153      0.0417
    127  CE2       16.7710    0.5850   36.4480 C.ar  153  TYR153      0.0417
    128  CZ        17.8950    0.0560   35.8520 C.ar  153  TYR153      0.1957
    129  OH        18.9900    0.8630   35.6350 O.3   153  TYR153     -0.2866
    130  N         22.3520   -6.9420   32.1230 N.3   184  TYR184     -0.1241
    131  CA        22.2630   -5.5530   31.6910 C.3   184  TYR184      0.1605
    132  C         23.0730   -4.6680   32.6290 C.2   184  TYR184      0.2264
    133  O         22.9820   -4.8150   33.8490 O.2   184  TYR184     -0.2867
    134  CB        20.8090   -5.0720   31.6640 C.3   184  TYR184      0.0534
    135  CG        20.6730   -3.5730   31.5350 C.ar  184  TYR184     -0.0201
    136  CD1       20.5820   -2.9710   30.2770 C.ar  184  TYR184     -0.0009
    137  CD2       20.6320   -2.7540   32.6620 C.ar  184  TYR184     -0.0009
    138  CE1       20.4560   -1.5900   30.1430 C.ar  184  TYR184      0.0417
    139  CE2       20.5140   -1.3790   32.5420 C.ar  184  TYR184      0.0417
    140  CZ        20.4260   -0.8080   31.2830 C.ar  184  TYR184      0.1957
    141  OH        20.3070    0.5550   31.1650 O.3   184  TYR184     -0.2866
    142  N         24.2430   -0.3570   33.1870 N.3   186  GLU186     -0.1245
    143  CA        23.9050    1.0080   32.7850 C.3   186  GLU186      0.1567
    144  C         25.0740    1.7670   32.1550 C.2   186  GLU186      0.2260
    145  O         24.8620    2.8650   31.6240 O.2   186  GLU186     -0.2867
    146  CB        23.3670    1.8100   33.9880 C.3   186  GLU186      0.0388
    147  CG        22.0000    1.3530   34.5070 C.3   186  GLU186      0.1160
    148  CD        22.1040    0.1390   35.4300 C.2   186  GLU186      0.3649
    149  OE1       23.2330   -0.2370   35.7870 O.co2 186  GLU186     -0.2457
    150  OE2       21.0620   -0.4400   35.8010 O.co2 186  GLU186     -0.2457
    151  N         26.5090    4.0960   29.1430 N.3   189  ASP189     -0.1239
    152  CA        25.4980    5.1260   28.9150 C.3   189  ASP189      0.1674
    153  C         25.5910    6.2410   29.9580 C.2   189  ASP189      0.2266
    154  O         25.5170    7.4300   29.6170 O.2   189  ASP189     -0.2867
    155  CB        24.1010    4.5030   28.9210 C.3   189  ASP189      0.1410
    156  CG        23.0140    5.4840   28.5110 C.2   189  ASP189      0.3668
    157  OD1       22.9850    5.8630   27.3260 O.co2 189  ASP189     -0.2456
    158  OD2       22.1750    5.8740   29.3610 O.co2 189  ASP189     -0.2456
    159  N         26.4390   10.2430   29.0760 N.3   193  HIS193     -0.1241
    160  CA        25.5830   11.3970   29.3210 C.3   193  HIS193      0.1621
    161  C         26.3040   12.4410   30.1640 C.2   193  HIS193      0.2264
    162  O         26.3520   13.6280   29.8050 O.2   193  HIS193     -0.2867
    163  CB        24.3000   10.9600   30.0190 C.3   193  HIS193      0.0745
    164  CG        23.3190   10.2810   29.1150 C.ar  193  HIS193      0.0817
    165  ND1       22.7700   10.9010   28.0110 N.ar  193  HIS193     -0.2268
    166  CD2       22.7770    9.0400   29.1600 C.ar  193  HIS193      0.1154
    167  CE1       21.9430   10.0630   27.4080 C.ar  193  HIS193      0.1986
    168  NE2       21.9240    8.9300   28.0900 N.ar  193  HIS193     -0.2212
    169  N         22.1270    1.3810   21.5520 N.3   237  HIS237     -0.1241
    170  CA        22.3270    2.5650   20.7210 C.3   237  HIS237      0.1621
    171  C         23.6870    3.1540   21.0350 C.2   237  HIS237      0.2264
    172  O         24.3780    2.6870   21.9510 O.2   237  HIS237     -0.2867
    173  CB        21.2590    3.6140   20.9860 C.3   237  HIS237      0.0745
    174  CG        21.1360    3.9410   22.4370 C.ar  237  HIS237      0.0817
    175  ND1       22.0820    4.6860   23.1070 N.ar  237  HIS237     -0.2268
    176  CD2       20.2390    3.5370   23.3670 C.ar  237  HIS237      0.1154
    177  CE1       21.7510    4.7600   24.3840 C.ar  237  HIS237      0.1986
    178  NE2       20.6300    4.0840   24.5660 N.ar  237  HIS237     -0.2212
    179  N         21.3620   10.7130   22.9640 N.3   348  HIS348     -0.1241
    180  CA        21.0780    9.8490   21.8210 C.3   348  HIS348      0.1621
    181  C         19.5900    9.9520   21.5340 C.2   348  HIS348      0.2264
    182  O         18.8540   10.6290   22.2470 O.2   348  HIS348     -0.2867
    183  CB        21.5170    8.4040   22.1140 C.3   348  HIS348      0.0745
    184  CG        21.0760    7.9160   23.4600 C.ar  348  HIS348      0.0817
    185  ND1       19.8530    7.3110   23.6740 N.ar  348  HIS348     -0.2268
    186  CD2       21.6710    8.0050   24.6770 C.ar  348  HIS348      0.1154
    187  CE1       19.7260    7.0290   24.9610 C.ar  348  HIS348      0.1986
    188  NE2       20.8100    7.4470   25.5880 N.ar  348  HIS348     -0.2212
@<TRIPOS>BOND
     1   170   173    1
     2   170   171    1
     3   170   169    1
     4   173   174    1
     5   171   172    2
     6   181   180    1
     7   181   182    2
     8     9    10    1
     9   180   183    1
    10   180   179    1
    11   183   184    1
    12   174   175   ar
    13   174   176   ar
    14    14    15    1
    15    14    13    1
    16    12    11    2
    17    10    13    1
    18    10    11    1
    19   175   177   ar
    20   176   178   ar
    21    15    16    1
    22    34    35    1
    23   184   185   ar
    24   184   186   ar
    25    37    36    2
    26   185   187   ar
    27    11    18   am
    28    36    35    1
    29    35    38    1
    30   177   178   ar
    31    26    25    2
    32    17    16    1
    33    25    24    1
    34   186   188   ar
    35   187   188   ar
    36    18    19    1
    37    21    20    2
    38   100   102   ar
    39   100    98   ar
    40    20    19    1
    41    20    23   am
    42    19    22    1
    43    38    39    1
    44    44    45    1
    45    23    24    1
    46   102   101   ar
    47    24    27    1
    48    39    40   ar
    49    39    41   ar
    50    40    42   ar
    51    97    98   ar
    52    97    95   ar
    53    98    96   ar
    54    41    43   ar
    55    42    43   ar
    56    50    49    2
    57    27    28    1
    58     3     4    2
    59     3     2    1
    60   101    99   ar
    61    45    48    1
    62    45    46    1
    63   157   156   ar
    64    49    51   am
    65    49    48    1
    66   167   165   ar
    67   167   168   ar
    68     7     6   ar
    69    95    94   ar
    70     2     1    1
    71     2     5    1
    72    96    99   ar
    73    96    94   ar
    74    46    47    2
    75   165   164   ar
    76   168   166   ar
    77    28    30   ar
    78    28    29   ar
    79     6     8   ar
    80     6     5    1
    81   106   105    2
    82    94    93    1
    83   156   155    1
    84   156   158   ar
    85   107   108    1
    86   107   104    1
    87    30    32   ar
    88   108   109    1
    89   152   155    1
    90   152   151    1
    91   152   153    1
    92   159   160    1
    93    29    31   ar
    94   164   166   ar
    95   164   163    1
    96   109   103    1
    97   105   104    1
    98   160   163    1
    99   160   161    1
   100   154   153    2
   101   104   103    1
   102   162   161    2
   103    32    33   ar
   104   103    91   am
   105    93    90    1
   106   138   136   ar
   107   138   140   ar
   108   136   135   ar
   109    31    33   ar
   110    91    90    1
   111    91    92    2
   112    90    89    1
   113    59    57    1
   114    58    57    1
   115   141   140    1
   116   140   139   ar
   117    57    56    1
   118   135   134    1
   119   135   137   ar
   120   145   144    2
   121   134   131    1
   122   131   130    1
   123   131   132    1
   124    81    80    2
   125    89    80   am
   126   144   143    1
   127   139   137   ar
   128   132   133    2
   129    80    79    1
   130   143   142    1
   131   143   146    1
   132    72    71    2
   133    52    53    1
   134    56    53    1
   135    74    75    1
   136    74    73    1
   137    53    54    1
   138    70    71    1
   139    70    73    1
   140    70    69    1
   141   110   111    1
   142   146   147    1
   143    79    82    1
   144    79    78    1
   145    75    76    1
   146   116   115   ar
   147   147   148    1
   148    82    83    1
   149    76    77    1
   150    54    60   am
   151    54    55    2
   152   112   111    1
   153   112   113    2
   154   111   114    1
   155   148   149   ar
   156   148   150   ar
   157   126   124   ar
   158   126   128   ar
   159   115   114    1
   160   115   117   ar
   161    60    61    1
   162   129   128    1
   163   124   123   ar
   164   128   127   ar
   165    83    85   ar
   166    83    84   ar
   167   123   122    1
   168   123   125   ar
   169   127   125   ar
   170    85    87   ar
   171   122   119    1
   172    84    86   ar
   173    61    64    1
   174    61    62    1
   175    65    64    1
   176    65    66    1
   177    68    67    1
   178    67    66    1
   179    62    63    2
   180   119   118    1
   181   119   120    1
   182    87    88   ar
   183    86    88   ar
   184   120   121    2
