@<TRIPOS>MOLECULE
tmp/6aekA05.pdb
 134 129 0 0 0
SMALL
GASTEIGER

@<TRIPOS>ATOM
      1  N         16.7650    5.0050   21.6210 N.3    68  LYS68      -0.1245
      2  CA        16.5910    5.0910   23.0720 C.3    68  LYS68       0.1561
      3  C         16.5740    3.6930   23.6840 C.2    68  LYS68       0.2260
      4  O         16.3570    2.7040   22.9870 O.2    68  LYS68      -0.2867
      5  CB        15.2810    5.7930   23.4410 C.3    68  LYS68       0.0271
      6  CG        15.1450    7.2110   22.8790 C.3    68  LYS68       0.0035
      7  CD        16.2520    8.0910   23.4080 C.3    68  LYS68       0.0206
      8  CE        15.8540    8.7580   24.7100 C.3    68  LYS68       0.1093
      9  NZ        14.6170    9.5870   24.5590 N.3    68  LYS68      -0.1314
     10  N         11.1260    5.9340   25.8340 N.3    90  ASN90      -0.1225
     11  CA        11.1560    5.7780   27.2880 C.3    90  ASN90       0.1785
     12  C         10.0030    6.5040   27.9680 C.2    90  ASN90       0.2597
     13  O          9.6430    6.1560   29.0970 O.2    90  ASN90      -0.2718
     14  CB        12.4730    6.2960   27.8570 C.3    90  ASN90       0.1169
     15  CG        13.6730    5.5480   27.3300 C.2    90  ASN90       0.2627
     16  OD1       13.5610    4.4360   26.8170 O.2    90  ASN90      -0.2716
     17  ND2       14.8440    6.1530   27.4720 N.am   90  ASN90      -0.0877
     18  N          9.4290    7.5110   27.3120 N.am   91  LYS91      -0.1980
     19  CA         8.2510    8.2070   27.7990 C.3    91  LYS91       0.1596
     20  C          7.2260    8.2710   26.6760 C.2    91  LYS91       0.2287
     21  O          7.5740    8.5510   25.5280 O.2    91  LYS91      -0.2864
     22  CB         8.6120    9.6120   28.2960 C.3    91  LYS91       0.0298
     23  CG         9.5640    9.5820   29.4950 C.3    91  LYS91       0.0038
     24  CD        10.1620   10.9560   29.7670 C.3    91  LYS91       0.0206
     25  CE        10.8400   11.5000   28.5210 C.3    91  LYS91       0.1093
     26  NZ        11.9220   12.4710   28.8440 N.3    91  LYS91      -0.1314
     27  N          9.8610    5.5820   32.9260 N.3   103  LEU103     -0.1231
     28  CA        10.6730    4.5120   33.5090 C.3   103  LEU103      0.1693
     29  C         10.6820    4.5400   35.0270 C.2   103  LEU103      0.2591
     30  O         10.9910    3.5180   35.6490 O.2   103  LEU103     -0.2718
     31  CB        12.1170    4.5750   33.0040 C.3   103  LEU103      0.0284
     32  CG        12.3060    4.5130   31.4780 C.3   103  LEU103      0.0019
     33  CD1       13.7760    4.3950   31.0950 C.3   103  LEU103      0.0001
     34  CD2       11.5070    3.3820   30.8630 C.3   103  LEU103      0.0001
     35  N         10.3860    5.6840   35.6340 N.am  104  LYS104     -0.1980
     36  CA        10.3850    5.8210   37.0810 C.3   104  LYS104      0.1596
     37  C          8.9720    5.8910   37.6440 C.2   104  LYS104      0.2287
     38  O          8.7680    6.4280   38.7370 O.2   104  LYS104     -0.2864
     39  CB        11.1910    7.0520   37.4940 C.3   104  LYS104      0.0298
     40  CG        12.6640    7.1250   37.1030 C.3   104  LYS104      0.0038
     41  CD        13.3230    6.0120   37.8330 C.3   104  LYS104      0.0206
     42  CE        14.7310    6.0690   37.1880 C.3   104  LYS104      0.1093
     43  NZ        15.2360    4.6890   37.1230 N.3   104  LYS104     -0.1314
     44  N         26.5090    4.0960   29.1430 N.3   189  ASP189     -0.1225
     45  CA        25.4980    5.1260   28.9150 C.3   189  ASP189      0.1805
     46  C         25.5910    6.2410   29.9580 C.2   189  ASP189      0.2598
     47  O         25.5170    7.4300   29.6170 O.2   189  ASP189     -0.2718
     48  CB        24.1010    4.5030   28.9210 C.3   189  ASP189      0.1424
     49  CG        23.0140    5.4840   28.5110 C.2   189  ASP189      0.3668
     50  OD1       22.9850    5.8630   27.3260 O.co2 189  ASP189     -0.2456
     51  OD2       22.1750    5.8740   29.3610 O.co2 189  ASP189     -0.2456
     52  N         25.7220    5.8800   31.2380 N.am  190  SER190     -0.1952
     53  CA        25.7000    6.9010   32.2920 C.3   190  SER190      0.1924
     54  C         26.8340    7.8980   32.1180 C.2   190  SER190      0.2314
     55  O         26.6200    9.1190   32.1530 O.2   190  SER190     -0.2863
     56  CB        25.7950    6.2620   33.6840 C.3   190  SER190      0.2116
     57  OG        24.7790    5.2930   33.8780 O.3   190  SER190     -0.2180
     58  N         26.4390   10.2430   29.0760 N.3   193  HIS193     -0.1226
     59  CA        25.5830   11.3970   29.3210 C.3   193  HIS193      0.1752
     60  C         26.3040   12.4410   30.1640 C.2   193  HIS193      0.2596
     61  O         26.3520   13.6280   29.8050 O.2   193  HIS193     -0.2718
     62  CB        24.3000   10.9600   30.0190 C.3   193  HIS193      0.0759
     63  CG        23.3190   10.2810   29.1150 C.ar  193  HIS193      0.0818
     64  ND1       22.7700   10.9010   28.0110 N.ar  193  HIS193     -0.2268
     65  CD2       22.7770    9.0400   29.1600 C.ar  193  HIS193      0.1154
     66  CE1       21.9430   10.0630   27.4080 C.ar  193  HIS193      0.1986
     67  NE2       21.9240    8.9300   28.0900 N.ar  193  HIS193     -0.2212
     68  N         26.8710   12.0200   31.2970 N.am  194  SER194     -0.1952
     69  CA        27.3140   12.9990   32.2850 C.3   194  SER194      0.1924
     70  C         28.5530   13.7530   31.8150 C.2   194  SER194      0.2314
     71  O         28.7030   14.9450   32.0980 O.2   194  SER194     -0.2863
     72  CB        27.5720   12.3040   33.6280 C.3   194  SER194      0.2116
     73  OG        28.5940   11.3320   33.5160 O.3   194  SER194     -0.2180
     74  N         11.0630   16.3370   24.4420 N.3   264  TYR264     -0.1241
     75  CA        12.2670   17.0040   23.9740 C.3   264  TYR264      0.1605
     76  C         13.3490   16.0000   23.5910 C.2   264  TYR264      0.2264
     77  O         13.3330   14.8330   24.0020 O.2   264  TYR264     -0.2867
     78  CB        12.7960   17.9750   25.0370 C.3   264  TYR264      0.0534
     79  CG        13.2110   17.2980   26.3190 C.ar  264  TYR264     -0.0201
     80  CD1       14.4710   16.7440   26.4540 C.ar  264  TYR264     -0.0009
     81  CD2       12.3350   17.2260   27.3940 C.ar  264  TYR264     -0.0009
     82  CE1       14.8540   16.1220   27.6410 C.ar  264  TYR264      0.0417
     83  CE2       12.7090   16.6220   28.5850 C.ar  264  TYR264      0.0417
     84  CZ        13.9630   16.0710   28.7030 C.ar  264  TYR264      0.1957
     85  OH        14.3110   15.4660   29.8860 O.3   264  TYR264     -0.2866
     86  N         19.2140   18.9560   18.9650 N.3   332  GLN332     -0.1245
     87  CA        18.0490   18.5570   19.7400 C.3   332  GLN332      0.1566
     88  C         16.9910   19.6510   19.6720 C.2   332  GLN332      0.2260
     89  O         17.2550   20.7720   19.2360 O.2   332  GLN332     -0.2867
     90  CB        18.4380   18.2620   21.2040 C.3   332  GLN332      0.0367
     91  CG        19.5020   17.1650   21.3270 C.3   332  GLN332      0.0905
     92  CD        19.9410   16.9320   22.7660 C.2   332  GLN332      0.2608
     93  OE1       19.2660   16.2320   23.5240 O.2   332  GLN332     -0.2717
     94  NE2       21.0810   17.5040   23.1410 N.am  332  GLN332     -0.0878
     95  N         16.0200   18.7520   29.7810 N.3   341  LYS341     -0.1245
     96  CA        17.1060   18.5560   30.7370 C.3   341  LYS341      0.1561
     97  C         18.2840   19.4290   30.2990 C.2   341  LYS341      0.2260
     98  O         18.1450   20.2940   29.4290 O.2   341  LYS341     -0.2867
     99  CB        17.4650   17.0770   30.8340 C.3   341  LYS341      0.0271
    100  CG        17.8590   16.4270   29.5280 C.3   341  LYS341      0.0035
    101  CD        18.2480   14.9680   29.6600 C.3   341  LYS341      0.0206
    102  CE        18.9600   14.6120   28.3720 C.3   341  LYS341      0.1093
    103  NZ        19.0510   13.1970   28.1230 N.3   341  LYS341     -0.1314
    104  N         24.8350   17.8580   27.5270 N.3   345  SER345     -0.1202
    105  CA        25.2780   16.5330   27.9240 C.3   345  SER345      0.2020
    106  C         25.4070   15.6280   26.6970 C.2   345  SER345      0.2619
    107  O         24.9730   15.9620   25.5920 O.2   345  SER345     -0.2717
    108  CB        24.2900   15.9360   28.9160 C.3   345  SER345      0.2103
    109  OG        23.0960   15.5630   28.2270 O.3   345  SER345     -0.2182
    110  N         25.9960   14.4510   26.9020 N.am  346  GLY346     -0.1942
    111  CA        25.8330   13.3970   25.9150 C.3   346  GLY346      0.2014
    112  C         24.3650   13.0570   25.7350 C.2   346  GLY346      0.2639
    113  O         23.5680   13.1570   26.6670 O.2   346  GLY346     -0.2714
    114  N         23.9910   12.6590   24.5180 N.am  347  PHE347     -0.1959
    115  CA        22.6030   12.3090   24.2690 C.3   347  PHE347      0.1771
    116  C         22.5420   11.2880   23.1390 C.2   347  PHE347      0.2619
    117  O         23.5260   11.0350   22.4370 O.2   347  PHE347     -0.2715
    118  CB        21.7600   13.5440   23.9150 C.3   347  PHE347      0.0574
    119  CG        21.9330   13.9950   22.5020 C.ar  347  PHE347     -0.0200
    120  CD1       22.9830   14.8270   22.1520 C.ar  347  PHE347     -0.0042
    121  CD2       21.0730   13.5400   21.4990 C.ar  347  PHE347     -0.0042
    122  CE1       23.1550   15.2310   20.8330 C.ar  347  PHE347     -0.0003
    123  CE2       21.2470   13.9400   20.2030 C.ar  347  PHE347     -0.0003
    124  CZ        22.2850   14.7760   19.8670 C.ar  347  PHE347     -0.0000
    125  N         21.3620   10.7130   22.9640 N.am  348  HIS348     -0.1973
    126  CA        21.0780    9.8490   21.8210 C.3   348  HIS348      0.1656
    127  C         19.5900    9.9520   21.5340 C.2   348  HIS348      0.2291
    128  O         18.8540   10.6290   22.2470 O.2   348  HIS348     -0.2864
    129  CB        21.5170    8.4040   22.1140 C.3   348  HIS348      0.0771
    130  CG        21.0760    7.9160   23.4600 C.ar  348  HIS348      0.0820
    131  ND1       19.8530    7.3110   23.6740 N.ar  348  HIS348     -0.2267
    132  CD2       21.6710    8.0050   24.6770 C.ar  348  HIS348      0.1154
    133  CE1       19.7260    7.0290   24.9610 C.ar  348  HIS348      0.1986
    134  NE2       20.8100    7.4470   25.5880 N.ar  348  HIS348     -0.2212
@<TRIPOS>BOND
     1    86    87    1
     2    89    88    2
     3    88    87    1
     4    87    90    1
     5   124   123   ar
     6   124   122   ar
     7   123   121   ar
     8   122   120   ar
     9    90    91    1
    10    91    92    1
    11   121   119   ar
    12   127   126    1
    13   127   128    2
    14     1     2    1
    15   126   129    1
    16   126   125    1
    17   129   130    1
    18   120   119   ar
    19   117   116    2
    20   119   118    1
    21    92    94   am
    22    92    93    2
    23     6     7    1
    24     6     5    1
    25   125   116   am
    26     4     3    2
    27     2     5    1
    28     2     3    1
    29   116   115    1
    30     7     8    1
    31   130   131   ar
    32   130   132   ar
    33    76    75    1
    34    76    77    2
    35   131   133   ar
    36   118   115    1
    37    75    74    1
    38    75    78    1
    39   115   114    1
    40   114   112   am
    41     9     8    1
    42   132   134   ar
    43   133   134   ar
    44    78    79    1
    45    21    20    2
    46   107   106    2
    47   112   111    1
    48   112   113    2
    49    10    11    1
    50   111   110    1
    51    79    80   ar
    52    79    81   ar
    53    80    82   ar
    54    20    19    1
    55   106   110   am
    56   106   105    1
    57    16    15    2
    58    11    14    1
    59    11    12    1
    60    18    19    1
    61    18    12   am
    62    50    49   ar
    63    15    17   am
    64    15    14    1
    65    81    83   ar
    66    66    64   ar
    67    66    67   ar
    68   104   105    1
    69    82    84   ar
    70    19    22    1
    71   105   108    1
    72    12    13    2
    73    64    63   ar
    74    67    65   ar
    75   103   102    1
    76   109   108    1
    77    22    23    1
    78   102   101    1
    79    49    48    1
    80    49    51   ar
    81    25    26    1
    82    25    24    1
    83    83    84   ar
    84    84    85    1
    85    45    48    1
    86    45    44    1
    87    45    46    1
    88    58    59    1
    89    63    65   ar
    90    63    62    1
    91    59    62    1
    92    59    60    1
    93    98    97    2
    94    23    24    1
    95   100   101    1
    96   100    99    1
    97    47    46    2
    98    95    96    1
    99    61    60    2
   100    46    52   am
   101    60    68   am
   102    97    96    1
   103    96    99    1
   104    34    32    1
   105    33    32    1
   106    52    53    1
   107    68    69    1
   108    32    31    1
   109    70    71    2
   110    70    69    1
   111    54    55    2
   112    54    53    1
   113    69    72    1
   114    53    56    1
   115    27    28    1
   116    31    28    1
   117    28    29    1
   118    73    72    1
   119    56    57    1
   120    29    35   am
   121    29    30    2
   122    35    36    1
   123    36    39    1
   124    36    37    1
   125    40    39    1
   126    40    41    1
   127    43    42    1
   128    42    41    1
   129    37    38    2
