@<TRIPOS>MOLECULE
tmp/6aelA03.pdb
 254 249 0 0 0
SMALL
GASTEIGER

@<TRIPOS>ATOM
      1  N         24.8640   -0.7330   27.6670 N.3    31  ASP31      -0.1239
      2  CA        24.0170    0.3690   27.2290 C.3    31  ASP31       0.1674
      3  C         24.8560    1.4940   26.6390 C.2    31  ASP31       0.2266
      4  O         25.8560    1.9110   27.2300 O.2    31  ASP31      -0.2867
      5  CB        23.1900    0.8960   28.3970 C.3    31  ASP31       0.1410
      6  CG        22.0640    1.7930   27.9290 C.2    31  ASP31       0.3668
      7  OD1       22.3220    2.6310   27.0450 O.co2  31  ASP31      -0.2456
      8  OD2       20.9300    1.6340   28.4130 O.co2  31  ASP31      -0.2456
      9  N         16.8510    5.0450   21.2920 N.3    68  LYS68      -0.1231
     10  CA        16.7640    5.1260   22.7460 C.3    68  LYS68       0.1693
     11  C         16.7270    3.7180   23.3250 C.2    68  LYS68       0.2592
     12  O         16.5410    2.7320   22.6070 O.2    68  LYS68      -0.2718
     13  CB        15.5210    5.9170   23.1820 C.3    68  LYS68       0.0285
     14  CG        15.3800    7.3040   22.5190 C.3    68  LYS68       0.0035
     15  CD        16.3130    8.3320   23.1040 C.3    68  LYS68       0.0206
     16  CE        15.9430    8.6910   24.5370 C.3    68  LYS68       0.1093
     17  NZ        14.6260    9.4070   24.6250 N.3    68  LYS68      -0.1314
     18  N         16.8850    3.6420   24.6530 N.am   69  ALA69      -0.1966
     19  CA        17.1560    2.3640   25.3010 C.3    69  ALA69       0.1728
     20  C         15.9450    1.4370   25.2690 C.2    69  ALA69       0.2616
     21  O         16.0620    0.2640   24.8950 O.2    69  ALA69      -0.2715
     22  CB        17.6250    2.6020   26.7450 C.3    69  ALA69       0.0334
     23  N         14.7740    1.9260   25.6740 N.am   70  PHE70      -0.1974
     24  CA        13.6340    1.0140   25.7560 C.3    70  PHE70       0.1639
     25  C         13.1580    0.5480   24.3810 C.2    70  PHE70       0.2290
     26  O         12.9750   -0.6690   24.2020 O.2    70  PHE70      -0.2864
     27  CB        12.5190    1.6310   26.6080 C.3    70  PHE70       0.0560
     28  CG        12.4240    1.0130   27.9820 C.ar   70  PHE70      -0.0200
     29  CD1       13.5100    1.0590   28.8390 C.ar   70  PHE70      -0.0042
     30  CD2       11.2680    0.3680   28.4060 C.ar   70  PHE70      -0.0042
     31  CE1       13.4560    0.4800   30.1030 C.ar   70  PHE70      -0.0003
     32  CE2       11.2030   -0.2160   29.6700 C.ar   70  PHE70      -0.0003
     33  CZ        12.2990   -0.1750   30.5090 C.ar   70  PHE70      -0.0000
     34  N         11.2820    5.9520   25.6220 N.3    90  ASN90      -0.1225
     35  CA        11.3420    5.7960   27.0730 C.3    90  ASN90       0.1785
     36  C         10.2060    6.5260   27.7680 C.2    90  ASN90       0.2597
     37  O          9.9040    6.2140   28.9220 O.2    90  ASN90      -0.2718
     38  CB        12.6550    6.3370   27.6410 C.3    90  ASN90       0.1169
     39  CG        13.8740    5.6220   27.1010 C.2    90  ASN90       0.2627
     40  OD1       13.7900    4.4870   26.6450 O.2    90  ASN90      -0.2716
     41  ND2       15.0270    6.2740   27.1920 N.am   90  ASN90      -0.0877
     42  N          9.6170    7.5220   27.1060 N.am   91  LYS91      -0.1980
     43  CA         8.4980    8.2880   27.6290 C.3    91  LYS91       0.1596
     44  C          7.4490    8.3580   26.5370 C.2    91  LYS91       0.2287
     45  O          7.7670    8.6900   25.3860 O.2    91  LYS91      -0.2864
     46  CB         8.9310    9.7020   28.0430 C.3    91  LYS91       0.0298
     47  CG         9.9930    9.7100   29.1370 C.3    91  LYS91       0.0038
     48  CD        10.2750   11.1220   29.6630 C.3    91  LYS91       0.0206
     49  CE        11.5730   11.6770   29.0990 C.3    91  LYS91       0.1093
     50  NZ        11.5350   11.7470   27.6140 N.3    91  LYS91      -0.1314
     51  N         10.2170    5.7650   32.6720 N.3   103  LEU103     -0.1231
     52  CA        11.0510    4.7270   33.2660 C.3   103  LEU103      0.1693
     53  C         11.0380    4.7630   34.7830 C.2   103  LEU103      0.2591
     54  O         11.4620    3.7940   35.4100 O.2   103  LEU103     -0.2718
     55  CB        12.4980    4.8360   32.7820 C.3   103  LEU103      0.0284
     56  CG        12.6660    4.7430   31.2610 C.3   103  LEU103      0.0019
     57  CD1       14.1330    4.5950   30.8860 C.3   103  LEU103      0.0001
     58  CD2       11.8380    3.6070   30.7070 C.3   103  LEU103      0.0001
     59  N         10.5830    5.8540   35.3810 N.am  104  LYS104     -0.1980
     60  CA        10.5440    5.9800   36.8300 C.3   104  LYS104      0.1596
     61  C          9.1120    6.1200   37.3340 C.2   104  LYS104      0.2287
     62  O          8.8710    6.7130   38.3860 O.2   104  LYS104     -0.2864
     63  CB        11.4170    7.1500   37.2840 C.3   104  LYS104      0.0298
     64  CG        12.8500    6.7350   37.6420 C.3   104  LYS104      0.0038
     65  CD        13.8770    7.8290   37.3590 C.3   104  LYS104      0.0206
     66  CE        14.2350    7.9130   35.8670 C.3   104  LYS104      0.1093
     67  NZ        15.0420    6.7470   35.3740 N.3   104  LYS104     -0.1314
     68  N          5.5280    1.7510   34.0090 N.3   108  LYS108     -0.1245
     69  CA         6.5090    0.8740   33.3720 C.3   108  LYS108      0.1561
     70  C          6.1960   -0.6100   33.5720 C.2   108  LYS108      0.2260
     71  O          6.6680   -1.4450   32.7900 O.2   108  LYS108     -0.2867
     72  CB         7.9070    1.1770   33.9140 C.3   108  LYS108      0.0271
     73  CG         9.0280    0.6300   33.0450 C.3   108  LYS108      0.0035
     74  CD        10.2790    0.3470   33.8400 C.3   108  LYS108      0.0206
     75  CE        10.1120   -0.9440   34.6470 C.3   108  LYS108      0.1093
     76  NZ        11.4060   -1.5770   35.0540 N.3   108  LYS108     -0.1314
     77  N         17.7960   -8.0820   34.5270 N.3   134  PHE134     -0.1227
     78  CA        17.4320   -6.8090   33.9270 C.3   134  PHE134      0.1736
     79  C         17.3610   -6.9510   32.4100 C.2   134  PHE134      0.2595
     80  O         18.2150   -7.5810   31.7680 O.2   134  PHE134     -0.2718
     81  CB        18.3900   -5.6660   34.3080 C.3   134  PHE134      0.0547
     82  CG        18.5230   -5.4190   35.8050 C.ar  134  PHE134     -0.0202
     83  CD1       17.5800   -5.9040   36.7070 C.ar  134  PHE134     -0.0042
     84  CD2       19.5910   -4.6800   36.3000 C.ar  134  PHE134     -0.0042
     85  CE1       17.7150   -5.6710   38.0790 C.ar  134  PHE134     -0.0003
     86  CE2       19.7310   -4.4440   37.6810 C.ar  134  PHE134     -0.0003
     87  CZ        18.7940   -4.9440   38.5640 C.ar  134  PHE134     -0.0000
     88  N         16.3140   -6.3890   31.8600 N.am  135  TRP135     -0.1963
     89  CA        16.0650   -6.1910   30.4470 C.3   135  TRP135      0.1756
     90  C         14.7050   -5.5280   30.4020 C.2   135  TRP135      0.2461
     91  O         13.7810   -5.9870   31.0850 O.2   135  TRP135     -0.2730
     92  CB        16.0620   -7.4950   29.6390 C.3   135  TRP135      0.0590
     93  CG        16.2340   -7.2020   28.1940 C.ar  135  TRP135      0.0006
     94  CD1       15.2620   -6.8920   27.2950 C.ar  135  TRP135      0.0946
     95  CD2       17.4720   -7.1340   27.4950 C.ar  135  TRP135      0.0152
     96  NE1       15.8180   -6.6670   26.0580 N.ar  135  TRP135     -0.2442
     97  CE2       17.1770   -6.8070   26.1550 C.ar  135  TRP135      0.0810
     98  CE3       18.8040   -7.3580   27.8630 C.ar  135  TRP135      0.0012
     99  CZ2       18.1680   -6.6830   25.1810 C.ar  135  TRP135      0.0191
    100  CZ3       19.7890   -7.2230   26.8960 C.ar  135  TRP135      0.0001
    101  CH2       19.4670   -6.8910   25.5720 C.ar  135  TRP135      0.0015
    102  N         14.5590   -4.4320   29.6650 N.am  136  PRO136     -0.2727
    103  CA        13.2360   -3.8200   29.4990 C.3   136  PRO136      0.1402
    104  C         12.1740   -4.8490   29.1340 C.2   136  PRO136      0.2269
    105  O         12.3440   -5.6430   28.2030 O.2   136  PRO136     -0.2865
    106  CB        13.4640   -2.8150   28.3640 C.3   136  PRO136      0.0296
    107  CG        14.8970   -2.3930   28.5610 C.3   136  PRO136      0.0237
    108  CD        15.6130   -3.6750   28.9610 C.3   136  PRO136      0.0939
    109  N         10.7320   -7.5400   33.6490 N.3   139  ASP139     -0.1239
    110  CA        10.1050   -7.4740   34.9630 C.3   139  ASP139      0.1674
    111  C          8.6290   -7.1050   34.8710 C.2   139  ASP139      0.2266
    112  O          8.0540   -6.6050   35.8470 O.2   139  ASP139     -0.2867
    113  CB        10.8550   -6.5020   35.8800 C.3   139  ASP139      0.1410
    114  CG        11.0350   -5.1160   35.2760 C.2   139  ASP139      0.3668
    115  OD1       10.5810   -4.8470   34.1330 O.co2 139  ASP139     -0.2456
    116  OD2       11.6410   -4.2770   35.9680 O.co2 139  ASP139     -0.2456
    117  N         13.9210   -4.0420   37.8820 N.3   153  TYR153     -0.1241
    118  CA        15.0670   -3.2020   37.5640 C.3   153  TYR153      0.1605
    119  C         15.4510   -2.3460   38.7610 C.2   153  TYR153      0.2264
    120  O         14.5960   -1.7510   39.4210 O.2   153  TYR153     -0.2867
    121  CB        14.8010   -2.3050   36.3520 C.3   153  TYR153      0.0534
    122  CG        15.9890   -1.4010   36.0770 C.ar  153  TYR153     -0.0201
    123  CD1       17.1740   -1.9200   35.5650 C.ar  153  TYR153     -0.0009
    124  CD2       15.9440   -0.0370   36.3690 C.ar  153  TYR153     -0.0009
    125  CE1       18.2680   -1.1070   35.3250 C.ar  153  TYR153      0.0417
    126  CE2       17.0350    0.7810   36.1350 C.ar  153  TYR153      0.0417
    127  CZ        18.1980    0.2420   35.6170 C.ar  153  TYR153      0.1957
    128  OH        19.2960    1.0480   35.3880 O.3   153  TYR153     -0.2866
    129  N         18.8310    0.1280   39.1860 N.3   155  GLY155     -0.1225
    130  CA        20.1040    0.5620   38.6340 C.3   155  GLY155      0.1811
    131  C         21.2340    0.6310   39.6400 C.2   155  GLY155      0.2280
    132  O         22.3950    0.7340   39.2290 O.2   155  GLY155     -0.2866
    133  N         22.4940   -6.8540   31.7060 N.3   184  TYR184     -0.1241
    134  CA        22.4160   -5.4550   31.2900 C.3   184  TYR184      0.1605
    135  C         23.2410   -4.5870   32.2300 C.2   184  TYR184      0.2264
    136  O         23.1240   -4.7180   33.4520 O.2   184  TYR184     -0.2867
    137  CB        20.9580   -4.9600   31.2610 C.3   184  TYR184      0.0534
    138  CG        20.8360   -3.4560   31.1630 C.ar  184  TYR184     -0.0201
    139  CD1       20.7810   -2.8250   29.9220 C.ar  184  TYR184     -0.0009
    140  CD2       20.7900   -2.6610   32.3110 C.ar  184  TYR184     -0.0009
    141  CE1       20.6790   -1.4410   29.8250 C.ar  184  TYR184      0.0417
    142  CE2       20.6800   -1.2720   32.2190 C.ar  184  TYR184      0.0417
    143  CZ        20.6340   -0.6740   30.9740 C.ar  184  TYR184      0.1957
    144  OH        20.5300    0.6940   30.8640 O.3   184  TYR184     -0.2866
    145  N         24.5020   -0.3020   32.7480 N.3   186  GLU186     -0.1245
    146  CA        24.1950    1.0760   32.3610 C.3   186  GLU186      0.1567
    147  C         25.3710    1.8010   31.7100 C.2   186  GLU186      0.2260
    148  O         25.1740    2.8950   31.1730 O.2   186  GLU186     -0.2867
    149  CB        23.7170    1.8930   33.5770 C.3   186  GLU186      0.0388
    150  CG        22.3410    1.5000   34.1150 C.3   186  GLU186      0.1160
    151  CD        22.4050    0.3120   35.0670 C.2   186  GLU186      0.3649
    152  OE1       23.5230   -0.1590   35.3370 O.co2 186  GLU186     -0.2457
    153  OE2       21.3450   -0.1440   35.5500 O.co2 186  GLU186     -0.2457
    154  N         26.7550    4.1380   28.7130 N.3   189  ASP189     -0.1225
    155  CA        25.7310    5.1610   28.5060 C.3   189  ASP189      0.1805
    156  C         25.8060    6.2620   29.5640 C.2   189  ASP189      0.2598
    157  O         25.7380    7.4530   29.2320 O.2   189  ASP189     -0.2718
    158  CB        24.3460    4.5170   28.5050 C.3   189  ASP189      0.1424
    159  CG        23.2350    5.4970   28.1330 C.2   189  ASP189      0.3668
    160  OD1       23.1830    5.9340   26.9670 O.co2 189  ASP189     -0.2456
    161  OD2       22.4020    5.8160   29.0100 O.co2 189  ASP189     -0.2456
    162  N         25.9380    5.8870   30.8420 N.am  190  SER190     -0.1952
    163  CA        25.9290    6.8730   31.9270 C.3   190  SER190      0.1924
    164  C         27.0540    7.8910   31.7720 C.2   190  SER190      0.2314
    165  O         26.8210    9.1040   31.8300 O.2   190  SER190     -0.2863
    166  CB        26.0420    6.1760   33.2860 C.3   190  SER190      0.2116
    167  OG        25.0500    5.1770   33.4380 O.3   190  SER190     -0.2180
    168  N         26.5660   10.2840   28.6780 N.3   193  HIS193     -0.1226
    169  CA        25.6850   11.4170   28.9300 C.3   193  HIS193      0.1752
    170  C         26.3760   12.4660   29.7940 C.2   193  HIS193      0.2596
    171  O         26.3850   13.6580   29.4590 O.2   193  HIS193     -0.2718
    172  CB        24.4010   10.9450   29.6090 C.3   193  HIS193      0.0759
    173  CG        23.4570   10.2330   28.6960 C.ar  193  HIS193      0.0818
    174  ND1       22.9110   10.8340   27.5830 N.ar  193  HIS193     -0.2268
    175  CD2       22.9540    8.9730   28.7300 C.ar  193  HIS193      0.1154
    176  CE1       22.1120    9.9800   26.9720 C.ar  193  HIS193      0.1986
    177  NE2       22.1180    8.8450   27.6500 N.ar  193  HIS193     -0.2212
    178  N         26.9580   12.0420   30.9180 N.am  194  SER194     -0.1952
    179  CA        27.4160   13.0240   31.8990 C.3   194  SER194      0.1924
    180  C         28.6360   13.7920   31.4080 C.2   194  SER194      0.2314
    181  O         28.7910   14.9750   31.7330 O.2   194  SER194     -0.2863
    182  CB        27.7130   12.3370   33.2340 C.3   194  SER194      0.2116
    183  OG        28.7670   11.4030   33.1090 O.3   194  SER194     -0.2180
    184  N         22.2570    1.3960   21.2180 N.3   237  HIS237     -0.1241
    185  CA        22.4490    2.5660   20.3660 C.3   237  HIS237      0.1621
    186  C         23.8230    3.1450   20.6740 C.2   237  HIS237      0.2264
    187  O         24.4970    2.7250   21.6200 O.2   237  HIS237     -0.2867
    188  CB        21.3690    3.6160   20.6210 C.3   237  HIS237      0.0745
    189  CG        21.2460    3.9550   22.0690 C.ar  237  HIS237      0.0817
    190  ND1       22.2260    4.6370   22.7510 N.ar  237  HIS237     -0.2268
    191  CD2       20.2990    3.6380   22.9820 C.ar  237  HIS237      0.1154
    192  CE1       21.8790    4.7480   24.0210 C.ar  237  HIS237      0.1986
    193  NE2       20.7040    4.1660   24.1830 N.ar  237  HIS237     -0.2212
    194  N         19.4020   18.9620   18.5190 N.3   332  GLN332     -0.1245
    195  CA        18.2730   18.5800   19.3530 C.3   332  GLN332      0.1566
    196  C         17.2240   19.6860   19.3430 C.2   332  GLN332      0.2260
    197  O         17.5000   20.8220   18.9500 O.2   332  GLN332     -0.2867
    198  CB        18.7330   18.2930   20.7830 C.3   332  GLN332      0.0367
    199  CG        19.8050   17.2020   20.8590 C.3   332  GLN332      0.0905
    200  CD        20.1470   16.8670   22.2680 C.2   332  GLN332      0.2608
    201  OE1       19.4270   16.1120   22.9170 O.2   332  GLN332     -0.2717
    202  NE2       21.2430   17.4270   22.7690 N.am  332  GLN332     -0.0878
    203  N         16.5850   18.8410   29.4280 N.3   341  LYS341     -0.1231
    204  CA        17.7220   18.6450   30.3210 C.3   341  LYS341      0.1693
    205  C         18.9120   19.4350   29.7770 C.2   341  LYS341      0.2592
    206  O         18.7770   20.2340   28.8460 O.2   341  LYS341     -0.2718
    207  CB        18.0310   17.1570   30.4690 C.3   341  LYS341      0.0285
    208  CG        18.3140   16.4300   29.1740 C.3   341  LYS341      0.0035
    209  CD        18.6560   14.9640   29.3550 C.3   341  LYS341      0.0206
    210  CE        19.2680   14.5190   28.0440 C.3   341  LYS341      0.1093
    211  NZ        19.2900   13.0910   27.8600 N.3   341  LYS341     -0.1314
    212  N         20.0990   19.2150   30.3360 N.am  342  TYR342     -0.1976
    213  CA        21.2510   20.0320   29.9680 C.3   342  TYR342      0.1639
    214  C         21.6220   19.8480   28.5020 C.2   342  TYR342      0.2290
    215  O         21.8100   18.7220   28.0310 O.2   342  TYR342     -0.2864
    216  CB        22.4600   19.7010   30.8390 C.3   342  TYR342      0.0560
    217  CG        23.6500   20.5580   30.4680 C.ar  342  TYR342     -0.0198
    218  CD1       23.5270   21.9430   30.3810 C.ar  342  TYR342     -0.0009
    219  CD2       24.8830   19.9920   30.1840 C.ar  342  TYR342     -0.0009
    220  CE1       24.6050   22.7360   30.0340 C.ar  342  TYR342      0.0417
    221  CE2       25.9670   20.7810   29.8430 C.ar  342  TYR342      0.0417
    222  CZ        25.8220   22.1500   29.7670 C.ar  342  TYR342      0.1957
    223  OH        26.9010   22.9270   29.4200 O.3   342  TYR342     -0.2866
    224  N         25.2670   17.9090   27.1860 N.3   345  SER345     -0.1202
    225  CA        25.6550   16.5640   27.5740 C.3   345  SER345      0.2020
    226  C         25.6830   15.6440   26.3530 C.2   345  SER345      0.2619
    227  O         25.2910   16.0230   25.2470 O.2   345  SER345     -0.2717
    228  CB        24.6970   16.0300   28.6340 C.3   345  SER345      0.2103
    229  OG        23.3800   15.9650   28.1150 O.3   345  SER345     -0.2182
    230  N         26.1600   14.4190   26.5610 N.am  346  GLY346     -0.1942
    231  CA        25.9860   13.3930   25.5470 C.3   346  GLY346      0.2014
    232  C         24.5190   13.0480   25.3630 C.2   346  GLY346      0.2639
    233  O         23.7230   13.1000   26.3000 O.2   346  GLY346     -0.2714
    234  N         24.1520   12.6840   24.1340 N.am  347  PHE347     -0.1959
    235  CA        22.7620   12.3750   23.8400 C.3   347  PHE347      0.1771
    236  C         22.6830   11.3320   22.7240 C.2   347  PHE347      0.2619
    237  O         23.6550   11.0620   22.0140 O.2   347  PHE347     -0.2715
    238  CB        21.9850   13.6440   23.4490 C.3   347  PHE347      0.0574
    239  CG        22.1590   14.0310   22.0090 C.ar  347  PHE347     -0.0200
    240  CD1       23.2330   14.8200   21.6150 C.ar  347  PHE347     -0.0042
    241  CD2       21.2770   13.5800   21.0480 C.ar  347  PHE347     -0.0042
    242  CE1       23.3970   15.1640   20.2820 C.ar  347  PHE347     -0.0003
    243  CE2       21.4410   13.9090   19.7200 C.ar  347  PHE347     -0.0003
    244  CZ        22.5040   14.7080   19.3390 C.ar  347  PHE347     -0.0000
    245  N         21.4920   10.7610   22.5690 N.am  348  HIS348     -0.1973
    246  CA        21.2000    9.8540   21.4660 C.3   348  HIS348      0.1656
    247  C         19.7050    9.9190   21.2080 C.2   348  HIS348      0.2291
    248  O         18.9610   10.5480   21.9600 O.2   348  HIS348     -0.2864
    249  CB        21.6650    8.4190   21.7710 C.3   348  HIS348      0.0771
    250  CG        21.2360    7.9260   23.1180 C.ar  348  HIS348      0.0820
    251  ND1       19.9970    7.3640   23.3500 N.ar  348  HIS348     -0.2267
    252  CD2       21.8680    7.9560   24.3170 C.ar  348  HIS348      0.1154
    253  CE1       19.8910    7.0650   24.6360 C.ar  348  HIS348      0.1986
    254  NE2       21.0120    7.4120   25.2400 N.ar  348  HIS348     -0.2212
@<TRIPOS>BOND
     1   194   195    1
     2   197   196    2
     3   244   243   ar
     4   244   242   ar
     5   196   195    1
     6   195   198    1
     7   243   241   ar
     8   242   240   ar
     9   185   188    1
    10   185   186    1
    11   185   184    1
    12   188   189    1
    13   186   187    2
    14   198   199    1
    15   199   200    1
    16   241   239   ar
    17   247   246    1
    18   247   248    2
    19     9    10    1
    20   246   249    1
    21   246   245    1
    22   240   239   ar
    23   249   250    1
    24   239   238    1
    25   237   236    2
    26   189   190   ar
    27   189   191   ar
    28   200   202   am
    29   200   201    2
    30    14    15    1
    31    14    13    1
    32   245   236   am
    33    12    11    2
    34   236   235    1
    35    10    13    1
    36    10    11    1
    37   190   192   ar
    38   191   193   ar
    39    15    16    1
    40   250   251   ar
    41   250   252   ar
    42    11    18   am
    43   251   253   ar
    44   238   235    1
    45   235   234    1
    46   192   193   ar
    47   234   232   am
    48    26    25    2
    49   252   254   ar
    50    25    24    1
    51    16    17    1
    52   253   254   ar
    53    18    19    1
    54    21    20    2
    55    99   101   ar
    56    99    97   ar
    57   227   226    2
    58    20    19    1
    59    20    23   am
    60    19    22    1
    61   232   231    1
    62   232   233    2
    63    45    44    2
    64   231   230    1
    65   101   100   ar
    66    34    35    1
    67    23    24    1
    68    24    27    1
    69    96    97   ar
    70    96    94   ar
    71    97    95   ar
    72   226   230   am
    73   226   225    1
    74    44    43    1
    75    27    28    1
    76     3     2    1
    77     3     4    2
    78    40    39    2
    79   100    98   ar
    80   160   159   ar
    81   176   174   ar
    82   176   177   ar
    83     7     6   ar
    84    35    38    1
    85    35    36    1
    86    39    41   am
    87    39    38    1
    88    42    43    1
    89    42    36   am
    90   224   225    1
    91     2     1    1
    92     2     5    1
    93    94    93   ar
    94    95    98   ar
    95    95    93   ar
    96   225   228    1
    97   174   173   ar
    98    50    49    1
    99    43    46    1
   100   177   175   ar
   101    36    37    2
   102   211   210    1
   103     6     5    1
   104     6     8   ar
   105    28    30   ar
   106    28    29   ar
   107   215   214    2
   108    46    47    1
   109   210   209    1
   110   229   228    1
   111   159   158    1
   112   159   161   ar
   113    93    92    1
   114   105   104    2
   115   106   107    1
   116   106   103    1
   117    30    32   ar
   118   214   213    1
   119   158   155    1
   120   155   154    1
   121   155   156    1
   122   107   108    1
   123   168   169    1
   124   173   175   ar
   125   173   172    1
   126    29    31   ar
   127   206   205    2
   128   169   172    1
   129   169   170    1
   130   108   102    1
   131    49    48    1
   132   104   103    1
   133    47    48    1
   134   208   209    1
   135   208   207    1
   136   157   156    2
   137   223   222    1
   138   203   204    1
   139   171   170    2
   140   103   102    1
   141   156   162   am
   142    92    89    1
   143   102    90   am
   144    32    33   ar
   145   222   221   ar
   146   222   220   ar
   147   205   204    1
   148   205   212   am
   149   170   178   am
   150   141   139   ar
   151   141   143   ar
   152   221   219   ar
   153   139   138   ar
   154   213   212    1
   155   213   216    1
   156   220   218   ar
   157    31    33   ar
   158   219   217   ar
   159   204   207    1
   160   218   217   ar
   161    90    89    1
   162    90    91    2
   163    89    88    1
   164   217   216    1
   165    58    56    1
   166   162   163    1
   167   144   143    1
   168    57    56    1
   169   178   179    1
   170   143   142   ar
   171   138   137    1
   172   138   140   ar
   173   148   147    2
   174    56    55    1
   175   137   134    1
   176   134   133    1
   177   134   135    1
   178   180   181    2
   179   180   179    1
   180   147   146    1
   181    80    79    2
   182   164   165    2
   183   164   163    1
   184    88    79   am
   185   179   182    1
   186   163   166    1
   187   142   140   ar
   188   135   136    2
   189   146   145    1
   190   146   149    1
   191    79    78    1
   192    51    52    1
   193    55    52    1
   194    71    70    2
   195    73    74    1
   196    73    72    1
   197   183   182    1
   198    52    53    1
   199   166   167    1
   200    69    70    1
   201    69    72    1
   202    69    68    1
   203   149   150    1
   204   109   110    1
   205    74    75    1
   206    78    81    1
   207    78    77    1
   208   150   151    1
   209   115   114   ar
   210    81    82    1
   211    75    76    1
   212    53    59   am
   213    53    54    2
   214   111   110    1
   215   111   112    2
   216   110   113    1
   217   151   152   ar
   218   151   153   ar
   219   114   113    1
   220   114   116   ar
   221   125   123   ar
   222   125   127   ar
   223    67    66    1
   224    59    60    1
   225   128   127    1
   226   123   122   ar
   227   127   126   ar
   228    82    84   ar
   229    82    83   ar
   230    66    65    1
   231   122   121    1
   232   122   124   ar
   233   126   124   ar
   234    84    86   ar
   235   121   118    1
   236    83    85   ar
   237    60    63    1
   238    60    61    1
   239    63    64    1
   240    61    62    2
   241    65    64    1
   242   118   117    1
   243   118   119    1
   244    86    87   ar
   245    85    87   ar
   246   130   129    1
   247   130   131    1
   248   119   120    2
   249   132   131    2
