@<TRIPOS>MOLECULE
tmp/6aelA01.pdb
 99 96 0 0 0
SMALL
GASTEIGER

@<TRIPOS>ATOM
      1  N         10.6850   -6.8250   16.4470 N.3    80  LEU80      -0.1231
      2  CA         9.6800   -5.8920   15.9360 C.3    80  LEU80       0.1693
      3  C         10.1760   -4.4510   15.9410 C.2    80  LEU80       0.2592
      4  O         10.9380   -4.0390   16.8190 O.2    80  LEU80      -0.2718
      5  CB         8.3840   -5.9570   16.7660 C.3    80  LEU80       0.0284
      6  CG         7.6440   -7.2960   16.7450 C.3    80  LEU80       0.0019
      7  CD1        6.6050   -7.3760   17.8740 C.3    80  LEU80       0.0001
      8  CD2        6.9800   -7.5300   15.3820 C.3    80  LEU80       0.0001
      9  N          9.7230   -3.6840   14.9430 N.am   81  TYR81      -0.1976
     10  CA         9.8510   -2.2320   14.9890 C.3    81  TYR81       0.1639
     11  C          9.1500   -1.6860   16.2310 C.2    81  TYR81       0.2290
     12  O          8.0960   -2.1980   16.6190 O.2    81  TYR81      -0.2864
     13  CB         9.2110   -1.6000   13.7610 C.3    81  TYR81       0.0560
     14  CG         9.8440   -2.0190   12.4650 C.ar   81  TYR81      -0.0198
     15  CD1       11.1620   -1.6810   12.1800 C.ar   81  TYR81      -0.0009
     16  CD2        9.1170   -2.7300   11.5180 C.ar   81  TYR81      -0.0009
     17  CE1       11.7510   -2.0510   10.9780 C.ar   81  TYR81       0.0417
     18  CE2        9.6960   -3.1040   10.3110 C.ar   81  TYR81       0.0417
     19  CZ        11.0080   -2.7740   10.0610 C.ar   81  TYR81       0.1957
     20  OH        11.5750   -3.1520    8.8780 O.3    81  TYR81      -0.2866
     21  N          7.1890    0.7870   16.4540 N.3    83  GLU83      -0.1231
     22  CA         5.7930    1.0960   16.1450 C.3    83  GLU83       0.1699
     23  C          4.8880   -0.1230   16.2850 C.2    83  GLU83       0.2592
     24  O          3.6930    0.0380   16.5560 O.2    83  GLU83      -0.2718
     25  CB         5.6520    1.7020   14.7250 C.3    83  GLU83       0.0402
     26  CG         5.9180    0.7020   13.5920 C.3    83  GLU83       0.1161
     27  CD         5.6660    1.2300   12.1830 C.2    83  GLU83       0.3649
     28  OE1        5.2990    2.4300   11.9940 O.co2  83  GLU83      -0.2457
     29  OE2        5.8520    0.4170   11.2390 O.co2  83  GLU83      -0.2457
     30  N          5.4360   -1.3380   16.1670 N.am   84  SER84      -0.1952
     31  CA         4.6580   -2.5590   16.3450 C.3    84  SER84       0.1924
     32  C          4.7290   -3.1070   17.7660 C.2    84  SER84       0.2314
     33  O          3.7260   -3.6210   18.2780 O.2    84  SER84      -0.2863
     34  CB         5.1210   -3.6490   15.3610 C.3    84  SER84       0.2116
     35  OG         4.8000   -3.2730   14.0320 O.3    84  SER84      -0.2180
     36  N         10.2160    3.4030    9.7470 N.3   313  HIS313     -0.1241
     37  CA         9.0630    2.6260   10.2080 C.3   313  HIS313      0.1621
     38  C          8.5260    3.1580   11.5330 C.2   313  HIS313      0.2264
     39  O          8.4120    2.4350   12.5200 O.2   313  HIS313     -0.2867
     40  CB         9.4330    1.1500   10.3270 C.3   313  HIS313      0.0745
     41  CG         9.8020    0.5340    9.0210 C.ar  313  HIS313      0.0817
     42  ND1        8.8700    0.2800    8.0440 N.ar  313  HIS313     -0.2268
     43  CD2       10.9950    0.1330    8.5220 C.ar  313  HIS313      0.1154
     44  CE1        9.4720   -0.2470    6.9910 C.ar  313  HIS313      0.1986
     45  NE2       10.7610   -0.3470    7.2540 N.ar  313  HIS313     -0.2212
     46  N          5.8110  -14.1880   14.6890 N.3   396  PRO396     -0.2102
     47  CA         5.8960  -13.3030   13.5140 C.3   396  PRO396      0.1504
     48  C          6.5730  -11.9970   13.9000 C.2   396  PRO396      0.2576
     49  O          6.2620  -11.4110   14.9450 O.2   396  PRO396     -0.2718
     50  CB         4.4300  -13.0850   13.1210 C.3   396  PRO396      0.0282
     51  CG         3.6910  -14.2300   13.7340 C.3   396  PRO396      0.0208
     52  CD         4.4180  -14.5750   14.9950 C.3   396  PRO396      0.0893
     53  N          7.5390  -11.5670   13.0860 N.am  397  ASN397     -0.1961
     54  CA         8.3080  -10.3660   13.4150 C.3   397  ASN397      0.1819
     55  C          8.8440   -9.7380   12.1290 C.2   397  ASN397      0.2621
     56  O          8.5550  -10.2000   11.0250 O.2   397  ASN397     -0.2715
     57  CB         9.4160  -10.6900   14.4450 C.3   397  ASN397      0.1195
     58  CG        10.5250  -11.5690   13.8860 C.2   397  ASN397      0.2630
     59  OD1       11.6020  -11.0740   13.5440 O.2   397  ASN397     -0.2716
     60  ND2       10.2930  -12.8970   13.8550 N.am  397  ASN397     -0.0877
     61  N          9.6100   -8.6440   12.2740 N.am  398  ASN398     -0.1972
     62  CA        10.0940   -7.8750   11.1280 C.3   398  ASN398      0.1688
     63  C         11.4800   -8.2940   10.6550 C.2   398  ASN398      0.2292
     64  O         11.9250   -7.8320    9.5990 O.2   398  ASN398     -0.2864
     65  CB        10.0670   -6.3750   11.4740 C.3   398  ASN398      0.1181
     66  CG         8.7130   -5.9820   11.9450 C.2   398  ASN398      0.2629
     67  OD1        8.5270   -5.4410   13.0450 O.2   398  ASN398     -0.2716
     68  ND2        7.7180   -6.3110   11.1160 N.am  398  ASN398     -0.0877
     69  N          1.2880    1.8500    7.5590 N.3   606  ASP606     -0.1225
     70  CA         1.8090    0.7100    8.3000 C.3   606  ASP606      0.1805
     71  C          3.0000    0.0620    7.6070 C.2   606  ASP606      0.2598
     72  O          3.4700   -0.9800    8.0660 O.2   606  ASP606     -0.2718
     73  CB         0.7080   -0.3310    8.5640 C.3   606  ASP606      0.1424
     74  CG         0.2600   -1.0660    7.3120 C.2   606  ASP606      0.3668
     75  OD1        0.6540   -0.7000    6.1910 O.co2 606  ASP606     -0.2456
     76  OD2       -0.4880   -2.0480    7.4570 O.co2 606  ASP606     -0.2456
     77  N          3.5130    0.6690    6.5310 N.am  607  GLY607     -0.1942
     78  CA         4.6500    0.1270    5.8110 C.3   607  GLY607      0.2014
     79  C          4.3490   -1.0960    4.9700 C.2   607  GLY607      0.2638
     80  O          5.2780   -1.7130    4.4280 O.2   607  GLY607     -0.2714
     81  N          3.0820   -1.4640    4.8340 N.am  608  ARG608     -0.1977
     82  CA         2.6890   -2.6330    4.0510 C.3   608  ARG608      0.1597
     83  C          1.6500   -2.2380    3.0130 C.2   608  ARG608      0.2287
     84  O          0.9140   -1.2750    3.2050 O.2   608  ARG608     -0.2864
     85  CB         2.1550   -3.7160    4.9800 C.3   608  ARG608      0.0334
     86  CG         3.2570   -4.1570    5.9280 C.3   608  ARG608      0.0492
     87  CD         2.7670   -5.1340    6.8710 C.3   608  ARG608      0.2205
     88  NE         2.4960   -6.4110    6.2260 N.pl3 608  ARG608     -0.0865
     89  CZ         2.1560   -7.4840    6.9190 C.cat 608  ARG608      0.5346
     90  NH1        1.8980   -8.6390    6.3100 N.pl3 608  ARG608      0.1354
     91  NH2        2.0790   -7.3800    8.2360 N.pl3 608  ARG608      0.1354
     92  N          7.8510   -5.0060    1.1570 N.3   696  LEU696     -0.1245
     93  CA         6.7690   -4.9990    2.1360 C.3   696  LEU696      0.1561
     94  C          5.6450   -4.0470    1.7310 C.2   696  LEU696      0.2260
     95  O          4.4570   -4.3880    1.8390 O.2   696  LEU696     -0.2867
     96  CB         7.3290   -4.6170    3.5080 C.3   696  LEU696      0.0270
     97  CG         8.2180   -5.6230    4.2420 C.3   696  LEU696      0.0019
     98  CD1        8.9430   -4.9530    5.4180 C.3   696  LEU696      0.0001
     99  CD2        7.3490   -6.7890    4.7570 C.3   696  LEU696      0.0001
@<TRIPOS>BOND
     1    92    93    1
     2    94    95    2
     3    94    93    1
     4    93    96    1
     5    83    84    2
     6    83    82    1
     7    96    97    1
     8    82    81    1
     9    82    85    1
    10    97    99    1
    11    97    98    1
    12    80    79    2
    13    81    79   am
    14    79    78    1
    15    85    86    1
    16    78    77    1
    17    86    87    1
    18    75    74   ar
    19    88    87    1
    20    88    89    2
    21    90    89    1
    22    77    71   am
    23    89    91    1
    24    44    45   ar
    25    44    42   ar
    26    45    43   ar
    27    74    76   ar
    28    74    73    1
    29    69    70    1
    30    71    72    2
    31    71    70    1
    32    42    41   ar
    33    70    73    1
    34    43    41   ar
    35    20    19    1
    36    41    40    1
    37    64    63    2
    38    36    37    1
    39    19    18   ar
    40    19    17   ar
    41    37    40    1
    42    37    38    1
    43    18    16   ar
    44    63    62    1
    45    17    15   ar
    46    56    55    2
    47    68    66   am
    48    62    65    1
    49    62    61    1
    50    29    27   ar
    51    65    66    1
    52    16    14   ar
    53    38    39    2
    54    66    67    2
    55    28    27   ar
    56    55    61   am
    57    55    54    1
    58    15    14   ar
    59    27    26    1
    60    14    13    1
    61    53    54    1
    62    53    48   am
    63    50    47    1
    64    50    51    1
    65    54    57    1
    66    47    48    1
    67    47    46    1
    68    59    58    2
    69    26    25    1
    70    51    52    1
    71    13    10    1
    72    60    58   am
    73    58    57    1
    74    48    49    2
    75    35    34    1
    76    46    52    1
    77    25    22    1
    78     9    10    1
    79     9     3   am
    80    10    11    1
    81    34    31    1
    82     8     6    1
    83     2     3    1
    84     2     1    1
    85     2     5    1
    86     3     4    2
    87    22    23    1
    88    22    21    1
    89    30    23   am
    90    30    31    1
    91    11    12    2
    92    23    24    2
    93    31    32    1
    94     6     5    1
    95     6     7    1
    96    32    33    2
