@<TRIPOS>MOLECULE
tmp/6af6A04.pdb
 67 61 0 0 0
SMALL
GASTEIGER

@<TRIPOS>ATOM
      1  N         13.4390   22.3920   22.6640 N.3   127  ALA127     -0.1231
      2  CA        13.1580   23.2540   21.5180 C.3   127  ALA127      0.1694
      3  C         11.6630   23.4010   21.2920 C.2   127  ALA127      0.2592
      4  O         11.1490   24.5270   21.1490 O.2   127  ALA127     -0.2718
      5  CB        13.8380   22.6840   20.2610 C.3   127  ALA127      0.0304
      6  N         10.9370   22.2620   21.2370 N.am  128  THR128     -0.1953
      7  CA         9.5070   22.2780   20.9550 C.3   128  THR128      0.1897
      8  C          8.7060   23.0880   21.9510 C.2   128  THR128      0.2313
      9  O          8.9160   23.0450   23.1730 O.2   128  THR128     -0.2863
     10  CB         9.0050   20.8170   20.9150 C.3   128  THR128      0.1794
     11  OG1        9.7850   20.1930   19.9330 O.3   128  THR128     -0.2208
     12  CG2        7.4980   20.7720   20.5880 C.3   128  THR128      0.0378
     13  N          5.9700   23.1650   16.7470 N.3   133  GLY133     -0.1210
     14  CA         6.3670   21.7540   16.7230 C.3   133  GLY133      0.1956
     15  C          7.0490   21.5540   15.3870 C.2   133  GLY133      0.2612
     16  O          8.2590   21.7720   15.2190 O.2   133  GLY133     -0.2717
     17  N          6.2750   21.2070   14.3210 N.am  134  SER134     -0.1952
     18  CA         6.8670   21.1910   13.0090 C.3   134  SER134      0.1924
     19  C          7.4260   22.5580   12.6110 C.2   134  SER134      0.2314
     20  O          8.4750   22.6310   11.9530 O.2   134  SER134     -0.2863
     21  CB         5.8590   20.7430   11.9560 C.3   134  SER134      0.2116
     22  OG         5.4780   19.3580   12.2990 O.3   134  SER134     -0.2180
     23  N          9.1540   24.8320   13.8920 N.3   136  ILE136     -0.1245
     24  CA         9.9400   24.9840   15.1280 C.3   136  ILE136      0.1561
     25  C         10.5340   26.3730   15.2170 C.2   136  ILE136      0.2260
     26  O         10.7060   26.9070   16.3330 O.2   136  ILE136     -0.2867
     27  CB        10.9930   23.8670   15.1660 C.3   136  ILE136      0.0252
     28  CG1       11.7100   23.8120   16.5340 C.3   136  ILE136      0.0019
     29  CG2       11.9880   23.9880   14.0120 C.3   136  ILE136      0.0019
     30  CD1       10.7720   23.6120   17.7130 C.3   136  ILE136      0.0001
     31  N         20.4710   23.7830   16.0970 N.3   237  PHE237     -0.1241
     32  CA        19.3590   22.8290   16.2360 C.3   237  PHE237      0.1605
     33  C         19.3010   21.9350   15.0120 C.2   237  PHE237      0.2264
     34  O         19.1110   20.7040   15.1110 O.2   237  PHE237     -0.2867
     35  CB        18.0390   23.5720   16.4070 C.3   237  PHE237      0.0534
     36  CG        16.8410   22.6460   16.5470 C.ar  237  PHE237     -0.0203
     37  CD1       16.6540   21.9460   17.7410 C.ar  237  PHE237     -0.0042
     38  CD2       15.9570   22.4490   15.4990 C.ar  237  PHE237     -0.0042
     39  CE1       15.5780   21.0550   17.8850 C.ar  237  PHE237     -0.0003
     40  CE2       14.8680   21.5600   15.6500 C.ar  237  PHE237     -0.0003
     41  CZ        14.6910   20.8990   16.8470 C.ar  237  PHE237     -0.0000
     42  N         19.6420   17.8580   14.7930 N.3   241  MET241     -0.1245
     43  CA        18.5930   16.9440   14.3030 C.3   241  MET241      0.1570
     44  C         19.1150   16.0310   13.2220 C.2   241  MET241      0.2261
     45  O         18.5670   14.9190   13.0640 O.2   241  MET241     -0.2867
     46  CB        17.3360   17.6990   13.7880 C.3   241  MET241      0.0387
     47  CG        16.5190   18.3500   14.9280 C.3   241  MET241      0.0595
     48  SD        15.9810   17.2200   16.2960 S.3   241  MET241     -0.1393
     49  CE        17.1190   17.5680   17.6860 C.3   241  MET241      0.0692
     50  N         12.2090   14.2160   16.0860 N.3   365  SER365     -0.1202
     51  CA        13.1990   14.8410   15.2170 C.3   365  SER365      0.2020
     52  C         12.6110   15.3180   13.8970 C.2   365  SER365      0.2619
     53  O         13.3550   15.5100   12.9320 O.2   365  SER365     -0.2717
     54  CB        14.3950   13.9610   14.9760 C.3   365  SER365      0.2103
     55  OG        15.1120   13.8780   16.2150 O.3   365  SER365     -0.2182
     56  N         11.3000   15.5150   13.8720 N.am  366  GLY366     -0.1956
     57  CA        10.6440   16.0310   12.6830 C.3   366  GLY366      0.1869
     58  C          9.7440   14.9350   12.1630 C.2   366  GLY366      0.2309
     59  O         10.1960   13.8110   11.9560 O.2   366  GLY366     -0.2863
     60  N          7.3610   16.2080    7.4570 N.3   370  ILE370     -0.1245
     61  CA         8.4260   17.1920    7.4050 C.3   370  ILE370      0.1561
     62  C          9.6680   16.6110    6.7220 C.2   370  ILE370      0.2260
     63  O         10.3520   17.3150    5.9860 O.2   370  ILE370     -0.2867
     64  CB         8.7090   17.7040    8.8340 C.3   370  ILE370      0.0252
     65  CG1        7.7370   18.8450    9.2560 C.3   370  ILE370      0.0019
     66  CG2       10.1320   18.2470    8.9640 C.3   370  ILE370      0.0019
     67  CD1        6.3380   18.7440    8.8720 C.3   370  ILE370      0.0001
@<TRIPOS>BOND
     1    63    62    2
     2    62    61    1
     3    61    60    1
     4    61    64    1
     5    64    66    1
     6    64    65    1
     7    67    65    1
     8    20    19    2
     9    59    58    2
    10    21    22    1
    11    21    18    1
    12    58    57    1
    13    19    18    1
    14    57    56    1
    15    53    52    2
    16    18    17    1
    17    45    44    2
    18    44    43    1
    19    46    43    1
    20    46    47    1
    21    56    52   am
    22    23    24    1
    23    52    51    1
    24    29    27    1
    25    43    42    1
    26    17    15   am
    27    47    48    1
    28    54    51    1
    29    54    55    1
    30    33    34    2
    31    33    32    1
    32    24    27    1
    33    24    25    1
    34    27    28    1
    35    51    50    1
    36    25    26    2
    37    16    15    2
    38    15    14    1
    39    38    40   ar
    40    38    36   ar
    41    40    41   ar
    42    31    32    1
    43    32    35    1
    44    48    49    1
    45    35    36    1
    46    28    30    1
    47    36    37   ar
    48    14    13    1
    49    41    39   ar
    50    37    39   ar
    51    11    10    1
    52     5     2    1
    53    12    10    1
    54    10     7    1
    55     7     6    1
    56     7     8    1
    57     4     3    2
    58     6     3   am
    59     3     2    1
    60     2     1    1
    61     8     9    2
