@<TRIPOS>MOLECULE
tmp/6af6A03.pdb
 107 99 0 0 0
SMALL
GASTEIGER

@<TRIPOS>ATOM
      1  N         16.5700    5.0210   24.0150 N.3    87  PHE87      -0.1241
      2  CA        16.1580    6.2760   23.4150 C.3    87  PHE87       0.1605
      3  C         16.6280    7.4590   24.2740 C.2    87  PHE87       0.2264
      4  O         17.1050    8.4610   23.7470 O.2    87  PHE87      -0.2867
      5  CB        14.6110    6.2960   23.2140 C.3    87  PHE87       0.0534
      6  CG        14.1090    7.5660   22.5490 C.ar   87  PHE87      -0.0203
      7  CD1       14.1870    7.6940   21.1960 C.ar   87  PHE87      -0.0042
      8  CD2       13.6080    8.6030   23.3060 C.ar   87  PHE87      -0.0042
      9  CE1       13.7430    8.9430   20.5970 C.ar   87  PHE87      -0.0003
     10  CE2       13.1430    9.7740   22.6980 C.ar   87  PHE87      -0.0003
     11  CZ        13.2700    9.9070   21.3720 C.ar   87  PHE87      -0.0000
     12  N         19.0700   10.3650   22.9070 N.3    91  ALA91      -0.1245
     13  CA        18.6260   11.7520   22.9000 C.3    91  ALA91       0.1562
     14  C         19.6740   12.6320   23.5780 C.2    91  ALA91       0.2260
     15  O         20.0380   13.6880   23.0790 O.2    91  ALA91      -0.2867
     16  CB        17.2820   11.8880   23.5920 C.3    91  ALA91       0.0290
     17  N         22.6380   12.8000   21.0400 N.3    94  CYS94      -0.1221
     18  CA        22.5510   13.4890   19.7470 C.3    94  CYS94       0.1808
     19  C         22.0880   14.9140   19.8840 C.2    94  CYS94       0.2601
     20  O         22.4660   15.7770   19.0750 O.2    94  CYS94      -0.2717
     21  CB        21.5900   12.7250   18.7990 C.3    94  CYS94       0.0970
     22  SG        22.1830   11.0910   18.4210 S.3    94  CYS94      -0.0800
     23  N         21.2200   15.2050   20.8340 N.am   95  ALA95      -0.1979
     24  CA        20.6530   16.5290   20.8990 C.3    95  ALA95       0.1597
     25  C         21.3490   17.3830   21.9410 C.2    95  ALA95       0.2287
     26  O         21.0300   18.5930   22.0430 O.2    95  ALA95      -0.2864
     27  CB        19.1560   16.4520   21.2120 C.3    95  ALA95       0.0319
     28  N         17.2010   18.3320   25.7720 N.3   125  ASN125     -0.1240
     29  CA        17.1940   19.3730   24.7350 C.3   125  ASN125      0.1653
     30  C         15.7810   19.9350   24.6600 C.2   125  ASN125      0.2266
     31  O         14.8110   19.1740   24.5860 O.2   125  ASN125     -0.2867
     32  CB        17.6630   18.7650   23.4100 C.3   125  ASN125      0.1155
     33  CG        16.9100   19.2930   22.2010 C.2   125  ASN125      0.2627
     34  OD1       15.9280   18.7170   21.7440 O.2   125  ASN125     -0.2716
     35  ND2       17.4050   20.3360   21.6640 N.am  125  ASN125     -0.0877
     36  N         13.4390   22.3920   22.6640 N.3   127  ALA127     -0.1231
     37  CA        13.1580   23.2540   21.5180 C.3   127  ALA127      0.1694
     38  C         11.6630   23.4010   21.2920 C.2   127  ALA127      0.2592
     39  O         11.1490   24.5270   21.1490 O.2   127  ALA127     -0.2718
     40  CB        13.8380   22.6840   20.2610 C.3   127  ALA127      0.0304
     41  N         10.9370   22.2620   21.2370 N.am  128  THR128     -0.1953
     42  CA         9.5070   22.2780   20.9550 C.3   128  THR128      0.1897
     43  C          8.7060   23.0880   21.9510 C.2   128  THR128      0.2313
     44  O          8.9160   23.0450   23.1730 O.2   128  THR128     -0.2863
     45  CB         9.0050   20.8170   20.9150 C.3   128  THR128      0.1794
     46  OG1        9.7850   20.1930   19.9330 O.3   128  THR128     -0.2208
     47  CG2        7.4980   20.7720   20.5880 C.3   128  THR128      0.0378
     48  N         12.2500   15.1260   26.2860 N.3   160  THR160     -0.1218
     49  CA        12.8490   13.8450   26.7110 C.3   160  THR160      0.1862
     50  C         13.9120   14.1070   27.7760 C.2   160  THR160      0.2287
     51  O         14.7260   15.0310   27.6290 O.2   160  THR160     -0.2866
     52  CB        13.4400   13.1880   25.4780 C.3   160  THR160      0.1770
     53  OG1       12.3230   12.8760   24.6250 O.3   160  THR160     -0.2211
     54  CG2       14.1540   11.8740   25.8800 C.3   160  THR160      0.0375
     55  N         20.4710   23.7830   16.0970 N.3   237  PHE237     -0.1241
     56  CA        19.3590   22.8290   16.2360 C.3   237  PHE237      0.1605
     57  C         19.3010   21.9350   15.0120 C.2   237  PHE237      0.2264
     58  O         19.1110   20.7040   15.1110 O.2   237  PHE237     -0.2867
     59  CB        18.0390   23.5720   16.4070 C.3   237  PHE237      0.0534
     60  CG        16.8410   22.6460   16.5470 C.ar  237  PHE237     -0.0203
     61  CD1       16.6540   21.9460   17.7410 C.ar  237  PHE237     -0.0042
     62  CD2       15.9570   22.4490   15.4990 C.ar  237  PHE237     -0.0042
     63  CE1       15.5780   21.0550   17.8850 C.ar  237  PHE237     -0.0003
     64  CE2       14.8680   21.5600   15.6500 C.ar  237  PHE237     -0.0003
     65  CZ        14.6910   20.8990   16.8470 C.ar  237  PHE237     -0.0000
     66  N         19.6420   17.8580   14.7930 N.3   241  MET241     -0.1245
     67  CA        18.5930   16.9440   14.3030 C.3   241  MET241      0.1570
     68  C         19.1150   16.0310   13.2220 C.2   241  MET241      0.2261
     69  O         18.5670   14.9190   13.0640 O.2   241  MET241     -0.2867
     70  CB        17.3360   17.6990   13.7880 C.3   241  MET241      0.0387
     71  CG        16.5190   18.3500   14.9280 C.3   241  MET241      0.0595
     72  SD        15.9810   17.2200   16.2960 S.3   241  MET241     -0.1393
     73  CE        17.1190   17.5680   17.6860 C.3   241  MET241      0.0692
     74  N         20.4710   13.2420   15.3420 N.3   244  ALA244     -0.1245
     75  CA        19.3070   12.5400   15.8830 C.3   244  ALA244      0.1562
     76  C         18.6100   11.7010   14.8170 C.2   244  ALA244      0.2260
     77  O         18.2670   10.5190   15.0660 O.2   244  ALA244     -0.2867
     78  CB        18.3570   13.5410   16.5270 C.3   244  ALA244      0.0290
     79  N         20.4880    8.2640   15.7320 N.3   248  LEU248     -0.1245
     80  CA        19.5190    7.7240   16.6710 C.3   248  LEU248      0.1561
     81  C         18.5910    6.7200   15.9870 C.2   248  LEU248      0.2260
     82  O         18.2710    5.6790   16.5680 O.2   248  LEU248     -0.2867
     83  CB        18.7390    8.8450   17.3290 C.3   248  LEU248      0.0270
     84  CG        17.8740    8.5010   18.5220 C.3   248  LEU248      0.0019
     85  CD1       17.7160    9.7620   19.3720 C.3   248  LEU248      0.0001
     86  CD2       16.4700    8.0370   18.0800 C.3   248  LEU248      0.0001
     87  N          9.3570   11.9550   16.2210 N.3   364  PHE364     -0.1227
     88  CA        10.3610   12.8530   16.7760 C.3   364  PHE364      0.1736
     89  C         11.4880   13.1410   15.7580 C.2   364  PHE364      0.2596
     90  O         11.6170   12.5410   14.6720 O.2   364  PHE364     -0.2718
     91  CB        10.8870   12.3380   18.1250 C.3   364  PHE364      0.0547
     92  CG        11.2360   10.8930   18.1180 C.ar  364  PHE364     -0.0202
     93  CD1       12.2340   10.4150   17.3020 C.ar  364  PHE364     -0.0042
     94  CD2       10.5780   10.0130   18.9330 C.ar  364  PHE364     -0.0042
     95  CE1       12.5480    9.0770   17.2700 C.ar  364  PHE364     -0.0003
     96  CE2       10.8750    8.6540   18.9260 C.ar  364  PHE364     -0.0003
     97  CZ        11.8750    8.1790   18.1100 C.ar  364  PHE364     -0.0000
     98  N         12.2090   14.2160   16.0860 N.am  365  SER365     -0.1938
     99  CA        13.1990   14.8410   15.2170 C.3   365  SER365      0.2055
    100  C         12.6110   15.3180   13.8970 C.2   365  SER365      0.2643
    101  O         13.3550   15.5100   12.9320 O.2   365  SER365     -0.2714
    102  CB        14.3950   13.9610   14.9760 C.3   365  SER365      0.2130
    103  OG        15.1120   13.8780   16.2150 O.3   365  SER365     -0.2179
    104  N         11.3000   15.5150   13.8720 N.am  366  GLY366     -0.1954
    105  CA        10.6440   16.0310   12.6830 C.3   366  GLY366      0.1869
    106  C          9.7440   14.9350   12.1630 C.2   366  GLY366      0.2309
    107  O         10.1960   13.8110   11.9560 O.2   366  GLY366     -0.2863
@<TRIPOS>BOND
     1   107   106    2
     2   106   105    1
     3   105   104    1
     4   101   100    2
     5    69    68    2
     6    68    67    1
     7    70    67    1
     8    70    71    1
     9   104   100   am
    10   100    99    1
    11    67    66    1
    12    90    89    2
    13    76    77    2
    14    76    75    1
    15    71    72    1
    16   102    99    1
    17   102   103    1
    18    57    58    2
    19    57    56    1
    20    99    98    1
    21    74    75    1
    22    62    64   ar
    23    62    60   ar
    24    64    65   ar
    25    79    80    1
    26    89    98   am
    27    89    88    1
    28    75    78    1
    29    81    82    2
    30    81    80    1
    31    55    56    1
    32    87    88    1
    33    56    59    1
    34    72    73    1
    35    59    60    1
    36    60    61   ar
    37    80    83    1
    38    88    91    1
    39    65    63   ar
    40    95    93   ar
    41    95    97   ar
    42    93    92   ar
    43    83    84    1
    44    61    63   ar
    45    86    84    1
    46    97    96   ar
    47    92    91    1
    48    92    94   ar
    49    22    21    1
    50    84    85    1
    51    21    18    1
    52    96    94   ar
    53    20    19    2
    54    18    19    1
    55    18    17    1
    56    19    23   am
    57    46    45    1
    58    40    37    1
    59    47    45    1
    60     9     7   ar
    61     9    11   ar
    62    23    24    1
    63    24    27    1
    64    24    25    1
    65    45    42    1
    66    42    41    1
    67    42    43    1
    68    39    38    2
    69     7     6   ar
    70    41    38   am
    71    38    37    1
    72    11    10   ar
    73    37    36    1
    74    35    33   am
    75    34    33    2
    76    25    26    2
    77    43    44    2
    78    33    32    1
    79     6     5    1
    80     6     8   ar
    81    10     8   ar
    82    13    12    1
    83    13    14    1
    84    13    16    1
    85    15    14    2
    86     5     2    1
    87    32    29    1
    88     2     1    1
    89     2     3    1
    90     4     3    2
    91    31    30    2
    92    53    52    1
    93    30    29    1
    94    29    28    1
    95    52    54    1
    96    52    49    1
    97    48    49    1
    98    49    50    1
    99    51    50    2
