@<TRIPOS>MOLECULE
tmp/6afcA00.pdb
 82 76 0 0 0
SMALL
GASTEIGER

@<TRIPOS>ATOM
      1  N         24.0910  -22.9830  -23.3730 N.3    14  GLU14      -0.1245
      2  CA        23.8740  -24.0900  -24.3190 C.3    14  GLU14       0.1567
      3  C         22.4660  -24.6360  -24.0710 C.2    14  GLU14       0.2260
      4  O         22.1520  -25.1130  -22.9820 O.2    14  GLU14      -0.2867
      5  CB        24.9730  -25.1560  -24.1870 C.3    14  GLU14       0.0388
      6  CG        25.4810  -25.7180  -25.5120 C.3    14  GLU14       0.1160
      7  CD        24.4130  -26.3760  -26.3420 C.2    14  GLU14       0.3649
      8  OE1       23.4820  -26.9440  -25.7770 O.co2  14  GLU14      -0.2457
      9  OE2       24.5800  -26.2650  -27.6010 O.co2  14  GLU14      -0.2457
     10  N         21.9940  -28.2630  -22.9020 N.3    17  GLU17      -0.1245
     11  CA        22.4040  -28.4120  -21.5140 C.3    17  GLU17       0.1567
     12  C         21.4640  -27.7610  -20.5140 C.2    17  GLU17       0.2260
     13  O         21.5720  -28.0210  -19.3190 O.2    17  GLU17      -0.2867
     14  CB        23.8040  -27.8360  -21.3640 C.3    17  GLU17       0.0388
     15  CG        24.8790  -28.5650  -22.1790 C.3    17  GLU17       0.1160
     16  CD        26.1980  -27.8270  -22.2730 C.2    17  GLU17       0.3649
     17  OE1       26.4470  -26.9170  -21.4260 O.co2  17  GLU17      -0.2457
     18  OE2       27.0030  -28.1990  -23.1900 O.co2  17  GLU17      -0.2457
     19  N         22.8100  -21.4190  -29.6500 N.3    47  ARG47      -0.1245
     20  CA        22.4680  -21.7880  -31.0450 C.3    47  ARG47       0.1563
     21  C         21.0820  -21.1790  -31.3690 C.2    47  ARG47       0.2260
     22  O         20.3200  -21.7110  -32.2130 O.2    47  ARG47      -0.2867
     23  CB        22.4910  -23.3010  -31.2690 C.3    47  ARG47       0.0307
     24  CG        23.8230  -23.8290  -31.7530 C.3    47  ARG47       0.0489
     25  CD        24.8280  -23.7510  -30.6290 C.3    47  ARG47       0.2205
     26  NE        26.2020  -24.0660  -31.0330 N.pl3  47  ARG47      -0.0865
     27  CZ        27.2320  -23.9750  -30.2200 C.cat  47  ARG47       0.5346
     28  NH1       27.0210  -23.6060  -28.9660 N.pl3  47  ARG47       0.1354
     29  NH2       28.4450  -24.2370  -30.6400 N.pl3  47  ARG47       0.1354
     30  N         27.8290  -23.7030  -22.3320 N.3    74  GLY74      -0.1210
     31  CA        27.8960  -22.6960  -23.4040 C.3    74  GLY74       0.1956
     32  C         28.9820  -21.7000  -22.9680 C.2    74  GLY74       0.2611
     33  O         28.9360  -21.1890  -21.8320 O.2    74  GLY74      -0.2717
     34  N         29.9550  -21.4130  -23.8360 N.am   75  ASN75      -0.1974
     35  CA        31.0760  -20.5610  -23.4310 C.3    75  ASN75       0.1688
     36  C         30.6050  -19.2020  -22.9850 C.2    75  ASN75       0.2292
     37  O         31.0120  -18.6610  -21.9420 O.2    75  ASN75      -0.2864
     38  CB        32.0380  -20.4130  -24.5440 C.3    75  ASN75       0.1181
     39  CG        32.8350  -21.6200  -24.7630 C.2    75  ASN75       0.2629
     40  OD1       33.3100  -21.8730  -25.8540 O.2    75  ASN75      -0.2716
     41  ND2       33.0060  -22.4060  -23.7090 N.am   75  ASN75      -0.0877
     42  N         29.8200  -28.6750  -18.7980 N.3   105  CYS105     -0.1221
     43  CA        30.5080  -28.2240  -20.0140 C.3   105  CYS105      0.1808
     44  C         31.4930  -27.1030  -19.6450 C.2   105  CYS105      0.2601
     45  O         32.4770  -27.4230  -18.9290 O.2   105  CYS105     -0.2717
     46  CB        29.4890  -27.9000  -21.0820 C.3   105  CYS105      0.0970
     47  SG        30.2040  -28.0040  -22.7290 S.3   105  CYS105     -0.0800
     48  N         31.2500  -25.8410  -20.0180 N.am  106  ALA106     -0.1979
     49  CA        32.0250  -24.6940  -19.4940 C.3   106  ALA106      0.1597
     50  C         31.4470  -24.1680  -18.1770 C.2   106  ALA106      0.2287
     51  O         32.0870  -23.3570  -17.4830 O.2   106  ALA106     -0.2864
     52  CB        32.1180  -23.5810  -20.5060 C.3   106  ALA106      0.0319
     53  N         33.9820  -29.6500  -20.1470 N.3   125  HIS125     -0.1241
     54  CA        34.2670  -29.9080  -21.5310 C.3   125  HIS125      0.1621
     55  C         35.7950  -29.9480  -21.7240 C.2   125  HIS125      0.2264
     56  O         36.5020  -29.1230  -21.1260 O.2   125  HIS125     -0.2867
     57  CB        33.6910  -28.8150  -22.4250 C.3   125  HIS125      0.0745
     58  CG        33.6740  -29.2070  -23.8650 C.ar  125  HIS125      0.0817
     59  ND1       34.7620  -29.0810  -24.7080 N.ar  125  HIS125     -0.2268
     60  CD2       32.7430  -29.8980  -24.5520 C.ar  125  HIS125      0.1154
     61  CE1       34.4690  -29.6140  -25.8800 C.ar  125  HIS125      0.1986
     62  NE2       33.2430  -30.0960  -25.8160 N.ar  125  HIS125     -0.2212
     63  N         37.5750  -28.6310  -23.9320 N.3   127  LEU127     -0.1231
     64  CA        38.0880  -27.3230  -24.2910 C.3   127  LEU127      0.1693
     65  C         38.0900  -26.2990  -23.1650 C.2   127  LEU127      0.2591
     66  O         38.6810  -25.2140  -23.3210 O.2   127  LEU127     -0.2718
     67  CB        37.3700  -26.7810  -25.5330 C.3   127  LEU127      0.0284
     68  CG        37.4600  -27.6190  -26.8030 C.3   127  LEU127      0.0019
     69  CD1       36.5580  -27.0690  -27.9130 C.3   127  LEU127      0.0001
     70  CD2       38.9290  -27.7130  -27.2410 C.3   127  LEU127      0.0001
     71  N         37.4290  -26.6130  -22.0520 N.am  128  ALA128     -0.1980
     72  CA        37.3800  -25.7490  -20.9030 C.3   128  ALA128      0.1597
     73  C         38.3480  -26.1930  -19.7880 C.2   128  ALA128      0.2287
     74  O         38.4170  -25.5260  -18.7130 O.2   128  ALA128     -0.2864
     75  CB        35.9580  -25.6660  -20.3330 C.3   128  ALA128      0.0319
     76  N         27.1660  -31.5460  -24.1700 N.3   157  PRO157     -0.2116
     77  CA        25.7810  -31.8590  -24.5190 C.3   157  PRO157      0.1372
     78  C         25.5060  -33.3330  -24.4570 C.2   157  PRO157      0.2244
     79  O         24.4490  -33.7660  -23.9710 O.2   157  PRO157     -0.2868
     80  CB        25.6550  -31.2830  -25.9210 C.3   157  PRO157      0.0268
     81  CG        26.6120  -30.1170  -25.9220 C.3   157  PRO157      0.0207
     82  CD        27.8040  -30.5940  -25.1050 C.3   157  PRO157      0.0892
@<TRIPOS>BOND
     1    22    21    2
     2    24    23    1
     3    24    25    1
     4    21    20    1
     5    23    20    1
     6    20    19    1
     7    26    25    1
     8    26    27    2
     9    29    27    1
    10    27    28    1
    11    69    68    1
    12     9     7   ar
    13    70    68    1
    14    68    67    1
    15     7     8   ar
    16     7     6    1
    17    81    80    1
    18    81    82    1
    19    80    77    1
    20    61    62   ar
    21    61    59   ar
    22    40    39    2
    23    62    60   ar
    24    67    64    1
    25     6     5    1
    26    82    76    1
    27    39    38    1
    28    39    41   am
    29    59    58   ar
    30    60    58   ar
    31    38    35    1
    32    77    78    1
    33    77    76    1
    34    78    79    2
    35     2     5    1
    36     2     3    1
    37     2     1    1
    38    64    63    1
    39    64    65    1
    40     3     4    2
    41    58    57    1
    42    34    35    1
    43    34    32   am
    44    35    36    1
    45    31    32    1
    46    31    30    1
    47    66    65    2
    48    18    16   ar
    49    65    71   am
    50    36    37    2
    51    32    33    2
    52    10    11    1
    53    47    46    1
    54    57    54    1
    55    16    15    1
    56    16    17   ar
    57    15    14    1
    58    71    72    1
    59    55    54    1
    60    55    56    2
    61    54    53    1
    62    11    14    1
    63    11    12    1
    64    46    43    1
    65    72    75    1
    66    72    73    1
    67    12    13    2
    68    52    49    1
    69    48    44   am
    70    48    49    1
    71    43    44    1
    72    43    42    1
    73    73    74    2
    74    44    45    2
    75    49    50    1
    76    50    51    2
