@<TRIPOS>MOLECULE
tmp/6afdA00.pdb
 82 76 0 0 0
SMALL
GASTEIGER

@<TRIPOS>ATOM
      1  N         24.2110  -23.1130  -23.3530 N.3    14  GLU14      -0.1245
      2  CA        23.9610  -24.2110  -24.2590 C.3    14  GLU14       0.1567
      3  C         22.5510  -24.7290  -23.9760 C.2    14  GLU14       0.2260
      4  O         22.2440  -25.2240  -22.8850 O.2    14  GLU14      -0.2867
      5  CB        25.0160  -25.2790  -24.0810 C.3    14  GLU14       0.0388
      6  CG        25.5190  -25.9170  -25.3580 C.3    14  GLU14       0.1160
      7  CD        24.4280  -26.5180  -26.1830 C.2    14  GLU14       0.3649
      8  OE1       23.5500  -27.1690  -25.5990 O.co2  14  GLU14      -0.2457
      9  OE2       24.5560  -26.4470  -27.4650 O.co2  14  GLU14      -0.2457
     10  N         22.1210  -28.3660  -22.7830 N.3    17  GLU17      -0.1245
     11  CA        22.5670  -28.5030  -21.3940 C.3    17  GLU17       0.1567
     12  C         21.6580  -27.8270  -20.3950 C.2    17  GLU17       0.2260
     13  O         21.7370  -28.0990  -19.1920 O.2    17  GLU17      -0.2867
     14  CB        23.9620  -27.9290  -21.2550 C.3    17  GLU17       0.0388
     15  CG        25.0220  -28.6590  -22.0830 C.3    17  GLU17       0.1160
     16  CD        26.3640  -27.9440  -22.1590 C.2    17  GLU17       0.3649
     17  OE1       26.5860  -27.0180  -21.3560 O.co2  17  GLU17      -0.2457
     18  OE2       27.1580  -28.3260  -23.0820 O.co2  17  GLU17      -0.2457
     19  N         22.7910  -21.5850  -29.6280 N.3    47  ARG47      -0.1245
     20  CA        22.3840  -21.9680  -30.9860 C.3    47  ARG47       0.1563
     21  C         21.0160  -21.3600  -31.3010 C.2    47  ARG47       0.2260
     22  O         20.2480  -21.8830  -32.1100 O.2    47  ARG47      -0.2867
     23  CB        22.4580  -23.4940  -31.2020 C.3    47  ARG47       0.0307
     24  CG        23.8090  -23.9900  -31.6730 C.3    47  ARG47       0.0489
     25  CD        24.8060  -23.8770  -30.5480 C.3    47  ARG47       0.2205
     26  NE        26.1560  -24.2450  -30.9530 N.pl3  47  ARG47      -0.0865
     27  CZ        27.1900  -24.2910  -30.1150 C.cat  47  ARG47       0.5346
     28  NH1       26.9870  -23.9830  -28.8310 N.pl3  47  ARG47       0.1354
     29  NH2       28.4060  -24.5860  -30.5320 N.pl3  47  ARG47       0.1354
     30  N         27.8850  -23.8130  -22.3610 N.3    74  GLY74      -0.1210
     31  CA        27.9700  -22.8180  -23.4390 C.3    74  GLY74       0.1956
     32  C         29.0280  -21.8210  -23.0300 C.2    74  GLY74       0.2611
     33  O         28.9420  -21.2790  -21.9110 O.2    74  GLY74      -0.2717
     34  N         30.0590  -21.5960  -23.8370 N.am   75  ASN75      -0.1974
     35  CA        31.1710  -20.7450  -23.3690 C.3    75  ASN75       0.1688
     36  C         30.6760  -19.3590  -22.9680 C.2    75  ASN75       0.2292
     37  O         31.0970  -18.8320  -21.9390 O.2    75  ASN75      -0.2864
     38  CB        32.2120  -20.6040  -24.4520 C.3    75  ASN75       0.1181
     39  CG        33.2140  -21.7260  -24.4810 C.2    75  ASN75       0.2629
     40  OD1       33.1470  -22.6930  -23.7000 O.2    75  ASN75      -0.2716
     41  ND2       34.1790  -21.6120  -25.3880 N.am   75  ASN75      -0.0877
     42  N         30.0020  -28.7420  -18.8220 N.3   105  CYS105     -0.1221
     43  CA        30.7100  -28.2870  -20.0200 C.3   105  CYS105      0.1808
     44  C         31.7050  -27.1910  -19.6360 C.2   105  CYS105      0.2601
     45  O         32.6840  -27.5170  -18.9390 O.2   105  CYS105     -0.2717
     46  CB        29.7630  -27.9530  -21.1610 C.3   105  CYS105      0.0970
     47  SG        30.5380  -28.1450  -22.7650 S.3   105  CYS105     -0.0800
     48  N         31.4780  -25.9290  -20.0130 N.am  106  ALA106     -0.1979
     49  CA        32.2610  -24.7820  -19.4950 C.3   106  ALA106      0.1597
     50  C         31.6610  -24.2220  -18.1920 C.2   106  ALA106      0.2287
     51  O         32.2760  -23.4010  -17.5330 O.2   106  ALA106     -0.2864
     52  CB        32.4150  -23.6650  -20.4940 C.3   106  ALA106      0.0319
     53  N         34.2290  -29.7840  -20.0960 N.3   125  HIS125     -0.1241
     54  CA        34.4940  -30.0920  -21.4890 C.3   125  HIS125      0.1621
     55  C         36.0210  -30.1260  -21.6800 C.2   125  HIS125      0.2264
     56  O         36.7310  -29.2860  -21.0780 O.2   125  HIS125     -0.2867
     57  CB        33.9690  -29.0260  -22.4180 C.3   125  HIS125      0.0745
     58  CG        33.9020  -29.4580  -23.8320 C.ar  125  HIS125      0.0817
     59  ND1       34.9520  -29.3330  -24.6970 N.ar  125  HIS125     -0.2268
     60  CD2       32.9260  -30.1090  -24.5050 C.ar  125  HIS125      0.1154
     61  CE1       34.6280  -29.8570  -25.8610 C.ar  125  HIS125      0.1986
     62  NE2       33.4040  -30.3430  -25.7800 N.ar  125  HIS125     -0.2212
     63  N         37.7640  -28.7830  -23.9440 N.3   127  LEU127     -0.1231
     64  CA        38.2070  -27.4440  -24.3230 C.3   127  LEU127      0.1693
     65  C         38.1930  -26.4110  -23.2260 C.2   127  LEU127      0.2591
     66  O         38.7800  -25.3370  -23.4050 O.2   127  LEU127     -0.2718
     67  CB        37.4550  -26.9340  -25.5440 C.3   127  LEU127      0.0284
     68  CG        37.6330  -27.7710  -26.8010 C.3   127  LEU127      0.0019
     69  CD1       36.6060  -27.3630  -27.8500 C.3   127  LEU127      0.0001
     70  CD2       39.0540  -27.7570  -27.3360 C.3   127  LEU127      0.0001
     71  N         37.5860  -26.7440  -22.0850 N.am  128  ALA128     -0.1980
     72  CA        37.5130  -25.8720  -20.9160 C.3   128  ALA128      0.1597
     73  C         38.4780  -26.2810  -19.8120 C.2   128  ALA128      0.2287
     74  O         38.5410  -25.6160  -18.7840 O.2   128  ALA128     -0.2864
     75  CB        36.0810  -25.8120  -20.3760 C.3   128  ALA128      0.0319
     76  N         27.2840  -31.5780  -24.0560 N.3   157  PRO157     -0.2116
     77  CA        25.8930  -31.8840  -24.3930 C.3   157  PRO157      0.1372
     78  C         25.5870  -33.3730  -24.3020 C.2   157  PRO157      0.2244
     79  O         24.5360  -33.7550  -23.7810 O.2   157  PRO157     -0.2868
     80  CB        25.7920  -31.3180  -25.8010 C.3   157  PRO157      0.0268
     81  CG        26.7410  -30.1290  -25.7850 C.3   157  PRO157      0.0207
     82  CD        27.9200  -30.6450  -25.0230 C.3   157  PRO157      0.0892
@<TRIPOS>BOND
     1    22    21    2
     2    24    23    1
     3    24    25    1
     4    21    20    1
     5    23    20    1
     6    20    19    1
     7    26    25    1
     8    26    27    2
     9    29    27    1
    10    27    28    1
    11    69    68    1
    12     9     7   ar
    13    70    68    1
    14    68    67    1
    15     7     8   ar
    16     7     6    1
    17    61    62   ar
    18    61    59   ar
    19    80    81    1
    20    80    77    1
    21    81    82    1
    22    62    60   ar
    23    67    64    1
    24    41    39   am
    25     6     5    1
    26    82    76    1
    27    59    58   ar
    28    60    58   ar
    29    39    38    1
    30    39    40    2
    31    38    35    1
    32    77    78    1
    33    77    76    1
    34    64    63    1
    35    64    65    1
    36    78    79    2
    37     2     5    1
    38     2     3    1
    39     2     1    1
    40     3     4    2
    41    34    35    1
    42    34    32   am
    43    58    57    1
    44    31    32    1
    45    31    30    1
    46    66    65    2
    47    35    36    1
    48    65    71   am
    49    18    16   ar
    50    32    33    2
    51    36    37    2
    52    10    11    1
    53    47    46    1
    54    57    54    1
    55    16    15    1
    56    16    17   ar
    57    71    72    1
    58    15    14    1
    59    55    54    1
    60    55    56    2
    61    54    53    1
    62    11    14    1
    63    11    12    1
    64    46    43    1
    65    72    75    1
    66    72    73    1
    67    52    49    1
    68    12    13    2
    69    43    44    1
    70    43    42    1
    71    48    44   am
    72    48    49    1
    73    73    74    2
    74    44    45    2
    75    49    50    1
    76    50    51    2
