@<TRIPOS>MOLECULE
tmp/6afeA00.pdb
 82 76 0 0 0
SMALL
GASTEIGER

@<TRIPOS>ATOM
      1  N        -24.2260   23.1710  -23.3130 N.3    14  GLU14      -0.1245
      2  CA       -23.9910   24.2710  -24.2250 C.3    14  GLU14       0.1567
      3  C        -22.5820   24.8020  -23.9520 C.2    14  GLU14       0.2260
      4  O        -22.2540   25.2990  -22.8660 O.2    14  GLU14      -0.2867
      5  CB       -25.0660   25.3510  -24.0490 C.3    14  GLU14       0.0388
      6  CG       -25.6030   25.9350  -25.3610 C.3    14  GLU14       0.1160
      7  CD       -24.5100   26.5820  -26.1910 C.2    14  GLU14       0.3649
      8  OE1      -23.5890   27.1980  -25.5840 O.co2  14  GLU14      -0.2457
      9  OE2      -24.6060   26.4890  -27.4530 O.co2  14  GLU14      -0.2457
     10  N        -22.1280   28.4120  -22.7480 N.3    17  GLU17      -0.1245
     11  CA       -22.5830   28.5680  -21.3640 C.3    17  GLU17       0.1567
     12  C        -21.6580   27.9150  -20.3560 C.2    17  GLU17       0.2260
     13  O        -21.7600   28.1790  -19.1590 O.2    17  GLU17      -0.2867
     14  CB       -23.9950   27.9950  -21.2200 C.3    17  GLU17       0.0388
     15  CG       -25.0170   28.7070  -22.0590 C.3    17  GLU17       0.1160
     16  CD       -26.3530   28.0080  -22.1080 C.2    17  GLU17       0.3649
     17  OE1      -26.5800   27.0900  -21.2950 O.co2  17  GLU17      -0.2457
     18  OE2      -27.1320   28.3640  -23.0380 O.co2  17  GLU17      -0.2457
     19  N        -22.8790   21.6660  -29.5510 N.3    47  ARG47      -0.1245
     20  CA       -22.4810   22.0510  -30.9200 C.3    47  ARG47       0.1563
     21  C        -21.1210   21.4300  -31.2750 C.2    47  ARG47       0.2260
     22  O        -20.3370   21.9910  -32.0450 O.2    47  ARG47      -0.2867
     23  CB       -22.5350   23.5720  -31.1570 C.3    47  ARG47       0.0307
     24  CG       -23.8920   24.1050  -31.6240 C.3    47  ARG47       0.0489
     25  CD       -24.9150   23.9900  -30.5110 C.3    47  ARG47       0.2205
     26  NE       -26.2560   24.3530  -30.9220 N.pl3  47  ARG47      -0.0865
     27  CZ       -27.3020   24.2530  -30.1170 C.cat  47  ARG47       0.5346
     28  NH1      -27.1030   23.9030  -28.8340 N.pl3  47  ARG47       0.1354
     29  NH2      -28.5130   24.5520  -30.5560 N.pl3  47  ARG47       0.1354
     30  N        -27.9110   23.8740  -22.2560 N.3    74  GLY74      -0.1210
     31  CA       -27.9820   22.8780  -23.3100 C.3    74  GLY74       0.1956
     32  C        -29.0770   21.9030  -22.9080 C.2    74  GLY74       0.2611
     33  O        -29.0320   21.3760  -21.7890 O.2    74  GLY74      -0.2717
     34  N        -30.0780   21.6800  -23.7650 N.am   75  ASN75      -0.1974
     35  CA       -31.1750   20.8170  -23.3380 C.3    75  ASN75       0.1688
     36  C        -30.7060   19.4240  -22.9210 C.2    75  ASN75       0.2292
     37  O        -31.1500   18.8870  -21.8920 O.2    75  ASN75      -0.2864
     38  CB       -32.2140   20.7170  -24.4440 C.3    75  ASN75       0.1181
     39  CG       -33.2820   21.7880  -24.3460 C.2    75  ASN75       0.2629
     40  OD1      -33.2200   22.7500  -23.5200 O.2    75  ASN75      -0.2716
     41  ND2      -34.2300   21.6770  -25.2110 N.am   75  ASN75      -0.0877
     42  N        -30.0050   28.7970  -18.7220 N.3   105  CYS105     -0.1221
     43  CA       -30.6750   28.3060  -19.9320 C.3   105  CYS105      0.1808
     44  C        -31.6620   27.1990  -19.5530 C.2   105  CYS105      0.2601
     45  O        -32.6530   27.5070  -18.8730 O.2   105  CYS105     -0.2717
     46  CB       -29.6770   28.0140  -21.0250 C.3   105  CYS105      0.0970
     47  SG       -30.4540   28.0790  -22.6700 S.3   105  CYS105     -0.0800
     48  N        -31.4210   25.9430  -19.9420 N.am  106  ALA106     -0.1979
     49  CA       -32.1910   24.8100  -19.4030 C.3   106  ALA106      0.1597
     50  C        -31.6080   24.2410  -18.0980 C.2   106  ALA106      0.2287
     51  O        -32.2510   23.4100  -17.4430 O.2   106  ALA106     -0.2864
     52  CB       -32.3060   23.6980  -20.4060 C.3   106  ALA106      0.0319
     53  N        -34.1980   29.8000  -20.0950 N.3   125  HIS125     -0.1241
     54  CA       -34.4450   30.1000  -21.4890 C.3   125  HIS125      0.1621
     55  C        -35.9600   30.1500  -21.6910 C.2   125  HIS125      0.2264
     56  O        -36.6950   29.3290  -21.1000 O.2   125  HIS125     -0.2867
     57  CB       -33.9120   29.0180  -22.3970 C.3   125  HIS125      0.0745
     58  CG       -33.8510   29.4490  -23.8230 C.ar  125  HIS125      0.0817
     59  ND1      -34.9090   29.3530  -24.6890 N.ar  125  HIS125     -0.2268
     60  CD2      -32.8620   30.0610  -24.5140 C.ar  125  HIS125      0.1154
     61  CE1      -34.5770   29.8700  -25.8550 C.ar  125  HIS125      0.1986
     62  NE2      -33.3370   30.3140  -25.7750 N.ar  125  HIS125     -0.2212
     63  N        -37.7780   28.8840  -23.9490 N.3   127  LEU127     -0.1231
     64  CA       -38.2790   27.5730  -24.3750 C.3   127  LEU127      0.1693
     65  C        -38.1960   26.4980  -23.2890 C.2   127  LEU127      0.2591
     66  O        -38.7210   25.3970  -23.4990 O.2   127  LEU127     -0.2718
     67  CB       -37.5680   27.1210  -25.6540 C.3   127  LEU127      0.0284
     68  CG       -37.7760   28.0760  -26.8180 C.3   127  LEU127      0.0019
     69  CD1      -36.9190   27.6090  -27.9990 C.3   127  LEU127      0.0001
     70  CD2      -39.2410   28.1730  -27.1990 C.3   127  LEU127      0.0001
     71  N        -37.5790   26.8220  -22.1400 N.am  128  ALA128     -0.1980
     72  CA       -37.5240   25.9350  -20.9970 C.3   128  ALA128      0.1597
     73  C        -38.4640   26.3420  -19.8760 C.2   128  ALA128      0.2287
     74  O        -38.5170   25.6630  -18.8380 O.2   128  ALA128     -0.2864
     75  CB       -36.1010   25.8630  -20.4470 C.3   128  ALA128      0.0319
     76  N        -27.2780   31.6200  -24.0180 N.3   157  PRO157     -0.2116
     77  CA       -25.8900   31.9590  -24.3620 C.3   157  PRO157      0.1372
     78  C        -25.5990   33.4470  -24.2800 C.2   157  PRO157      0.2244
     79  O        -24.5530   33.8450  -23.7620 O.2   157  PRO157     -0.2868
     80  CB       -25.7720   31.4100  -25.8020 C.3   157  PRO157      0.0268
     81  CG       -26.7230   30.2300  -25.7950 C.3   157  PRO157      0.0207
     82  CD       -27.9070   30.7130  -25.0140 C.3   157  PRO157      0.0892
@<TRIPOS>BOND
     1    22    21    2
     2    24    23    1
     3    24    25    1
     4    21    20    1
     5    23    20    1
     6    26    25    1
     7    26    27    2
     8    20    19    1
     9    29    27    1
    10    27    28    1
    11    69    68    1
    12     9     7   ar
    13    70    68    1
    14    68    67    1
    15     7     8   ar
    16     7     6    1
    17    61    62   ar
    18    61    59   ar
    19    80    81    1
    20    80    77    1
    21    81    82    1
    22    62    60   ar
    23    67    64    1
    24     6     5    1
    25    41    39   am
    26    82    76    1
    27    59    58   ar
    28    60    58   ar
    29    38    39    1
    30    38    35    1
    31    64    63    1
    32    64    65    1
    33    77    78    1
    34    77    76    1
    35    39    40    2
    36    78    79    2
    37     2     5    1
    38     2     3    1
    39     2     1    1
    40     3     4    2
    41    58    57    1
    42    34    35    1
    43    34    32   am
    44    66    65    2
    45    35    36    1
    46    31    32    1
    47    31    30    1
    48    65    71   am
    49    18    16   ar
    50    36    37    2
    51    32    33    2
    52    10    11    1
    53    47    46    1
    54    57    54    1
    55    71    72    1
    56    16    15    1
    57    16    17   ar
    58    15    14    1
    59    55    54    1
    60    55    56    2
    61    54    53    1
    62    11    14    1
    63    11    12    1
    64    46    43    1
    65    72    75    1
    66    72    73    1
    67    52    49    1
    68    12    13    2
    69    48    44   am
    70    48    49    1
    71    43    44    1
    72    43    42    1
    73    73    74    2
    74    44    45    2
    75    49    50    1
    76    50    51    2
