@<TRIPOS>MOLECULE
tmp/6affA00.pdb
 91 84 0 0 0
SMALL
GASTEIGER

@<TRIPOS>ATOM
      1  N         43.0960   -9.4270  -10.8880 N.3    14  GLU14      -0.1245
      2  CA        42.2420   -8.6660  -11.8110 C.3    14  GLU14       0.1567
      3  C         42.4990   -7.1830  -11.5240 C.2    14  GLU14       0.2260
      4  O         42.2660   -6.6830  -10.3950 O.2    14  GLU14      -0.2867
      5  CB        40.8040   -9.0620  -11.5930 C.3    14  GLU14       0.0388
      6  CG        40.0230   -9.1850  -12.8920 C.3    14  GLU14       0.1160
      7  CD        40.0010   -7.9270  -13.7520 C.2    14  GLU14       0.3649
      8  OE1       39.9250   -6.8240  -13.1440 O.co2  14  GLU14      -0.2457
      9  OE2       40.0670   -8.0590  -15.0210 O.co2  14  GLU14      -0.2457
     10  N         39.6110   -4.9900  -10.3040 N.3    17  GLU17      -0.1245
     11  CA        39.2440   -5.3230   -8.9220 C.3    17  GLU17       0.1567
     12  C         40.2930   -4.8710   -7.9140 C.2    17  GLU17       0.2260
     13  O         40.0450   -4.8420   -6.7000 O.2    17  GLU17      -0.2867
     14  CB        39.0660   -6.8500   -8.8200 C.3    17  GLU17       0.0388
     15  CG        37.8980   -7.3570   -9.6210 C.3    17  GLU17       0.1160
     16  CD        37.8470   -8.8720   -9.7020 C.2    17  GLU17       0.3649
     17  OE1       38.5110   -9.5350   -8.8700 O.co2  17  GLU17      -0.2457
     18  OE2       37.1850   -9.3650  -10.6630 O.co2  17  GLU17      -0.2457
     19  N         45.0580   -8.9590  -17.1410 N.3    47  ARG47      -0.1245
     20  CA        44.9130   -8.4240  -18.5080 C.3    47  ARG47       0.1563
     21  C         46.1210   -7.5160  -18.8290 C.2    47  ARG47       0.2260
     22  O         46.0340   -6.5730  -19.6170 O.2    47  ARG47      -0.2867
     23  CB        43.6000   -7.6840  -18.7450 C.3    47  ARG47       0.0307
     24  CG        42.4720   -8.5830  -19.1830 C.3    47  ARG47       0.0489
     25  CD        42.0380   -9.5200  -18.1050 C.3    47  ARG47       0.2205
     26  NE        41.0620  -10.5630  -18.5240 N.pl3  47  ARG47      -0.0865
     27  CZ        40.5540  -11.4610  -17.7050 C.cat  47  ARG47       0.5346
     28  NH1       40.9430  -11.5220  -16.4410 N.pl3  47  ARG47       0.1354
     29  NH2       39.7180  -12.3820  -18.1490 N.pl3  47  ARG47       0.1354
     30  N         40.7020  -12.2380   -9.8690 N.3    74  GLY74      -0.1210
     31  CA        41.5660  -12.7490  -10.9080 C.3    74  GLY74       0.1956
     32  C         41.8860  -14.1810  -10.4930 C.2    74  GLY74       0.2611
     33  O         42.3020  -14.4200   -9.3440 O.2    74  GLY74      -0.2717
     34  N         41.5880  -15.1570  -11.3430 N.am   75  ASN75      -0.1974
     35  CA        41.7680  -16.5490  -10.9100 C.3    75  ASN75       0.1688
     36  C         43.1970  -16.8610  -10.5120 C.2    75  ASN75       0.2292
     37  O         43.4360  -17.5320   -9.4770 O.2    75  ASN75      -0.2864
     38  CB        41.3300  -17.4800  -12.0130 C.3    75  ASN75       0.1181
     39  CG        39.8220  -17.5110  -12.1550 C.2    75  ASN75       0.2629
     40  OD1       39.0630  -17.2890  -11.1810 O.2    75  ASN75      -0.2716
     41  ND2       39.3630  -17.7750  -13.3510 N.am   75  ASN75      -0.0877
     42  N         35.2700  -11.6220   -6.3020 N.3   105  CYS105     -0.1221
     43  CA        35.3290  -12.4270   -7.5500 C.3   105  CYS105      0.1808
     44  C         35.7950  -13.8440   -7.1510 C.2   105  CYS105      0.2601
     45  O         35.0250  -14.5590   -6.4560 O.2   105  CYS105     -0.2717
     46  CB        36.1570  -11.7580   -8.6440 C.3   105  CYS105      0.0970
     47  SG        35.5970  -12.3560  -10.2390 S.3   105  CYS105     -0.0800
     48  N         37.0080  -14.2460   -7.5250 N.am  106  ALA106     -0.1979
     49  CA        37.5870  -15.4960   -6.9870 C.3   106  ALA106      0.1597
     50  C         38.4380  -15.2730   -5.7190 C.2   106  ALA106      0.2287
     51  O         38.8750  -16.2330   -5.0980 O.2   106  ALA106     -0.2864
     52  CB        38.4090  -16.2540   -8.0170 C.3   106  ALA106      0.0319
     53  N         32.3130  -14.7190   -7.6320 N.3   125  HIS125     -0.1241
     54  CA        31.8930  -14.8200   -9.0290 C.3   125  HIS125      0.1621
     55  C         31.0770  -16.0800   -9.2210 C.2   125  HIS125      0.2264
     56  O         31.4320  -17.1290   -8.6600 O.2   125  HIS125     -0.2867
     57  CB        33.0760  -14.8660   -9.9680 C.3   125  HIS125      0.0745
     58  CG        32.7020  -14.6050  -11.3880 C.ar  125  HIS125      0.0817
     59  ND1       32.2720  -15.5750  -12.2590 N.ar  125  HIS125     -0.2268
     60  CD2       32.6450  -13.4410  -12.0670 C.ar  125  HIS125      0.1154
     61  CE1       31.9880  -15.0270  -13.4370 C.ar  125  HIS125      0.1986
     62  NE2       32.1780  -13.7180  -13.3230 N.ar  125  HIS125     -0.2212
     63  N         31.2270  -18.2890  -11.4650 N.3   127  LEU127     -0.1231
     64  CA        32.0830  -19.3920  -11.9150 C.3   127  LEU127      0.1693
     65  C         33.0470  -19.8660  -10.8330 C.2   127  LEU127      0.2591
     66  O         33.6820  -20.9100  -11.0420 O.2   127  LEU127     -0.2718
     67  CB        32.8560  -18.9930  -13.1760 C.3   127  LEU127      0.0284
     68  CG        31.9240  -18.7220  -14.3310 C.3   127  LEU127      0.0019
     69  CD1       32.8290  -18.2360  -15.5020 C.3   127  LEU127      0.0001
     70  CD2       31.0250  -19.8550  -14.7570 C.3   127  LEU127      0.0001
     71  N         33.1190  -19.1730   -9.6910 N.am  128  ALA128     -0.1980
     72  CA        33.9510  -19.5530   -8.5860 C.3   128  ALA128      0.1597
     73  C         33.1160  -20.1700   -7.4240 C.2   128  ALA128      0.2287
     74  O         33.6800  -20.5730   -6.4120 O.2   128  ALA128     -0.2864
     75  CB        34.7350  -18.3720   -8.0760 C.3   128  ALA128      0.0319
     76  N         34.0300  -23.9280   -6.3160 N.3   131  LYS131     -0.1245
     77  CA        35.3070  -23.9700   -5.5990 C.3   131  LYS131      0.1561
     78  C         35.1240  -23.4630   -4.1690 C.2   131  LYS131      0.2260
     79  O         35.5790  -24.0910   -3.2070 O.2   131  LYS131     -0.2867
     80  CB        36.3590  -23.1210   -6.3180 C.3   131  LYS131      0.0271
     81  CG        37.7510  -23.0540   -5.6510 C.3   131  LYS131      0.0035
     82  CD        38.7590  -22.2790   -6.5400 C.3   131  LYS131      0.0206
     83  CE        39.5830  -23.1970   -7.4040 C.3   131  LYS131      0.1093
     84  NZ        40.8340  -23.5800   -6.6860 N.3   131  LYS131     -0.1314
     85  N         34.2350   -7.8490  -11.5970 N.3   157  PRO157     -0.2116
     86  CA        34.6810   -6.4820  -11.9330 C.3   157  PRO157      0.1372
     87  C         33.5390   -5.4550  -11.8600 C.2   157  PRO157      0.2244
     88  O         33.7070   -4.3370  -11.3150 O.2   157  PRO157     -0.2868
     89  CB        35.2340   -6.6610  -13.3390 C.3   157  PRO157      0.0268
     90  CG        35.7290   -8.0610  -13.3530 C.3   157  PRO157      0.0207
     91  CD        34.6980   -8.8550  -12.5460 C.3   157  PRO157      0.0892
@<TRIPOS>BOND
     1    22    21    2
     2    24    23    1
     3    24    25    1
     4    21    20    1
     5    23    20    1
     6    26    25    1
     7    26    27    2
     8    20    19    1
     9    29    27    1
    10    27    28    1
    11    69    68    1
    12     9     7   ar
    13    70    68    1
    14    68    67    1
    15     7     8   ar
    16     7     6    1
    17    61    62   ar
    18    61    59   ar
    19    90    89    1
    20    90    91    1
    21    41    39   am
    22    89    86    1
    23    62    60   ar
    24    67    64    1
    25     6     5    1
    26    91    85    1
    27    59    58   ar
    28    39    38    1
    29    39    40    2
    30    60    58   ar
    31    38    35    1
    32    86    87    1
    33    86    85    1
    34    64    63    1
    35    64    65    1
    36    87    88    2
    37     2     5    1
    38     2     3    1
    39     2     1    1
    40     3     4    2
    41    58    57    1
    42    34    35    1
    43    34    32   am
    44    66    65    2
    45    35    36    1
    46    31    32    1
    47    31    30    1
    48    65    71   am
    49    18    16   ar
    50    36    37    2
    51    32    33    2
    52    10    11    1
    53    47    46    1
    54    57    54    1
    55    16    15    1
    56    16    17   ar
    57    71    72    1
    58    15    14    1
    59    55    54    1
    60    55    56    2
    61    54    53    1
    62    11    14    1
    63    11    12    1
    64    46    43    1
    65    72    75    1
    66    72    73    1
    67    52    49    1
    68    12    13    2
    69    43    44    1
    70    43    42    1
    71    48    44   am
    72    48    49    1
    73    73    74    2
    74    83    84    1
    75    83    82    1
    76    44    45    2
    77    49    50    1
    78    82    81    1
    79    80    81    1
    80    80    77    1
    81    76    77    1
    82    50    51    2
    83    77    78    1
    84    78    79    2
