@<TRIPOS>MOLECULE
tmp/6affA01.pdb
 72 66 0 0 0
SMALL
GASTEIGER

@<TRIPOS>ATOM
      1  N         41.6450    5.4790    8.9330 N.3     3  LYS3       -0.1245
      2  CA        41.6310    4.0320    8.7530 C.3     3  LYS3        0.1561
      3  C         42.6790    3.6220    7.7210 C.2     3  LYS3        0.2260
      4  O         43.0860    4.4240    6.8610 O.2     3  LYS3       -0.2867
      5  CB        40.2490    3.5930    8.2990 C.3     3  LYS3        0.0271
      6  CG        39.1660    3.9290    9.3090 C.3     3  LYS3        0.0035
      7  CD        39.2510    2.9780   10.4720 C.3     3  LYS3        0.0206
      8  CE        38.0440    3.0920   11.3940 C.3     3  LYS3        0.1093
      9  NZ        38.1430    4.3230   12.1470 N.3     3  LYS3       -0.1314
     10  N         42.8430   -1.8680    9.3180 N.3    67  ASP67      -0.1239
     11  CA        41.3900   -1.9110    9.4780 C.3    67  ASP67       0.1674
     12  C         40.6960   -2.8180    8.5010 C.2    67  ASP67       0.2266
     13  O         39.6240   -3.3050    8.7910 O.2    67  ASP67      -0.2867
     14  CB        40.8170   -0.5160    9.4680 C.3    67  ASP67       0.1410
     15  CG        41.4230    0.3350   10.5290 C.2    67  ASP67       0.3668
     16  OD1       41.1110    0.1240   11.7340 O.co2  67  ASP67      -0.2456
     17  OD2       42.3530    1.1350   10.2400 O.co2  67  ASP67      -0.2456
     18  N         39.3870   -9.5750   15.0310 N.3    98  LYS98      -0.1231
     19  CA        38.0150   -9.2170   14.6700 C.3    98  LYS98       0.1693
     20  C         38.0650   -8.0340   13.6640 C.2    98  LYS98       0.2593
     21  O         37.2010   -7.1630   13.6670 O.2    98  LYS98      -0.2718
     22  CB        37.1340   -8.9210   15.9100 C.3    98  LYS98       0.0285
     23  CG        36.8460  -10.1310   16.8090 C.3    98  LYS98       0.0035
     24  CD        35.9950   -9.7710   18.0400 C.3    98  LYS98       0.0206
     25  CE        36.2820  -10.6960   19.2380 C.3    98  LYS98       0.1093
     26  NZ        35.6150  -10.3890   20.5640 N.3    98  LYS98      -0.1314
     27  N         39.0840   -8.0020   12.8110 N.am   99  GLY99      -0.1942
     28  CA        39.1270   -6.9810   11.7780 C.3    99  GLY99       0.2014
     29  C         38.4560   -7.3830   10.4810 C.2    99  GLY99       0.2638
     30  O         38.2500   -8.5760   10.2260 O.2    99  GLY99      -0.2714
     31  N         38.0970   -6.3850    9.6890 N.am  100  LEU100     -0.1977
     32  CA        37.4160   -6.6280    8.4020 C.3   100  LEU100      0.1596
     33  C         38.3300   -7.3280    7.4160 C.2   100  LEU100      0.2287
     34  O         39.5180   -6.9980    7.2230 O.2   100  LEU100     -0.2864
     35  CB        36.9000   -5.3090    7.8040 C.3   100  LEU100      0.0297
     36  CG        36.0680   -5.3510    6.5470 C.3   100  LEU100      0.0022
     37  CD1       34.7400   -6.0930    6.8350 C.3   100  LEU100      0.0001
     38  CD2       35.7880   -3.9190    6.1060 C.3   100  LEU100      0.0001
     39  N         27.9580   -9.3540    3.3580 N.3   147  LYS147     -0.1245
     40  CA        28.7240   -9.0390    4.5910 C.3   147  LYS147      0.1561
     41  C         28.1630   -9.8620    5.7000 C.2   147  LYS147      0.2260
     42  O         26.9700   -9.8060    5.9670 O.2   147  LYS147     -0.2867
     43  CB        28.6580   -7.5460    4.8360 C.3   147  LYS147      0.0271
     44  CG        29.2140   -7.0810    6.1680 C.3   147  LYS147      0.0035
     45  CD        30.6660   -7.3110    6.3630 C.3   147  LYS147      0.0206
     46  CE        31.0730   -6.9650    7.8250 C.3   147  LYS147      0.1093
     47  NZ        30.7370   -5.5300    8.2510 N.3   147  LYS147     -0.1314
     48  N         29.5840  -11.5490    9.6630 N.3   149  GLY149     -0.1210
     49  CA        30.6880  -11.6100   10.6370 C.3   149  GLY149      0.1956
     50  C         31.7480  -10.6120   10.2100 C.2   149  GLY149      0.2611
     51  O         31.5000   -9.3850   10.0370 O.2   149  GLY149     -0.2717
     52  N         32.9370  -11.1550    9.9480 N.am  150  LEU150     -0.1979
     53  CA        34.0850  -10.3120    9.6180 C.3   150  LEU150      0.1596
     54  C         34.2600  -10.1420    8.1240 C.2   150  LEU150      0.2287
     55  O         35.1720   -9.4800    7.7060 O.2   150  LEU150     -0.2864
     56  CB        35.3880  -10.9410   10.1610 C.3   150  LEU150      0.0297
     57  CG        35.4130  -11.2770   11.6370 C.3   150  LEU150      0.0022
     58  CD1       36.7840  -11.8730   11.9210 C.3   150  LEU150      0.0001
     59  CD2       35.1190  -10.0750   12.5300 C.3   150  LEU150      0.0001
     60  N         31.7520    0.4920    5.8560 N.3   170  ALA170     -0.1231
     61  CA        32.1300   -0.2680    7.0560 C.3   170  ALA170      0.1694
     62  C         33.1370    0.4820    7.8980 C.2   170  ALA170      0.2591
     63  O         33.0560    0.4490    9.1740 O.2   170  ALA170     -0.2718
     64  CB        32.7060   -1.6020    6.6930 C.3   170  ALA170      0.0304
     65  N         34.1000    1.1530    7.2580 N.am  171  LEU171     -0.1980
     66  CA        35.1880    1.7840    7.9820 C.3   171  LEU171      0.1596
     67  C         34.9010    3.2350    8.4140 C.2   171  LEU171      0.2287
     68  O         35.1890    3.6390    9.5850 O.2   171  LEU171     -0.2864
     69  CB        36.4950    1.7080    7.2260 C.3   171  LEU171      0.0297
     70  CG        37.0390    0.2680    6.9750 C.3   171  LEU171      0.0022
     71  CD1       38.4150    0.4590    6.3110 C.3   171  LEU171      0.0001
     72  CD2       37.1000   -0.6890    8.1520 C.3   171  LEU171      0.0001
@<TRIPOS>BOND
     1    39    40    1
     2    40    43    1
     3    40    41    1
     4    43    44    1
     5    41    42    2
     6    60    61    1
     7    38    36    1
     8    44    45    1
     9    71    70    1
    10    45    46    1
    11    36    37    1
    12    36    35    1
    13    64    61    1
    14     4     3    2
    15    70    69    1
    16    70    72    1
    17    61    62    1
    18    34    33    2
    19    69    66    1
    20    65    62   am
    21    65    66    1
    22    33    32    1
    23    55    54    2
    24     3     2    1
    25    35    32    1
    26    46    47    1
    27    62    63    2
    28    66    67    1
    29    54    53    1
    30     5     2    1
    31     5     6    1
    32    32    31    1
    33    67    68    2
    34    12    13    2
    35    12    11    1
    36     2     1    1
    37     6     7    1
    38    10    11    1
    39    14    11    1
    40    14    15    1
    41    53    52    1
    42    53    56    1
    43    48    49    1
    44    31    29   am
    45    52    50   am
    46    51    50    2
    47    56    57    1
    48    50    49    1
    49    30    29    2
    50    17    15   ar
    51     7     8    1
    52    29    28    1
    53    15    16   ar
    54     8     9    1
    55    57    58    1
    56    57    59    1
    57    28    27    1
    58    27    20   am
    59    20    21    2
    60    20    19    1
    61    19    18    1
    62    19    22    1
    63    22    23    1
    64    23    24    1
    65    24    25    1
    66    25    26    1
