@<TRIPOS>MOLECULE
tmp/6afhA00.pdb
 91 84 0 0 0
SMALL
GASTEIGER

@<TRIPOS>ATOM
      1  N        -43.3830    9.4190  -10.7470 N.3    14  GLU14      -0.1245
      2  CA       -42.5550    8.6700  -11.6670 C.3    14  GLU14       0.1567
      3  C        -42.8090    7.1800  -11.3890 C.2    14  GLU14       0.2260
      4  O        -42.5580    6.6500  -10.2820 O.2    14  GLU14      -0.2867
      5  CB       -41.0690    9.0480  -11.4990 C.3    14  GLU14       0.0388
      6  CG       -40.3370    9.2140  -12.8440 C.3    14  GLU14       0.1160
      7  CD       -40.3260    7.9620  -13.6880 C.2    14  GLU14       0.3649
      8  OE1      -40.3010    6.8610  -13.1130 O.co2  14  GLU14      -0.2457
      9  OE2      -40.3490    8.1240  -14.9430 O.co2  14  GLU14      -0.2457
     10  N        -39.9180    4.8980  -10.2160 N.3    17  GLU17      -0.1245
     11  CA       -39.5500    5.1940   -8.8340 C.3    17  GLU17       0.1567
     12  C        -40.5910    4.7280   -7.8170 C.2    17  GLU17       0.2260
     13  O        -40.3270    4.6590   -6.5980 O.2    17  GLU17      -0.2867
     14  CB       -39.3370    6.7040   -8.6670 C.3    17  GLU17       0.0388
     15  CG       -38.1890    7.2490   -9.4840 C.3    17  GLU17       0.1160
     16  CD       -38.1700    8.7630   -9.5800 C.2    17  GLU17       0.3649
     17  OE1      -38.7780    9.4460   -8.7280 O.co2  17  GLU17      -0.2457
     18  OE2      -37.4910    9.2700  -10.5080 O.co2  17  GLU17      -0.2457
     19  N        -45.3840    9.0270  -17.0160 N.3    47  ARG47      -0.1245
     20  CA       -45.2330    8.5130  -18.3930 C.3    47  ARG47       0.1563
     21  C        -46.4270    7.6400  -18.7610 C.2    47  ARG47       0.2260
     22  O        -46.3170    6.7030  -19.5720 O.2    47  ARG47      -0.2867
     23  CB       -43.9010    7.7860  -18.5540 C.3    47  ARG47       0.0307
     24  CG       -42.7780    8.6800  -19.0520 C.3    47  ARG47       0.0489
     25  CD       -42.3790    9.6340  -17.9550 C.3    47  ARG47       0.2205
     26  NE       -41.4500   10.6810  -18.3630 N.pl3  47  ARG47      -0.0865
     27  CZ       -41.0500   11.6720  -17.5720 C.cat  47  ARG47       0.5346
     28  NH1      -41.4610   11.7460  -16.3080 N.pl3  47  ARG47       0.1354
     29  NH2      -40.2060   12.5710  -18.0280 N.pl3  47  ARG47       0.1354
     30  N        -40.8970   12.3170   -9.6770 N.3    74  GLY74      -0.1210
     31  CA       -41.7570   12.8810  -10.7190 C.3    74  GLY74       0.1956
     32  C        -42.0790   14.3230  -10.3050 C.2    74  GLY74       0.2611
     33  O        -42.4950   14.5640   -9.1660 O.2    74  GLY74      -0.2717
     34  N        -41.8760   15.2860  -11.2060 N.am   75  ASN75      -0.1974
     35  CA       -42.0210   16.7150  -10.8340 C.3    75  ASN75       0.1688
     36  C        -43.4550   16.9870  -10.3360 C.2    75  ASN75       0.2292
     37  O        -43.6880   17.5470   -9.2350 O.2    75  ASN75      -0.2864
     38  CB       -41.6180   17.5840  -12.0320 C.3    75  ASN75       0.1181
     39  CG       -41.5620   19.0740  -11.7360 C.2    75  ASN75       0.2629
     40  OD1      -41.2490   19.5190  -10.6140 O.2    75  ASN75      -0.2716
     41  ND2      -41.8150   19.8770  -12.7860 N.am   75  ASN75      -0.0877
     42  N        -35.6070   11.4950   -6.1870 N.3   105  CYS105     -0.1221
     43  CA       -35.6920   12.3230   -7.3750 C.3   105  CYS105      0.1808
     44  C        -36.1810   13.7330   -7.0100 C.2   105  CYS105      0.2601
     45  O        -35.4070   14.4700   -6.3780 O.2   105  CYS105     -0.2717
     46  CB       -36.4650   11.5920   -8.4800 C.3   105  CYS105      0.0970
     47  SG       -35.9950   12.1730  -10.1210 S.3   105  CYS105     -0.0800
     48  N        -37.4010   14.1250   -7.3830 N.am  106  ALA106     -0.1979
     49  CA       -38.0050   15.3790   -6.8510 C.3   106  ALA106      0.1597
     50  C        -38.7430   15.1630   -5.5170 C.2   106  ALA106      0.2287
     51  O        -39.1210   16.1350   -4.8210 O.2   106  ALA106     -0.2864
     52  CB       -38.9480   16.0100   -7.8490 C.3   106  ALA106      0.0319
     53  N        -32.6960   14.6300   -7.5550 N.3   125  HIS125     -0.1241
     54  CA       -32.3550   14.7260   -8.9480 C.3   125  HIS125      0.1621
     55  C        -31.5450   16.0220   -9.1520 C.2   125  HIS125      0.2264
     56  O        -31.8750   17.0520   -8.5590 O.2   125  HIS125     -0.2867
     57  CB       -33.5950   14.8000   -9.8330 C.3   125  HIS125      0.0745
     58  CG       -33.2800   14.5550  -11.2700 C.ar  125  HIS125      0.0817
     59  ND1      -32.8390   15.5500  -12.1120 N.ar  125  HIS125     -0.2268
     60  CD2      -33.2310   13.4110  -11.9920 C.ar  125  HIS125      0.1154
     61  CE1      -32.6110   15.0470  -13.3080 C.ar  125  HIS125      0.1986
     62  NE2      -32.8060   13.7450  -13.2530 N.ar  125  HIS125     -0.2212
     63  N        -31.7600   18.2530  -11.3420 N.3   127  LEU127     -0.1231
     64  CA       -32.6740   19.3380  -11.7190 C.3   127  LEU127      0.1693
     65  C        -33.5070   19.8840  -10.5630 C.2   127  LEU127      0.2591
     66  O        -34.0420   21.0010  -10.6760 O.2   127  LEU127     -0.2718
     67  CB       -33.5740   18.9410  -12.8890 C.3   127  LEU127      0.0284
     68  CG       -32.8590   18.6250  -14.1950 C.3   127  LEU127      0.0019
     69  CD1      -33.7930   17.9800  -15.2440 C.3   127  LEU127      0.0001
     70  CD2      -32.1910   19.8870  -14.7400 C.3   127  LEU127      0.0001
     71  N        -33.6190   19.1130   -9.4770 N.am  128  ALA128     -0.1980
     72  CA       -34.3740   19.5040   -8.2940 C.3   128  ALA128      0.1597
     73  C        -33.5050   20.1510   -7.2090 C.2   128  ALA128      0.2287
     74  O        -34.0280   20.5600   -6.1670 O.2   128  ALA128     -0.2864
     75  CB       -35.1350   18.2940   -7.7230 C.3   128  ALA128      0.0319
     76  N        -34.4330   23.8700   -6.0650 N.3   131  LYS131     -0.1245
     77  CA       -35.6930   23.8600   -5.3100 C.3   131  LYS131      0.1561
     78  C        -35.4390   23.3590   -3.8830 C.2   131  LYS131      0.2260
     79  O        -35.8520   23.9830   -2.9000 O.2   131  LYS131     -0.2867
     80  CB       -36.7640   23.0040   -6.0170 C.3   131  LYS131      0.0271
     81  CG       -38.1250   23.0350   -5.3560 C.3   131  LYS131      0.0035
     82  CD       -39.1830   22.2320   -6.1120 C.3   131  LYS131      0.0206
     83  CE       -39.5890   22.9000   -7.3980 C.3   131  LYS131      0.1093
     84  NZ       -41.0690   22.8030   -7.5720 N.3   131  LYS131     -0.1314
     85  N        -34.4990    7.7050  -11.5100 N.3   157  PRO157     -0.2116
     86  CA       -34.9130    6.3600  -11.8620 C.3   157  PRO157      0.1372
     87  C        -33.7440    5.3750  -11.8050 C.2   157  PRO157      0.2244
     88  O        -33.8850    4.2710  -11.2990 O.2   157  PRO157     -0.2868
     89  CB       -35.4400    6.5500  -13.2890 C.3   157  PRO157      0.0268
     90  CG       -36.0410    7.9350  -13.2720 C.3   157  PRO157      0.0207
     91  CD       -34.9740    8.6960  -12.5030 C.3   157  PRO157      0.0892
@<TRIPOS>BOND
     1    22    21    2
     2    24    23    1
     3    24    25    1
     4    21    20    1
     5    23    20    1
     6    20    19    1
     7    26    25    1
     8    26    27    2
     9    29    27    1
    10    27    28    1
    11    69    68    1
    12     9     7   ar
    13    70    68    1
    14    68    67    1
    15     7     8   ar
    16     7     6    1
    17    61    62   ar
    18    61    59   ar
    19    89    90    1
    20    89    86    1
    21    90    91    1
    22    62    60   ar
    23    67    64    1
    24     6     5    1
    25    41    39   am
    26    91    85    1
    27    59    58   ar
    28    38    39    1
    29    38    35    1
    30    60    58   ar
    31    86    87    1
    32    86    85    1
    33    87    88    2
    34    39    40    2
    35    64    63    1
    36    64    65    1
    37     2     5    1
    38     2     3    1
    39     2     1    1
    40     3     4    2
    41    58    57    1
    42    34    35    1
    43    34    32   am
    44    35    36    1
    45    31    32    1
    46    31    30    1
    47    66    65    2
    48    65    71   am
    49    18    16   ar
    50    36    37    2
    51    32    33    2
    52    10    11    1
    53    47    46    1
    54    57    54    1
    55    16    15    1
    56    16    17   ar
    57    15    14    1
    58    71    72    1
    59    55    54    1
    60    55    56    2
    61    54    53    1
    62    11    14    1
    63    11    12    1
    64    46    43    1
    65    72    75    1
    66    72    73    1
    67    52    49    1
    68    12    13    2
    69    84    83    1
    70    83    82    1
    71    48    44   am
    72    48    49    1
    73    43    44    1
    74    43    42    1
    75    73    74    2
    76    44    45    2
    77    49    50    1
    78    82    81    1
    79    76    77    1
    80    80    81    1
    81    80    77    1
    82    50    51    2
    83    77    78    1
    84    78    79    2
