@<TRIPOS>MOLECULE
tmp/6afiA00.pdb
 82 76 0 0 0
SMALL
GASTEIGER

@<TRIPOS>ATOM
      1  N        -43.4090    9.4310  -10.7460 N.3    14  GLU14      -0.1245
      2  CA       -42.5710    8.6720  -11.6860 C.3    14  GLU14       0.1567
      3  C        -42.8250    7.1890  -11.4150 C.2    14  GLU14       0.2260
      4  O        -42.5700    6.6640  -10.3180 O.2    14  GLU14      -0.2867
      5  CB       -41.0810    9.0400  -11.5420 C.3    14  GLU14       0.0388
      6  CG       -40.3770    9.2250  -12.8810 C.3    14  GLU14       0.1160
      7  CD       -40.3500    7.9740  -13.7330 C.2    14  GLU14       0.3649
      8  OE1      -40.3110    6.8810  -13.1330 O.co2  14  GLU14      -0.2457
      9  OE2      -40.3690    8.1290  -14.9860 O.co2  14  GLU14      -0.2457
     10  N        -39.9240    4.9220  -10.2430 N.3    17  GLU17      -0.1245
     11  CA       -39.5810    5.2220   -8.8540 C.3    17  GLU17       0.1567
     12  C        -40.6330    4.7550   -7.8490 C.2    17  GLU17       0.2260
     13  O        -40.3770    4.6750   -6.6380 O.2    17  GLU17      -0.2867
     14  CB       -39.3750    6.7280   -8.7110 C.3    17  GLU17       0.0388
     15  CG       -38.2070    7.2430   -9.5250 C.3    17  GLU17       0.1160
     16  CD       -38.1620    8.7500   -9.6170 C.2    17  GLU17       0.3649
     17  OE1      -38.8120    9.4500   -8.8020 O.co2  17  GLU17      -0.2457
     18  OE2      -37.4640    9.2140  -10.5420 O.co2  17  GLU17      -0.2457
     19  N        -45.4100    9.0530  -17.0630 N.3    47  ARG47      -0.1245
     20  CA       -45.2580    8.5350  -18.4290 C.3    47  ARG47       0.1563
     21  C        -46.4590    7.6520  -18.7710 C.2    47  ARG47       0.2260
     22  O        -46.3730    6.7300  -19.5750 O.2    47  ARG47      -0.2867
     23  CB       -43.9190    7.8040  -18.5980 C.3    47  ARG47       0.0307
     24  CG       -42.8230    8.7040  -19.1170 C.3    47  ARG47       0.0489
     25  CD       -42.3910    9.6170  -17.9960 C.3    47  ARG47       0.2205
     26  NE       -41.4400   10.6380  -18.3960 N.pl3  47  ARG47      -0.0865
     27  CZ       -41.0020   11.5900  -17.5830 C.cat  47  ARG47       0.5346
     28  NH1      -41.4230   11.6390  -16.3310 N.pl3  47  ARG47       0.1354
     29  NH2      -40.1350   12.4820  -18.0100 N.pl3  47  ARG47       0.1354
     30  N        -40.9170   12.3600   -9.7320 N.3    74  GLY74      -0.1210
     31  CA       -41.7720   12.9200  -10.7700 C.3    74  GLY74       0.1956
     32  C        -42.1280   14.3550  -10.3360 C.2    74  GLY74       0.2611
     33  O        -42.5900   14.5710   -9.2000 O.2    74  GLY74      -0.2717
     34  N        -41.9140   15.3340  -11.2180 N.am   75  ASN75      -0.1974
     35  CA       -42.1380   16.7380  -10.8020 C.3    75  ASN75       0.1688
     36  C        -43.5590   16.9760  -10.3280 C.2    75  ASN75       0.2292
     37  O        -43.7970   17.5300   -9.2460 O.2    75  ASN75      -0.2864
     38  CB       -41.8070   17.7040  -11.9050 C.3    75  ASN75       0.1181
     39  CG       -40.3830   18.1120  -11.8820 C.2    75  ASN75       0.2629
     40  OD1      -39.7600   18.1990  -10.8050 O.2    75  ASN75      -0.2716
     41  ND2      -39.8300   18.3520  -13.0520 N.am   75  ASN75      -0.0877
     42  N        -35.6170   11.4990   -6.2380 N.3   105  CYS105     -0.1221
     43  CA       -35.7130   12.3320   -7.4320 C.3   105  CYS105      0.1808
     44  C        -36.1950   13.7460   -7.0520 C.2   105  CYS105      0.2601
     45  O        -35.4360   14.4710   -6.3620 O.2   105  CYS105     -0.2717
     46  CB       -36.5080   11.6020   -8.5270 C.3   105  CYS105      0.0970
     47  SG       -36.0070   12.1310  -10.1700 S.3   105  CYS105     -0.0800
     48  N        -37.3950   14.1540   -7.4590 N.am  106  ALA106     -0.1979
     49  CA       -38.0050   15.4030   -6.9150 C.3   106  ALA106      0.1597
     50  C        -38.7490   15.1650   -5.5960 C.2   106  ALA106      0.2287
     51  O        -39.1450   16.1120   -4.9290 O.2   106  ALA106     -0.2864
     52  CB       -38.9200   16.0640   -7.9170 C.3   106  ALA106      0.0319
     53  N        -32.6750   14.6000   -7.5470 N.3   125  HIS125     -0.1241
     54  CA       -32.3200   14.7070   -8.9430 C.3   125  HIS125      0.1621
     55  C        -31.5390   16.0300   -9.1430 C.2   125  HIS125      0.2264
     56  O        -31.8990   17.0570   -8.5410 O.2   125  HIS125     -0.2867
     57  CB       -33.5460   14.7510   -9.8340 C.3   125  HIS125      0.0745
     58  CG       -33.2070   14.5090  -11.2680 C.ar  125  HIS125      0.0817
     59  ND1      -32.7850   15.5050  -12.1110 N.ar  125  HIS125     -0.2268
     60  CD2      -33.1020   13.3610  -11.9720 C.ar  125  HIS125      0.1154
     61  CE1      -32.4950   14.9960  -13.2940 C.ar  125  HIS125      0.1986
     62  NE2      -32.6660   13.6900  -13.2290 N.ar  125  HIS125     -0.2212
     63  N        -31.7970   18.2290  -11.3410 N.3   127  LEU127     -0.1231
     64  CA       -32.7120   19.3160  -11.7270 C.3   127  LEU127      0.1693
     65  C        -33.5680   19.8580  -10.5990 C.2   127  LEU127      0.2591
     66  O        -34.1890   20.9220  -10.7690 O.2   127  LEU127     -0.2718
     67  CB       -33.6000   18.9010  -12.9150 C.3   127  LEU127      0.0284
     68  CG       -32.8420   18.5840  -14.1940 C.3   127  LEU127      0.0019
     69  CD1      -33.7710   17.9820  -15.2680 C.3   127  LEU127      0.0001
     70  CD2      -32.1170   19.8220  -14.7070 C.3   127  LEU127      0.0001
     71  N        -33.6350   19.1260   -9.4820 N.am  128  ALA128     -0.1980
     72  CA       -34.3980   19.5170   -8.3020 C.3   128  ALA128      0.1597
     73  C        -33.5240   20.1330   -7.1980 C.2   128  ALA128      0.2287
     74  O        -34.0380   20.5290   -6.1420 O.2   128  ALA128     -0.2864
     75  CB       -35.1840   18.3180   -7.7540 C.3   128  ALA128      0.0319
     76  N        -34.4770    7.6950  -11.5220 N.3   157  PRO157     -0.2116
     77  CA       -34.8870    6.3450  -11.8940 C.3   157  PRO157      0.1372
     78  C        -33.7400    5.3710  -11.8140 C.2   157  PRO157      0.2244
     79  O        -33.8910    4.2550  -11.3000 O.2   157  PRO157     -0.2868
     80  CB       -35.3990    6.5410  -13.3290 C.3   157  PRO157      0.0268
     81  CG       -36.0030    7.9250  -13.2790 C.3   157  PRO157      0.0207
     82  CD       -34.9770    8.6990  -12.4790 C.3   157  PRO157      0.0892
@<TRIPOS>BOND
     1    22    21    2
     2    24    23    1
     3    24    25    1
     4    21    20    1
     5    23    20    1
     6    20    19    1
     7    26    25    1
     8    26    27    2
     9    29    27    1
    10    27    28    1
    11    69    68    1
    12     9     7   ar
    13    70    68    1
    14    68    67    1
    15     7     8   ar
    16     7     6    1
    17    80    81    1
    18    80    77    1
    19    61    62   ar
    20    61    59   ar
    21    81    82    1
    22    62    60   ar
    23    41    39   am
    24    67    64    1
    25     6     5    1
    26    82    76    1
    27    59    58   ar
    28    60    58   ar
    29    38    39    1
    30    38    35    1
    31    77    78    1
    32    77    76    1
    33    39    40    2
    34    78    79    2
    35    64    63    1
    36    64    65    1
    37     2     5    1
    38     2     3    1
    39     2     1    1
    40     3     4    2
    41    58    57    1
    42    34    35    1
    43    34    32   am
    44    35    36    1
    45    31    32    1
    46    31    30    1
    47    66    65    2
    48    65    71   am
    49    18    16   ar
    50    32    33    2
    51    36    37    2
    52    10    11    1
    53    47    46    1
    54    57    54    1
    55    16    15    1
    56    16    17   ar
    57    15    14    1
    58    71    72    1
    59    55    54    1
    60    55    56    2
    61    54    53    1
    62    11    14    1
    63    11    12    1
    64    46    43    1
    65    72    75    1
    66    72    73    1
    67    52    49    1
    68    12    13    2
    69    48    44   am
    70    48    49    1
    71    43    44    1
    72    43    42    1
    73    73    74    2
    74    44    45    2
    75    49    50    1
    76    50    51    2
