@<TRIPOS>MOLECULE
tmp/6afjA00.pdb
 112 103 0 0 0
SMALL
GASTEIGER

@<TRIPOS>ATOM
      1  N        -43.2980    9.4180  -10.8120 N.3    14  GLU14      -0.1245
      2  CA       -42.4800    8.6890  -11.7500 C.3    14  GLU14       0.1567
      3  C        -42.7260    7.2070  -11.4720 C.2    14  GLU14       0.2260
      4  O        -42.4650    6.6620  -10.3680 O.2    14  GLU14      -0.2867
      5  CB       -40.9980    9.0800  -11.6020 C.3    14  GLU14       0.0388
      6  CG       -40.2610    9.2110  -12.9280 C.3    14  GLU14       0.1160
      7  CD       -40.2480    7.9390  -13.7510 C.2    14  GLU14       0.3649
      8  OE1      -40.1570    6.8590  -13.1530 O.co2  14  GLU14      -0.2457
      9  OE2      -40.2610    8.1010  -15.0010 O.co2  14  GLU14      -0.2457
     10  N        -39.8170    4.9650  -10.2740 N.3    17  GLU17      -0.1245
     11  CA       -39.4420    5.2560   -8.8960 C.3    17  GLU17       0.1567
     12  C        -40.4830    4.7830   -7.8780 C.2    17  GLU17       0.2260
     13  O        -40.2160    4.6980   -6.6830 O.2    17  GLU17      -0.2867
     14  CB       -39.2340    6.7650   -8.7540 C.3    17  GLU17       0.0388
     15  CG       -38.0750    7.2880   -9.5720 C.3    17  GLU17       0.1160
     16  CD       -38.0460    8.7950   -9.6860 C.2    17  GLU17       0.3649
     17  OE1      -38.6910    9.4830   -8.8390 O.co2  17  GLU17      -0.2457
     18  OE2      -37.3570    9.3000  -10.6030 O.co2  17  GLU17      -0.2457
     19  N        -45.2890    9.0120  -17.0820 N.3    47  ARG47      -0.1245
     20  CA       -45.1190    8.4840  -18.4540 C.3    47  ARG47       0.1563
     21  C        -46.3520    7.6410  -18.8170 C.2    47  ARG47       0.2260
     22  O        -46.2780    6.6850  -19.6080 O.2    47  ARG47      -0.2867
     23  CB       -43.7920    7.7440  -18.6050 C.3    47  ARG47       0.0307
     24  CG       -42.6960    8.6460  -19.1130 C.3    47  ARG47       0.0489
     25  CD       -42.2630    9.5920  -18.0250 C.3    47  ARG47       0.2205
     26  NE       -41.3530   10.6280  -18.4660 N.pl3  47  ARG47      -0.0865
     27  CZ       -40.9360   11.6250  -17.6820 C.cat  47  ARG47       0.5346
     28  NH1      -41.3320   11.6860  -16.4380 N.pl3  47  ARG47       0.1354
     29  NH2      -40.1250   12.5400  -18.1420 N.pl3  47  ARG47       0.1354
     30  N        -40.8400   12.2710   -9.7800 N.3    74  GLY74      -0.1210
     31  CA       -41.7010   12.8560  -10.7970 C.3    74  GLY74       0.1956
     32  C        -42.0400   14.2910  -10.4080 C.2    74  GLY74       0.2611
     33  O        -42.3820   14.5490   -9.2740 O.2    74  GLY74      -0.2717
     34  N        -41.8910   15.2310  -11.3300 N.am   75  ASN75      -0.1974
     35  CA       -42.0420   16.6580  -11.0020 C.3    75  ASN75       0.1688
     36  C        -43.4530   16.9150  -10.4640 C.2    75  ASN75       0.2292
     37  O        -43.6530   17.4750   -9.3750 O.2    75  ASN75      -0.2864
     38  CB       -41.6890   17.4780  -12.2520 C.3    75  ASN75       0.1181
     39  CG       -41.5870   18.9970  -12.0200 C.2    75  ASN75       0.2629
     40  OD1      -41.6600   19.7960  -12.9990 O.2    75  ASN75      -0.2716
     41  ND2      -41.4420   19.4260  -10.7860 N.am   75  ASN75      -0.0877
     42  N        -44.2070   14.9640   -7.1510 N.3    78  ALA78      -0.1231
     43  CA       -43.5930   15.5970   -5.9820 C.3    78  ALA78       0.1694
     44  C        -44.3000   16.8950   -5.6190 C.2    78  ALA78       0.2591
     45  O        -44.4520   17.1940   -4.4350 O.2    78  ALA78      -0.2718
     46  CB       -42.0930   15.8260   -6.2040 C.3    78  ALA78       0.0304
     47  N        -44.7560   17.6420   -6.6200 N.am   79  GLN79      -0.1979
     48  CA       -45.5290   18.8570   -6.3570 C.3    79  GLN79       0.1601
     49  C        -46.8310   18.5100   -5.6330 C.2    79  GLN79       0.2287
     50  O        -47.2080   19.1970   -4.6640 O.2    79  GLN79      -0.2864
     51  CB       -45.7930   19.6510   -7.6540 C.3    79  GLN79       0.0394
     52  CG       -46.4390   21.0160   -7.4240 C.3    79  GLN79       0.0908
     53  CD       -45.4730   22.0390   -6.8570 C.2    79  GLN79       0.2608
     54  OE1      -45.8610   22.9050   -6.0700 O.2    79  GLN79      -0.2717
     55  NE2      -44.2150   21.9580   -7.2730 N.am   79  GLN79      -0.0878
     56  N        -35.4780   11.5220   -6.2570 N.3   105  CYS105     -0.1221
     57  CA       -35.5660   12.3600   -7.4630 C.3   105  CYS105      0.1808
     58  C        -36.0350   13.7680   -7.0640 C.2   105  CYS105      0.2601
     59  O        -35.2450   14.4600   -6.4050 O.2   105  CYS105     -0.2717
     60  CB       -36.3770   11.6630   -8.5530 C.3   105  CYS105      0.0970
     61  SG       -35.8390   12.2610  -10.1810 S.3   105  CYS105     -0.0800
     62  N        -37.2370   14.2060   -7.4600 N.am  106  ALA106     -0.1979
     63  CA       -37.8580   15.4390   -6.9170 C.3   106  ALA106      0.1597
     64  C        -38.5960   15.1980   -5.5940 C.2   106  ALA106      0.2287
     65  O        -38.9800   16.1530   -4.9050 O.2   106  ALA106     -0.2864
     66  CB       -38.7670   16.1050   -7.9110 C.3   106  ALA106      0.0319
     67  N        -38.0290   17.2300   -2.3820 N.3   109  THR109     -0.1218
     68  CA       -38.5610   18.5980   -2.2850 C.3   109  THR109      0.1862
     69  C        -39.8350   18.6550   -1.4470 C.2   109  THR109      0.2287
     70  O        -40.1650   19.7230   -0.8950 O.2   109  THR109     -0.2866
     71  CB       -38.7480   19.3040   -3.6400 C.3   109  THR109      0.1770
     72  OG1      -39.7880   18.6470   -4.3960 O.3   109  THR109     -0.2211
     73  CG2      -37.4200   19.3600   -4.4080 C.3   109  THR109      0.0375
     74  N        -32.5330   14.6420   -7.6170 N.3   125  HIS125     -0.1241
     75  CA       -32.1550   14.7450   -9.0070 C.3   125  HIS125      0.1621
     76  C        -31.3700   16.0600   -9.2030 C.2   125  HIS125      0.2264
     77  O        -31.7310   17.0910   -8.5920 O.2   125  HIS125     -0.2867
     78  CB       -33.3680   14.7990   -9.8940 C.3   125  HIS125      0.0745
     79  CG       -33.0230   14.5670  -11.3280 C.ar  125  HIS125      0.0817
     80  ND1      -32.6210   15.5750  -12.1700 N.ar  125  HIS125     -0.2268
     81  CD2      -32.9560   13.4260  -12.0500 C.ar  125  HIS125      0.1154
     82  CE1      -32.3360   15.0760  -13.3460 C.ar  125  HIS125      0.1986
     83  NE2      -32.5000   13.7690  -13.2940 N.ar  125  HIS125     -0.2212
     84  N        -31.6450   18.2460  -11.3920 N.3   127  LEU127     -0.1231
     85  CA       -32.5680   19.3330  -11.7680 C.3   127  LEU127      0.1693
     86  C        -33.3980   19.8730  -10.6100 C.2   127  LEU127      0.2591
     87  O        -33.9970   20.9580  -10.7530 O.2   127  LEU127     -0.2718
     88  CB       -33.4850   18.9400  -12.9490 C.3   127  LEU127      0.0284
     89  CG       -32.7520   18.6080  -14.2390 C.3   127  LEU127      0.0019
     90  CD1      -33.7320   17.9390  -15.2240 C.3   127  LEU127      0.0001
     91  CD2      -32.1370   19.8770  -14.8550 C.3   127  LEU127      0.0001
     92  N        -33.4970   19.1010   -9.5230 N.am  128  ALA128     -0.1980
     93  CA       -34.2650   19.4910   -8.3530 C.3   128  ALA128      0.1597
     94  C        -33.3970   20.0940   -7.2460 C.2   128  ALA128      0.2287
     95  O        -33.9450   20.4990   -6.2170 O.2   128  ALA128     -0.2864
     96  CB       -35.0060   18.2730   -7.7870 C.3   128  ALA128      0.0319
     97  N        -34.3240   23.8250   -6.1180 N.3   131  LYS131     -0.1245
     98  CA       -35.5660   23.8900   -5.3560 C.3   131  LYS131      0.1561
     99  C        -35.3170   23.3710   -3.9340 C.2   131  LYS131      0.2260
    100  O        -35.7210   23.9800   -2.9520 O.2   131  LYS131     -0.2867
    101  CB       -36.6790   23.0600   -6.0340 C.3   131  LYS131      0.0271
    102  CG       -38.0090   23.0470   -5.3060 C.3   131  LYS131      0.0035
    103  CD       -39.1110   22.3010   -6.0580 C.3   131  LYS131      0.0206
    104  CE       -39.8210   23.1420   -7.0950 C.3   131  LYS131      0.1093
    105  NZ       -41.1610   23.5580   -6.5900 N.3   131  LYS131     -0.1314
    106  N        -34.4030    7.7720  -11.5670 N.3   157  PRO157     -0.2116
    107  CA       -34.8350    6.4270  -11.9160 C.3   157  PRO157      0.1372
    108  C        -33.6790    5.4350  -11.8580 C.2   157  PRO157      0.2244
    109  O        -33.8440    4.3230  -11.3440 O.2   157  PRO157     -0.2868
    110  CB       -35.3900    6.6160  -13.3270 C.3   157  PRO157      0.0268
    111  CG       -35.8980    8.0480  -13.3340 C.3   157  PRO157      0.0207
    112  CD       -34.8360    8.7830  -12.5430 C.3   157  PRO157      0.0892
@<TRIPOS>BOND
     1    22    21    2
     2    24    23    1
     3    24    25    1
     4    21    20    1
     5    23    20    1
     6    26    25    1
     7    26    27    2
     8    20    19    1
     9    29    27    1
    10    27    28    1
    11    90    89    1
    12     9     7   ar
    13    91    89    1
    14    89    88    1
    15     7     8   ar
    16     7     6    1
    17    82    83   ar
    18    82    80   ar
    19   111   110    1
    20   111   112    1
    21   110   107    1
    22    83    81   ar
    23    40    39    2
    24    88    85    1
    25     6     5    1
    26   112   106    1
    27    38    39    1
    28    38    35    1
    29    80    79   ar
    30    81    79   ar
    31    39    41   am
    32   107   108    1
    33   107   106    1
    34   108   109    2
    35    85    84    1
    36    85    86    1
    37     2     5    1
    38     2     3    1
    39     2     1    1
    40     3     4    2
    41    34    35    1
    42    34    32   am
    43    79    78    1
    44    35    36    1
    45    31    32    1
    46    31    30    1
    47    87    86    2
    48    86    92   am
    49    18    16   ar
    50    36    37    2
    51    32    33    2
    52    10    11    1
    53    61    60    1
    54    78    75    1
    55    16    15    1
    56    16    17   ar
    57    15    14    1
    58    92    93    1
    59    76    75    1
    60    76    77    2
    61    75    74    1
    62    11    14    1
    63    11    12    1
    64    60    57    1
    65    93    96    1
    66    93    94    1
    67    66    63    1
    68    12    13    2
    69    51    52    1
    70    51    48    1
    71    57    58    1
    72    57    56    1
    73    62    58   am
    74    62    63    1
    75    52    53    1
    76    55    53   am
    77    94    95    2
    78    42    43    1
    79   104   105    1
    80   104   103    1
    81    58    59    2
    82    63    64    1
    83    53    54    2
    84    47    48    1
    85    47    44   am
    86    48    49    1
    87    46    43    1
    88    97    98    1
    89   103   102    1
    90   101    98    1
    91   101   102    1
    92    43    44    1
    93    49    50    2
    94    44    45    2
    95    64    65    2
    96    98    99    1
    97    73    71    1
    98    72    71    1
    99    99   100    2
   100    71    68    1
   101    67    68    1
   102    68    69    1
   103    69    70    2
