@<TRIPOS>MOLECULE
tmp/6afrA00.pdb
 117 114 0 0 0
SMALL
GASTEIGER

@<TRIPOS>ATOM
      1  N        -29.9920   -0.3110   79.6300 N.3    40  TRP40      -0.1228
      2  CA       -30.3500   -1.6020   80.2150 C.3    40  TRP40       0.1722
      3  C        -29.1650   -2.4940   80.5680 C.2    40  TRP40       0.2437
      4  O        -29.2480   -3.2000   81.5870 O.2    40  TRP40      -0.2733
      5  CB       -31.3190   -2.3450   79.2840 C.3    40  TRP40       0.0563
      6  CG       -30.8050   -2.6300   77.8980 C.ar   40  TRP40       0.0003
      7  CD1      -30.9790   -1.8570   76.7850 C.ar   40  TRP40       0.0946
      8  CD2      -30.0660   -3.7910   77.4670 C.ar   40  TRP40       0.0152
      9  NE1      -30.3850   -2.4550   75.6920 N.ar   40  TRP40      -0.2442
     10  CE2      -29.8170   -3.6390   76.0840 C.ar   40  TRP40       0.0810
     11  CE3      -29.5780   -4.9300   78.1180 C.ar   40  TRP40       0.0012
     12  CZ2      -29.1070   -4.5830   75.3440 C.ar   40  TRP40       0.0191
     13  CZ3      -28.8750   -5.8730   77.3730 C.ar   40  TRP40       0.0001
     14  CH2      -28.6470   -5.6890   76.0070 C.ar   40  TRP40       0.0015
     15  N        -28.0630   -2.5290   79.8090 N.am   41  PRO41      -0.2718
     16  CA       -26.9280   -3.3750   80.2240 C.3    41  PRO41       0.1535
     17  C        -26.2810   -2.9310   81.5210 C.2    41  PRO41       0.2598
     18  O        -25.5750   -3.7310   82.1440 O.2    41  PRO41      -0.2715
     19  CB       -25.9400   -3.2490   79.0550 C.3    41  PRO41       0.0310
     20  CG       -26.7620   -2.7240   77.9110 C.3    41  PRO41       0.0237
     21  CD       -27.7980   -1.8440   78.5350 C.3    41  PRO41       0.0939
     22  N        -26.4920   -1.6840   81.9430 N.am   42  PHE42      -0.1974
     23  CA       -25.7180   -1.0730   83.0080 C.3    42  PHE42       0.1639
     24  C        -26.5610   -0.8060   84.2440 C.2    42  PHE42       0.2290
     25  O        -26.1290   -0.0620   85.1380 O.2    42  PHE42      -0.2864
     26  CB       -25.0780    0.2240   82.4960 C.3    42  PHE42       0.0560
     27  CG       -24.2940    0.0460   81.2150 C.ar   42  PHE42      -0.0200
     28  CD1      -22.9820   -0.4020   81.2450 C.ar   42  PHE42      -0.0042
     29  CD2      -24.8690    0.3170   79.9900 C.ar   42  PHE42      -0.0042
     30  CE1      -22.2560   -0.5720   80.0820 C.ar   42  PHE42      -0.0003
     31  CE2      -24.1470    0.1350   78.8000 C.ar   42  PHE42      -0.0003
     32  CZ       -22.8440   -0.2970   78.8400 C.ar   42  PHE42      -0.0000
     33  N        -22.9740   -6.9290   86.3990 N.3    46  VAL46      -0.1245
     34  CA       -22.9700   -7.9160   85.3270 C.3    46  VAL46       0.1561
     35  C        -23.0490   -9.3080   85.9400 C.2    46  VAL46       0.2260
     36  O        -22.2230   -9.6910   86.7800 O.2    46  VAL46      -0.2867
     37  CB       -21.7450   -7.7710   84.4100 C.3    46  VAL46       0.0252
     38  CG1      -21.3160   -6.3190   84.2790 C.3    46  VAL46       0.0019
     39  CG2      -20.6100   -8.6700   84.8600 C.3    46  VAL46       0.0019
     40  N        -25.0510  -14.1280   81.7510 N.3    51  LEU51      -0.1245
     41  CA       -24.5490  -13.6880   80.4560 C.3    51  LEU51       0.1561
     42  C        -23.4470  -14.5760   79.9070 C.2    51  LEU51       0.2260
     43  O        -22.9610  -14.3120   78.8020 O.2    51  LEU51      -0.2867
     44  CB       -24.0340  -12.2490   80.5320 C.3    51  LEU51       0.0270
     45  CG       -25.0940  -11.1770   80.8030 C.3    51  LEU51       0.0019
     46  CD1      -24.4350   -9.8390   81.1210 C.3    51  LEU51       0.0001
     47  CD2      -26.0410  -11.0590   79.6010 C.3    51  LEU51       0.0001
     48  N        -20.2410  -14.9470   80.8100 N.3    53  LEU53      -0.1245
     49  CA       -18.9880  -14.2010   80.7090 C.3    53  LEU53       0.1561
     50  C        -18.0650  -14.6920   81.8230 C.2    53  LEU53       0.2260
     51  O        -17.7510  -13.9490   82.7640 O.2    53  LEU53      -0.2867
     52  CB       -19.2330  -12.6970   80.8040 C.3    53  LEU53       0.0270
     53  CG       -20.2240  -12.1540   79.7670 C.3    53  LEU53       0.0019
     54  CD1      -20.8050  -10.8120   80.1980 C.3    53  LEU53       0.0001
     55  CD2      -19.5460  -12.0340   78.4000 C.3    53  LEU53       0.0001
     56  N        -15.3470  -12.4030   82.9140 N.3    56  TYR56      -0.1241
     57  CA       -15.6070  -10.9870   83.1630 C.3    56  TYR56       0.1605
     58  C        -14.8680  -10.5210   84.4000 C.2    56  TYR56       0.2264
     59  O        -14.1060   -9.5470   84.3560 O.2    56  TYR56      -0.2867
     60  CB       -17.0970  -10.6900   83.3310 C.3    56  TYR56       0.0534
     61  CG       -17.3090   -9.1880   83.4700 C.ar   56  TYR56      -0.0201
     62  CD1      -17.2710   -8.3590   82.3470 C.ar   56  TYR56      -0.0009
     63  CD2      -17.4810   -8.5910   84.7170 C.ar   56  TYR56      -0.0009
     64  CE1      -17.4370   -6.9880   82.4590 C.ar   56  TYR56       0.0417
     65  CE2      -17.6510   -7.2030   84.8380 C.ar   56  TYR56       0.0417
     66  CZ       -17.6320   -6.4110   83.6990 C.ar   56  TYR56       0.1957
     67  OH       -17.7900   -5.0340   83.7880 O.3    56  TYR56      -0.2866
     68  N        -16.2650   -1.1340   80.8810 N.3    95  CYS95      -0.1235
     69  CA       -16.8630   -1.6470   79.6620 C.3    95  CYS95       0.1677
     70  C        -15.8960   -1.5280   78.4900 C.2    95  CYS95       0.2270
     71  O        -15.8620   -2.4100   77.6180 O.2    95  CYS95      -0.2867
     72  CB       -18.1710   -0.9060   79.3860 C.3    95  CYS95       0.0956
     73  SG       -18.9300   -1.3850   77.8360 S.3    95  CYS95      -0.0801
     74  N        -13.1490   -4.3760   79.1730 N.3    98  TYR98      -0.1227
     75  CA       -13.5140   -5.7750   78.9630 C.3    98  TYR98       0.1736
     76  C        -13.8250   -6.0740   77.5130 C.2    98  TYR98       0.2595
     77  O        -13.8650   -7.2500   77.1270 O.2    98  TYR98      -0.2718
     78  CB       -14.7220   -6.1770   79.8100 C.3    98  TYR98       0.0548
     79  CG       -15.1520   -7.6200   79.5790 C.ar   98  TYR98      -0.0200
     80  CD1      -14.3980   -8.6790   80.0810 C.ar   98  TYR98      -0.0009
     81  CD2      -16.3010   -7.9220   78.8460 C.ar   98  TYR98      -0.0009
     82  CE1      -14.7760   -9.9980   79.8620 C.ar   98  TYR98       0.0417
     83  CE2      -16.6940   -9.2420   78.6290 C.ar   98  TYR98       0.0417
     84  CZ       -15.9220  -10.2750   79.1420 C.ar   98  TYR98       0.1957
     85  OH       -16.2910  -11.5880   78.9430 O.3    98  TYR98      -0.2866
     86  N        -14.0550   -5.0360   76.7200 N.am   99  ASN99      -0.1974
     87  CA       -14.4210   -5.2120   75.3280 C.3    99  ASN99       0.1688
     88  C        -13.3490   -4.6030   74.4400 C.2    99  ASN99       0.2292
     89  O        -12.1790   -4.5220   74.8260 O.2    99  ASN99      -0.2864
     90  CB       -15.7850   -4.5850   75.0670 C.3    99  ASN99       0.1181
     91  CG       -16.8590   -5.1800   75.9450 C.2    99  ASN99       0.2629
     92  OD1      -17.3270   -4.5390   76.8950 O.2    99  ASN99      -0.2716
     93  ND2      -17.2450   -6.4180   75.6520 N.am   99  ASN99      -0.0877
     94  N        -20.8230   -3.5270   69.9750 N.3   104  ASP104     -0.1225
     95  CA       -22.1260   -2.9250   70.2360 C.3   104  ASP104      0.1805
     96  C        -22.1900   -2.3910   71.6650 C.2   104  ASP104      0.2597
     97  O        -22.6950   -1.2880   71.9030 O.2   104  ASP104     -0.2718
     98  CB       -23.2490   -3.9390   69.9830 C.3   104  ASP104      0.1424
     99  CG       -23.6640   -4.0130   68.5010 C.2   104  ASP104      0.3668
    100  OD1      -23.2100   -3.1540   67.7070 O.co2 104  ASP104     -0.2456
    101  OD2      -24.4330   -4.9390   68.1270 O.co2 104  ASP104     -0.2456
    102  N        -21.6560   -3.1480   72.6280 N.am  105  ILE105     -0.1980
    103  CA       -21.7770   -2.7120   74.0170 C.3   105  ILE105      0.1595
    104  C        -20.9510   -1.4580   74.2530 C.2   105  ILE105      0.2287
    105  O        -21.3370   -0.5990   75.0550 O.2   105  ILE105     -0.2864
    106  CB       -21.3880   -3.8470   74.9890 C.3   105  ILE105      0.0276
    107  CG1      -21.6190   -3.4130   76.4420 C.3   105  ILE105      0.0022
    108  CG2      -19.9430   -4.2930   74.7690 C.3   105  ILE105      0.0022
    109  CD1      -23.0640   -3.2430   76.8060 C.3   105  ILE105      0.0001
    110  N        -22.7570    1.4930   73.0430 N.3   108  MET108     -0.1245
    111  CA       -23.7200    1.8690   74.0670 C.3   108  MET108      0.1570
    112  C        -23.0570    2.7060   75.1540 C.2   108  MET108      0.2261
    113  O        -23.5330    3.7990   75.4900 O.2   108  MET108     -0.2867
    114  CB       -24.3700    0.6150   74.6430 C.3   108  MET108      0.0387
    115  CG       -25.0950   -0.1500   73.5600 C.3   108  MET108      0.0595
    116  SD       -25.8820   -1.6400   74.1500 S.3   108  MET108     -0.1393
    117  CE       -27.4780   -0.9940   74.6020 C.3   108  MET108      0.0692
@<TRIPOS>BOND
     1   100    99   ar
     2   101    99   ar
     3    99    98    1
     4    94    95    1
     5    98    95    1
     6    95    96    1
     7    96    97    2
     8    96   102   am
     9   102   103    1
    10   110   111    1
    11   115   116    1
    12   115   114    1
    13   103   104    1
    14   103   106    1
    15   111   114    1
    16   111   112    1
    17   116   117    1
    18   104   105    2
    19    88    89    2
    20    88    87    1
    21   108   106    1
    22   106   107    1
    23    90    87    1
    24    90    91    1
    25   112   113    2
    26    87    86    1
    27    12    14   ar
    28    12    10   ar
    29    93    91   am
    30     9    10   ar
    31     9     7   ar
    32    91    92    2
    33    14    13   ar
    34    10     8   ar
    35   107   109    1
    36    86    76   am
    37     7     6   ar
    38    77    76    2
    39    13    11   ar
    40     8     6   ar
    41     8    11   ar
    42    76    75    1
    43    71    70    2
    44    73    72    1
    45     6     5    1
    46    20    21    1
    47    20    19    1
    48    55    53    1
    49    70    69    1
    50    21    15    1
    51    83    81   ar
    52    83    84   ar
    53    31    32   ar
    54    31    29   ar
    55    43    42    2
    56    32    30   ar
    57    81    79   ar
    58    85    84    1
    59    75    74    1
    60    75    78    1
    61    19    16    1
    62    84    82   ar
    63     5     2    1
    64    72    69    1
    65    79    78    1
    66    79    80   ar
    67    47    45    1
    68     1     2    1
    69    69    68    1
    70    53    54    1
    71    53    52    1
    72    15    16    1
    73    15     3   am
    74    82    80   ar
    75    42    41    1
    76    29    27   ar
    77    30    28   ar
    78     2     3    1
    79    16    17    1
    80    41    44    1
    81    41    40    1
    82    44    45    1
    83     3     4    2
    84    49    52    1
    85    49    48    1
    86    49    50    1
    87    45    46    1
    88    27    28   ar
    89    27    26    1
    90    17    22   am
    91    17    18    2
    92    50    51    2
    93    22    23    1
    94    62    64   ar
    95    62    61   ar
    96    64    66   ar
    97    26    23    1
    98    56    57    1
    99    23    24    1
   100    57    60    1
   101    57    58    1
   102    60    61    1
   103    61    63   ar
   104    66    67    1
   105    66    65   ar
   106    24    25    2
   107    38    37    1
   108    59    58    2
   109    37    39    1
   110    37    34    1
   111    63    65   ar
   112    34    35    1
   113    34    33    1
   114    35    36    2
