@<TRIPOS>MOLECULE
tmp/6ag0B02.pdb
 75 74 0 0 0
SMALL
GASTEIGER

@<TRIPOS>ATOM
      1  N         18.8000    6.6180   72.1130 N.3   297  SER297     -0.1202
      2  CA        18.5740    8.0600   72.0990 C.3   297  SER297      0.2020
      3  C         18.7720    8.6750   70.7170 C.2   297  SER297      0.2618
      4  O         18.3090    9.7970   70.4810 O.2   297  SER297     -0.2717
      5  CB        19.4920    8.7570   73.1190 C.3   297  SER297      0.2103
      6  OG        20.8380    8.8560   72.6720 O.3   297  SER297     -0.2182
      7  N         19.4640    7.9820   69.8150 N.am  298  LYS298     -0.1979
      8  CA        19.7490    8.4870   68.4830 C.3   298  LYS298      0.1596
      9  C         18.8620    7.8760   67.3940 C.2   298  LYS298      0.2287
     10  O         18.9790    8.2720   66.2300 O.2   298  LYS298     -0.2864
     11  CB        21.2290    8.2430   68.1460 C.3   298  LYS298      0.0298
     12  CG        22.2260    8.9720   69.0590 C.3   298  LYS298      0.0038
     13  CD        22.0910   10.4610   68.8950 C.3   298  LYS298      0.0206
     14  CE        23.3390   11.1900   69.3400 C.3   298  LYS298      0.1093
     15  NZ        23.1260   12.6710   69.3050 N.3   298  LYS298     -0.1314
     16  N         15.4280    7.7620   67.0220 N.3   300  GLY300     -0.1225
     17  CA        14.1280    8.3390   66.6960 C.3   300  GLY300      0.1811
     18  C         12.9230    7.4830   67.0370 C.2   300  GLY300      0.2280
     19  O         11.8660    7.6380   66.4150 O.2   300  GLY300     -0.2866
     20  N         21.5520   11.8670   74.2310 N.3   341  ASP341     -0.1225
     21  CA        20.7640   13.0690   73.9670 C.3   341  ASP341      0.1790
     22  C         19.8870   13.4280   75.1640 C.2   341  ASP341      0.2440
     23  O         19.3330   12.5390   75.8150 O.2   341  ASP341     -0.2733
     24  CB        19.8880   12.8690   72.7320 C.3   341  ASP341      0.1423
     25  CG        20.4820   13.4900   71.4930 C.2   341  ASP341      0.3668
     26  OD1       21.5760   14.0780   71.5780 O.co2 341  ASP341     -0.2456
     27  OD2       19.8490   13.3780   70.4280 O.co2 341  ASP341     -0.2456
     28  N         19.6930   14.7210   75.4400 N.am  342  PRO342     -0.2718
     29  CA        18.9770   15.1250   76.6670 C.3   342  PRO342      0.1535
     30  C         17.5700   14.5670   76.8030 C.2   342  PRO342      0.2598
     31  O         17.1560   14.2550   77.9240 O.2   342  PRO342     -0.2715
     32  CB        18.9410   16.6590   76.5650 C.3   342  PRO342      0.0310
     33  CG        19.9750   17.0310   75.5710 C.3   342  PRO342      0.0237
     34  CD        20.0890   15.8730   74.6130 C.3   342  PRO342      0.0939
     35  N         16.8110   14.4480   75.7070 N.am  343  TRP343     -0.1974
     36  CA        15.4480   13.9410   75.8240 C.3   343  TRP343      0.1640
     37  C         15.4370   12.5370   76.4120 C.2   343  TRP343      0.2290
     38  O         14.5260   12.1890   77.1720 O.2   343  TRP343     -0.2864
     39  CB        14.7400   13.9580   74.4580 C.3   343  TRP343      0.0576
     40  CG        15.1380   12.8410   73.5490 C.ar  343  TRP343      0.0006
     41  CD1       16.1670   12.8430   72.6390 C.ar  343  TRP343      0.0946
     42  CD2       14.5360   11.5440   73.4660 C.ar  343  TRP343      0.0152
     43  NE1       16.2290   11.6330   71.9920 N.ar  343  TRP343     -0.2442
     44  CE2       15.2440   10.8170   72.4800 C.ar  343  TRP343      0.0810
     45  CE3       13.4570   10.9300   74.1170 C.ar  343  TRP343      0.0012
     46  CZ2       14.9170    9.5090   72.1370 C.ar  343  TRP343      0.0191
     47  CZ3       13.1300    9.6300   73.7730 C.ar  343  TRP343      0.0001
     48  CH2       13.8630    8.9290   72.7920 C.ar  343  TRP343      0.0015
     49  N         10.5780    5.4860   74.1980 N.3   428  ASP428     -0.1225
     50  CA        11.3290    6.1890   73.1660 C.3   428  ASP428      0.1805
     51  C         10.4630    6.6360   71.9950 C.2   428  ASP428      0.2598
     52  O         10.9970    7.1600   71.0160 O.2   428  ASP428     -0.2718
     53  CB        12.4680    5.3160   72.6520 C.3   428  ASP428      0.1424
     54  CG        11.9910    4.2290   71.7140 C.2   428  ASP428      0.3668
     55  OD1       10.8370    3.7710   71.8680 O.co2 428  ASP428     -0.2456
     56  OD2       12.7840    3.8230   70.8300 O.co2 428  ASP428     -0.2456
     57  N          9.1480    6.4450   72.0750 N.am  429  GLY429     -0.1943
     58  CA         8.2360    6.8700   71.0400 C.3   429  GLY429      0.1998
     59  C          7.0460    7.5650   71.6660 C.2   429  GLY429      0.2480
     60  O          7.1650    8.2000   72.7210 O.2   429  GLY429     -0.2729
     61  N          5.8720    7.4590   71.0420 N.am  430  PRO430     -0.2726
     62  CA         4.6780    8.0740   71.6370 C.3   430  PRO430      0.1402
     63  C          4.3280    7.4320   72.9710 C.2   430  PRO430      0.2269
     64  O          4.7360    6.3070   73.2850 O.2   430  PRO430     -0.2865
     65  CB         3.5780    7.8430   70.5940 C.3   430  PRO430      0.0296
     66  CG         4.1190    6.8360   69.6370 C.3   430  PRO430      0.0237
     67  CD         5.6170    6.8900   69.7070 C.3   430  PRO430      0.0939
     68  N          4.7750   10.9440   75.6790 N.3   472  GLY472     -0.1210
     69  CA         5.6610   10.5710   74.5870 C.3   472  GLY472      0.1956
     70  C          7.0810   11.0510   74.8340 C.2   472  GLY472      0.2612
     71  O          7.3080   12.1630   75.3160 O.2   472  GLY472     -0.2717
     72  N          8.0450   10.1980   74.4870 N.am  473  GLY473     -0.1956
     73  CA         9.4610   10.5190   74.7020 C.3   473  GLY473      0.1869
     74  C          9.7850   10.9530   76.1160 C.2   473  GLY473      0.2309
     75  O         10.6000   11.8620   76.3150 O.2   473  GLY473     -0.2863
@<TRIPOS>BOND
     1    10     9    2
     2    19    18    2
     3    17    16    1
     4    17    18    1
     5     9     8    1
     6    11     8    1
     7    11    12    1
     8     8     7    1
     9    13    12    1
    10    13    14    1
    11    15    14    1
    12    66    67    1
    13    66    65    1
    14    67    61    1
    15     7     3   am
    16    27    25   ar
    17     4     3    2
    18    65    62    1
    19     3     2    1
    20    56    54   ar
    21    52    51    2
    22    58    59    1
    23    58    57    1
    24    61    62    1
    25    61    59   am
    26    25    26   ar
    27    25    24    1
    28    62    63    1
    29    59    60    2
    30    54    55   ar
    31    54    53    1
    32    43    44   ar
    33    43    41   ar
    34    51    57   am
    35    51    50    1
    36     2     1    1
    37     2     5    1
    38    46    44   ar
    39    46    48   ar
    40    44    42   ar
    41    41    40   ar
    42    53    50    1
    43     6     5    1
    44    24    21    1
    45    48    47   ar
    46    63    64    2
    47    50    49    1
    48    42    40   ar
    49    42    45   ar
    50    40    39    1
    51    47    45   ar
    52    21    20    1
    53    21    22    1
    54    39    36    1
    55    72    73    1
    56    72    70   am
    57    69    70    1
    58    69    68    1
    59    34    28    1
    60    34    33    1
    61    73    74    1
    62    70    71    2
    63    22    28   am
    64    22    23    2
    65    28    29    1
    66    33    32    1
    67    35    36    1
    68    35    30   am
    69    36    37    1
    70    74    75    2
    71    37    38    2
    72    32    29    1
    73    29    30    1
    74    30    31    2
