@<TRIPOS>MOLECULE
tmp/6ag0B01.pdb
 141 135 0 0 0
SMALL
GASTEIGER

@<TRIPOS>ATOM
      1  N         17.3510   -2.0520  104.9410 N.3     1  PRO1       -0.2102
      2  CA        17.6510   -1.9760  103.5050 C.3     1  PRO1        0.1504
      3  C         18.0530   -0.5800  103.0570 C.2     1  PRO1        0.2576
      4  O         17.5510    0.4230  103.5770 O.2     1  PRO1       -0.2718
      5  CB        16.3270   -2.3790  102.8330 C.3     1  PRO1        0.0282
      6  CG        15.4900   -2.9720  103.9230 C.3     1  PRO1        0.0208
      7  CD        15.9220   -2.3030  105.1880 C.3     1  PRO1        0.0893
      8  N         18.9440   -0.5160  102.0710 N.am    2  PHE2       -0.1963
      9  CA        19.3520    0.7700  101.5320 C.3     2  PHE2        0.1771
     10  C         19.7830    0.5800  100.0890 C.2     2  PHE2        0.2620
     11  O         20.1640   -0.5150   99.6660 O.2     2  PHE2       -0.2715
     12  CB        20.4750    1.4090  102.3590 C.3     2  PHE2        0.0574
     13  CG        21.8490    1.0470  101.8960 C.ar    2  PHE2       -0.0200
     14  CD1       22.7050    2.0280  101.4280 C.ar    2  PHE2       -0.0042
     15  CD2       22.2790   -0.2690  101.9070 C.ar    2  PHE2       -0.0042
     16  CE1       23.9620    1.7060  100.9830 C.ar    2  PHE2       -0.0003
     17  CE2       23.5420   -0.5930  101.4660 C.ar    2  PHE2       -0.0003
     18  CZ        24.3820    0.3970  101.0000 C.ar    2  PHE2       -0.0000
     19  N         19.7240    1.6680   99.3400 N.am    3  ASN3       -0.1958
     20  CA        20.1250    1.6720   97.9430 C.3     3  ASN3        0.1819
     21  C         21.3780    2.5230   97.8310 C.2     3  ASN3        0.2621
     22  O         21.3420    3.7350   98.0680 O.2     3  ASN3       -0.2715
     23  CB        19.0420    2.2140   97.0160 C.3     3  ASN3        0.1195
     24  CG        17.8400    1.2790   96.8740 C.2     3  ASN3        0.2630
     25  OD1       17.9830    0.0520   96.8470 O.2     3  ASN3       -0.2716
     26  ND2       16.6570    1.8740   96.6580 N.am    3  ASN3       -0.0877
     27  N         22.4940    1.8780   97.5220 N.am    4  GLY4       -0.1954
     28  CA        23.6870    2.6290   97.2100 C.3     4  GLY4        0.1869
     29  C         23.4940    3.4260   95.9310 C.2     4  GLY4        0.2309
     30  O         22.8570    2.9670   94.9790 O.2     4  GLY4       -0.2863
     31  N         25.3150    7.9760   98.3190 N.3    37  THR37      -0.1218
     32  CA        26.0800    7.2960   99.3460 C.3    37  THR37       0.1862
     33  C         27.5710    7.1990   99.0450 C.2    37  THR37       0.2287
     34  O         28.3240    6.7590   99.9160 O.2    37  THR37      -0.2866
     35  CB        25.5070    5.8930   99.5840 C.3    37  THR37       0.1770
     36  OG1       25.6090    5.1350   98.3780 O.3    37  THR37      -0.2211
     37  CG2       24.0270    5.9550  100.0620 C.3    37  THR37       0.0375
     38  N         28.0810   10.9540  105.8830 N.3    93  GLY93      -0.1225
     39  CA        27.7170    9.5550  105.7350 C.3    93  GLY93       0.1811
     40  C         27.9420    8.9540  104.3630 C.2    93  GLY93       0.2280
     41  O         27.3300    7.9290  104.0400 O.2    93  GLY93      -0.2866
     42  N         30.6600    7.3660  101.3990 N.3    95  GLN95      -0.1245
     43  CA        31.9650    6.8100  101.1110 C.3    95  GLN95       0.1566
     44  C         32.6600    7.6360  100.0270 C.2    95  GLN95       0.2260
     45  O         32.0410    8.4490   99.3330 O.2    95  GLN95      -0.2867
     46  CB        31.8310    5.3590  100.6720 C.3    95  GLN95       0.0367
     47  CG        31.4040    4.4000  101.7830 C.3    95  GLN95       0.0905
     48  CD        31.7000    2.9580  101.4080 C.2    95  GLN95       0.2608
     49  OE1       31.4850    2.5380  100.2600 O.2    95  GLN95      -0.2717
     50  NE2       32.2200    2.1970  102.3630 N.am   95  GLN95      -0.0878
     51  N         35.4470    7.1120   96.8090 N.3    97  TYR97      -0.1241
     52  CA        36.2850    6.2790   95.9500 C.3    97  TYR97       0.1605
     53  C         37.2590    7.1810   95.2010 C.2    97  TYR97       0.2264
     54  O         36.8410    8.1440   94.5480 O.2    97  TYR97      -0.2867
     55  CB        35.4490    5.4560   94.9530 C.3    97  TYR97       0.0534
     56  CG        34.3050    4.6670   95.5700 C.ar   97  TYR97      -0.0201
     57  CD1       33.1220    4.4610   94.8580 C.ar   97  TYR97      -0.0009
     58  CD2       34.3910    4.1410   96.8720 C.ar   97  TYR97      -0.0009
     59  CE1       32.0730    3.7520   95.3950 C.ar   97  TYR97       0.0417
     60  CE2       33.3180    3.4100   97.4360 C.ar   97  TYR97       0.0417
     61  CZ        32.1590    3.2330   96.6790 C.ar   97  TYR97       0.1957
     62  OH        31.0760    2.5340   97.1830 O.3    97  TYR97      -0.2866
     63  N         37.4600   -2.9580  103.5680 N.3   256  PRO256     -0.2116
     64  CA        36.9390   -3.7460  102.4390 C.3   256  PRO256      0.1372
     65  C         37.2500   -3.1340  101.0800 C.2   256  PRO256      0.2244
     66  O         37.4380   -3.8830  100.1110 O.2   256  PRO256     -0.2868
     67  CB        35.4290   -3.8260  102.7220 C.3   256  PRO256      0.0268
     68  CG        35.1480   -2.7930  103.7800 C.3   256  PRO256      0.0207
     69  CD        36.4200   -2.6150  104.5530 C.3   256  PRO256      0.0892
     70  N         35.7600   -1.2000   98.4290 N.3   258  PHE258     -0.1241
     71  CA        34.9930   -1.4390   97.2080 C.3   258  PHE258      0.1605
     72  C         35.7680   -0.9140   95.9990 C.2   258  PHE258      0.2264
     73  O         36.4390    0.1170   96.0710 O.2   258  PHE258     -0.2867
     74  CB        33.6220   -0.7520   97.2690 C.3   258  PHE258      0.0534
     75  CG        32.9050   -0.7470   95.9420 C.ar  258  PHE258     -0.0203
     76  CD1       32.1760   -1.8500   95.5340 C.ar  258  PHE258     -0.0042
     77  CD2       33.0160    0.3300   95.0770 C.ar  258  PHE258     -0.0042
     78  CE1       31.5610   -1.8720   94.3150 C.ar  258  PHE258     -0.0003
     79  CE2       32.3990    0.3070   93.8500 C.ar  258  PHE258     -0.0003
     80  CZ        31.6650   -0.7920   93.4710 C.ar  258  PHE258     -0.0000
     81  N         33.9640   -4.7500   90.8370 N.3   283  SER283     -0.1217
     82  CA        32.8910   -4.4590   89.9050 C.3   283  SER283      0.1889
     83  C         33.4610   -3.8310   88.6340 C.2   283  SER283      0.2288
     84  O         34.6460   -3.4860   88.5550 O.2   283  SER283     -0.2866
     85  CB        31.8700   -3.5290   90.5510 C.3   283  SER283      0.2089
     86  OG        31.1660   -4.2030   91.5680 O.3   283  SER283     -0.2183
     87  N         24.6760   -8.6420   87.7370 N.3   318  PRO318     -0.2102
     88  CA        24.2090   -7.3610   88.3040 C.3   318  PRO318      0.1504
     89  C         24.9480   -6.9250   89.5610 C.2   318  PRO318      0.2576
     90  O         25.1410   -5.7180   89.7510 O.2   318  PRO318     -0.2718
     91  CB        22.7210   -7.6090   88.5850 C.3   318  PRO318      0.0282
     92  CG        22.5590   -9.1120   88.6030 C.3   318  PRO318      0.0208
     93  CD        23.6260   -9.6750   87.7110 C.3   318  PRO318      0.0893
     94  N         25.4000   -7.8510   90.4100 N.am  319  THR319     -0.1953
     95  CA        26.0990   -7.4290   91.6220 C.3   319  THR319      0.1897
     96  C         27.5250   -6.9450   91.3690 C.2   319  THR319      0.2313
     97  O         28.1570   -6.4450   92.2980 O.2   319  THR319     -0.2863
     98  CB        26.1540   -8.5570   92.6510 C.3   319  THR319      0.1794
     99  OG1       27.1250   -9.5210   92.2270 O.3   319  THR319     -0.2208
    100  CG2       24.7820   -9.2090   92.8300 C.3   319  THR319      0.0378
    101  N         27.9370   -4.9340   88.5900 N.3   321  ALA321     -0.1245
    102  CA        27.6640   -3.9080   87.5930 C.3   321  ALA321      0.1562
    103  C         27.5760   -2.5430   88.2580 C.2   321  ALA321      0.2260
    104  O         26.8510   -2.3600   89.2420 O.2   321  ALA321     -0.2867
    105  CB        26.3810   -4.2210   86.8180 C.3   321  ALA321      0.0290
    106  N         22.3260   -3.6740   89.6940 N.3   358  GLY358     -0.1210
    107  CA        23.4290   -2.7600   89.5030 C.3   358  GLY358      0.1956
    108  C         23.5710   -1.7130   90.5980 C.2   358  GLY358      0.2611
    109  O         22.7200   -1.5330   91.4750 O.2   358  GLY358     -0.2717
    110  N         24.6850   -0.9950   90.5180 N.am  359  TYR359     -0.1976
    111  CA        25.0450    0.0520   91.4740 C.3   359  TYR359      0.1639
    112  C         25.1100    1.3500   90.6760 C.2   359  TYR359      0.2290
    113  O         26.1010    1.6030   89.9650 O.2   359  TYR359     -0.2864
    114  CB        26.3870   -0.2970   92.1220 C.3   359  TYR359      0.0560
    115  CG        26.9730    0.6370   93.1650 C.ar  359  TYR359     -0.0198
    116  CD1       26.2720    1.7400   93.6650 C.ar  359  TYR359     -0.0009
    117  CD2       28.2290    0.3560   93.7020 C.ar  359  TYR359     -0.0009
    118  CE1       26.8390    2.5580   94.6330 C.ar  359  TYR359      0.0417
    119  CE2       28.7970    1.1540   94.6750 C.ar  359  TYR359      0.0417
    120  CZ        28.1120    2.2530   95.1410 C.ar  359  TYR359      0.1957
    121  OH        28.7260    3.0210   96.1140 O.3   359  TYR359     -0.2866
    122  N         14.6450    6.6110   94.1530 N.3   389  ARG389     -0.1245
    123  CA        15.5480    5.5600   94.6200 C.3   389  ARG389      0.1563
    124  C         15.7150    5.5970   96.1340 C.2   389  ARG389      0.2260
    125  O         15.7700    4.5450   96.7820 O.2   389  ARG389     -0.2867
    126  CB        16.9150    5.6870   93.9510 C.3   389  ARG389      0.0307
    127  CG        17.8970    4.5770   94.3650 C.3   389  ARG389      0.0489
    128  CD        19.1880    4.6180   93.5460 C.3   389  ARG389      0.2205
    129  NE        20.1220    3.5670   93.9490 N.pl3 389  ARG389     -0.0865
    130  CZ        19.9620    2.2830   93.6330 C.cat 389  ARG389      0.5346
    131  NH1       18.9140    1.9060   92.9100 N.pl3 389  ARG389      0.1354
    132  NH2       20.8430    1.3740   94.0290 N.pl3 389  ARG389      0.1354
    133  N         10.5080    0.1670  104.9330 N.3   417  LYS417     -0.1245
    134  CA        10.4510    1.4970  104.3310 C.3   417  LYS417      0.1561
    135  C          8.9880    1.7870  104.0360 C.2   417  LYS417      0.2260
    136  O          8.5090    1.5620  102.9130 O.2   417  LYS417     -0.2867
    137  CB        11.3060    1.5960  103.0670 C.3   417  LYS417      0.0271
    138  CG        12.7650    1.2830  103.2800 C.3   417  LYS417      0.0035
    139  CD        13.5570    2.5810  103.2190 C.3   417  LYS417      0.0206
    140  CE        14.6390    2.6460  104.2770 C.3   417  LYS417      0.1093
    141  NZ        15.7660    3.4930  103.8040 N.3   417  LYS417     -0.1314
@<TRIPOS>BOND
     1   105   102    1
     2   102   103    1
     3   102   101    1
     4    93    87    1
     5    93    92    1
     6    87    88    1
     7   103   104    2
     8    88    91    1
     9    88    89    1
    10    84    83    2
    11    91    92    1
    12    83    82    1
    13   107   106    1
    14   107   108    1
    15    89    90    2
    16    89    94   am
    17    82    85    1
    18    82    81    1
    19   113   112    2
    20    94    95    1
    21   110   108   am
    22   110   111    1
    23    85    86    1
    24   108   109    2
    25   112   111    1
    26    96    95    1
    27    96    97    2
    28   111   114    1
    29    95    98    1
    30   114   115    1
    31    99    98    1
    32    98   100    1
    33   131   130    1
    34   115   116   ar
    35   115   117   ar
    36    80    79   ar
    37    80    78   ar
    38   128   129    1
    39   128   127    1
    40   130   129    2
    41   130   132    1
    42   116   118   ar
    43   117   119   ar
    44    79    77   ar
    45   126   127    1
    46   126   123    1
    47   122   123    1
    48    78    76   ar
    49    54    53    2
    50   123   124    1
    51   118   120   ar
    52   119   120   ar
    53    57    59   ar
    54    57    56   ar
    55    55    56    1
    56    55    52    1
    57    30    29    2
    58    77    75   ar
    59   120   121    1
    60    53    52    1
    61    59    61   ar
    62    76    75   ar
    63    56    58   ar
    64    29    28    1
    65    75    74    1
    66    52    51    1
    67    72    73    2
    68    72    71    1
    69   124   125    2
    70    26    24   am
    71    61    62    1
    72    61    60   ar
    73    25    24    2
    74    58    60   ar
    75    24    23    1
    76    23    20    1
    77    71    74    1
    78    71    70    1
    79    28    27    1
    80    27    21   am
    81    21    20    1
    82    21    22    2
    83    20    19    1
    84    31    32    1
    85    36    35    1
    86    33    32    1
    87    33    34    2
    88    45    44    2
    89    19    10   am
    90    32    35    1
    91    35    37    1
    92    11    10    2
    93    44    43    1
    94    10     9    1
    95    66    65    2
    96    49    48    2
    97    46    43    1
    98    46    47    1
    99    16    18   ar
   100    16    14   ar
   101    18    17   ar
   102    65    64    1
   103    43    42    1
   104    48    47    1
   105    48    50   am
   106    14    13   ar
   107    17    15   ar
   108     9     8    1
   109     9    12    1
   110    13    15   ar
   111    13    12    1
   112     8     3   am
   113    64    67    1
   114    64    63    1
   115    67    68    1
   116     5     2    1
   117     5     6    1
   118   136   135    2
   119     3     2    1
   120     3     4    2
   121   137   138    1
   122   137   134    1
   123   139   138    1
   124   139   140    1
   125     2     1    1
   126    63    69    1
   127    68    69    1
   128   141   140    1
   129     6     7    1
   130   135   134    1
   131    41    40    2
   132   134   133    1
   133    40    39    1
   134     1     7    1
   135    39    38    1
