@<TRIPOS>MOLECULE
tmp/6ag0B03.pdb
 195 193 0 0 0
SMALL
GASTEIGER

@<TRIPOS>ATOM
      1  N         35.0790   16.7220   82.3870 N.3    12  TRP12      -0.1241
      2  CA        36.3560   16.9800   81.7230 C.3    12  TRP12       0.1605
      3  C         36.6690   18.4640   81.6530 C.2    12  TRP12       0.2264
      4  O         37.8040   18.8700   81.9390 O.2    12  TRP12      -0.2867
      5  CB        36.3780   16.3840   80.3130 C.3    12  TRP12       0.0550
      6  CG        37.7400   16.5050   79.6940 C.ar   12  TRP12       0.0003
      7  CD1       38.2060   17.5220   78.8830 C.ar   12  TRP12       0.0946
      8  CD2       38.8340   15.6090   79.8770 C.ar   12  TRP12       0.0152
      9  NE1       39.5170   17.2870   78.5380 N.ar   12  TRP12      -0.2442
     10  CE2       39.9300   16.1250   79.1370 C.ar   12  TRP12       0.0810
     11  CE3       38.9980   14.4170   80.5870 C.ar   12  TRP12       0.0012
     12  CZ2       41.1690   15.4900   79.0960 C.ar   12  TRP12       0.0191
     13  CZ3       40.2410   13.7830   80.5480 C.ar   12  TRP12       0.0001
     14  CH2       41.3070   14.3200   79.7990 C.ar   12  TRP12       0.0015
     15  N         44.6980   12.1570   84.6170 N.3    55  TYR55      -0.1241
     16  CA        45.0960   10.9220   83.9440 C.3    55  TYR55       0.1605
     17  C         46.5140   10.9850   83.3890 C.2    55  TYR55       0.2264
     18  O         47.0970    9.9330   83.0990 O.2    55  TYR55      -0.2867
     19  CB        44.0700   10.5880   82.8470 C.3    55  TYR55       0.0534
     20  CG        42.7160   10.3700   83.5070 C.ar   55  TYR55      -0.0201
     21  CD1       42.4780    9.2350   84.2720 C.ar   55  TYR55      -0.0009
     22  CD2       41.7220   11.3460   83.4570 C.ar   55  TYR55      -0.0009
     23  CE1       41.2780    9.0440   84.9360 C.ar   55  TYR55       0.0417
     24  CE2       40.5090   11.1690   84.1290 C.ar   55  TYR55       0.0417
     25  CZ        40.2960   10.0170   84.8630 C.ar   55  TYR55       0.1957
     26  OH        39.0970    9.8240   85.5150 O.3    55  TYR55      -0.2866
     27  N         50.1430    4.2380   83.0550 N.3   104  HIS104     -0.1241
     28  CA        51.1850    5.0130   82.4030 C.3   104  HIS104      0.1621
     29  C         51.6520    6.1340   83.3200 C.2   104  HIS104      0.2264
     30  O         51.0360    6.4290   84.3490 O.2   104  HIS104     -0.2867
     31  CB        50.6840    5.6090   81.0900 C.3   104  HIS104      0.0745
     32  CG        49.4550    6.4370   81.2580 C.ar  104  HIS104      0.0817
     33  ND1       48.2050    5.9860   80.8920 N.ar  104  HIS104     -0.2268
     34  CD2       49.2720    7.6700   81.7940 C.ar  104  HIS104      0.1154
     35  CE1       47.3060    6.9120   81.1810 C.ar  104  HIS104      0.1986
     36  NE2       47.9260    7.9440   81.7240 N.ar  104  HIS104     -0.2212
     37  N         42.5180   -6.1070   71.3930 N.3   190  GLU190     -0.1245
     38  CA        42.3760   -5.1320   70.3180 C.3   190  GLU190      0.1567
     39  C         43.7580   -4.5920   69.9650 C.2   190  GLU190      0.2260
     40  O         44.5880   -4.3460   70.8490 O.2   190  GLU190     -0.2867
     41  CB        41.4340   -3.9870   70.7090 C.3   190  GLU190      0.0388
     42  CG        41.3260   -2.8920   69.6350 C.3   190  GLU190      0.1160
     43  CD        40.2500   -1.8240   69.9060 C.2   190  GLU190      0.3649
     44  OE1       39.4890   -1.9360   70.9070 O.co2 190  GLU190     -0.2457
     45  OE2       40.1670   -0.8560   69.1050 O.co2 190  GLU190     -0.2457
     46  N         46.8300   -4.6580   73.6300 N.3   194  TYR194     -0.1241
     47  CA        46.4960   -3.2720   73.9170 C.3   194  TYR194      0.1605
     48  C         47.1340   -2.7860   75.2150 C.2   194  TYR194      0.2264
     49  O         46.6020   -1.8900   75.8740 O.2   194  TYR194     -0.2867
     50  CB        44.9830   -3.0990   73.9490 C.3   194  TYR194      0.0534
     51  CG        44.5230   -1.7710   73.3940 C.ar  194  TYR194     -0.0201
     52  CD1       45.4070   -0.7080   73.2670 C.ar  194  TYR194     -0.0009
     53  CD2       43.1950   -1.5830   72.9950 C.ar  194  TYR194     -0.0009
     54  CE1       44.9840    0.5150   72.7500 C.ar  194  TYR194      0.0417
     55  CE2       42.7610   -0.3680   72.4740 C.ar  194  TYR194      0.0417
     56  CZ        43.6580    0.6730   72.3520 C.ar  194  TYR194      0.1957
     57  OH        43.2180    1.8710   71.8440 O.3   194  TYR194     -0.2866
     58  N         49.2030    2.3960   75.7370 N.3   197  LEU197     -0.1231
     59  CA        48.1420    3.3630   75.4600 C.3   197  LEU197      0.1693
     60  C         48.6420    4.7900   75.2360 C.2   197  LEU197      0.2591
     61  O         48.2800    5.4210   74.2390 O.2   197  LEU197     -0.2718
     62  CB        47.1040    3.3540   76.5850 C.3   197  LEU197      0.0284
     63  CG        46.0600    4.4680   76.4870 C.3   197  LEU197      0.0019
     64  CD1       45.2040    4.2980   75.2300 C.3   197  LEU197      0.0001
     65  CD2       45.1690    4.4430   77.7220 C.3   197  LEU197      0.0001
     66  N         49.4730    5.3140   76.1350 N.am  198  MET198     -0.1979
     67  CA        49.9180    6.7020   76.0380 C.3   198  MET198      0.1605
     68  C         51.0490    6.9170   77.0350 C.2   198  MET198      0.2287
     69  O         51.2620    6.1070   77.9420 O.2   198  MET198     -0.2864
     70  CB        48.7700    7.6760   76.3160 C.3   198  MET198      0.0413
     71  CG        48.2620    7.5740   77.7550 C.3   198  MET198      0.0598
     72  SD        47.0720    8.8470   78.1870 S.3   198  MET198     -0.1393
     73  CE        45.6820    8.2940   77.1970 C.3   198  MET198      0.0692
     74  N         41.3880    3.0220   86.7320 N.3   232  ASP232     -0.1225
     75  CA        41.4160    3.5410   85.3700 C.3   232  ASP232      0.1805
     76  C         42.0700    2.5650   84.3890 C.2   232  ASP232      0.2597
     77  O         43.1260    1.9820   84.6720 O.2   232  ASP232     -0.2718
     78  CB        42.1760    4.8640   85.3530 C.3   232  ASP232      0.1424
     79  CG        42.2670    5.4550   83.9700 C.2   232  ASP232      0.3668
     80  OD1       41.1960    5.7960   83.4220 O.co2 232  ASP232     -0.2456
     81  OD2       43.3980    5.5620   83.4340 O.co2 232  ASP232     -0.2456
     82  N         41.4310    2.3930   83.2240 N.am  233  ALA233     -0.1979
     83  CA        42.0630    1.7660   82.0450 C.3   233  ALA233      0.1597
     84  C         42.5170    0.3200   82.2860 C.2   233  ALA233      0.2287
     85  O         43.5930   -0.0840   81.8350 O.2   233  ALA233     -0.2864
     86  CB        43.2460    2.6120   81.5560 C.3   233  ALA233      0.0319
     87  N         41.6400   -2.5470   81.0700 N.3   235  LYS235     -0.1231
     88  CA        41.8980   -3.4070   79.9170 C.3   235  LYS235      0.1693
     89  C         43.3210   -3.2150   79.3730 C.2   235  LYS235      0.2592
     90  O         43.8260   -4.0880   78.6530 O.2   235  LYS235     -0.2718
     91  CB        40.8320   -3.1760   78.8420 C.3   235  LYS235      0.0285
     92  CG        41.1390   -2.0410   77.8630 C.3   235  LYS235      0.0035
     93  CD        39.9190   -1.7440   76.9920 C.3   235  LYS235      0.0206
     94  CE        40.3140   -1.2650   75.6190 C.3   235  LYS235      0.1093
     95  NZ        39.1550   -0.8270   74.7920 N.3   235  LYS235     -0.1314
     96  N         43.9880   -2.1110   79.7120 N.am  236  HIS236     -0.1976
     97  CA        45.3660   -1.8750   79.2840 C.3   236  HIS236      0.1656
     98  C         46.4080   -2.3000   80.3250 C.2   236  HIS236      0.2291
     99  O         47.5820   -1.9260   80.1990 O.2   236  HIS236     -0.2864
    100  CB        45.5530   -0.4010   78.9390 C.3   236  HIS236      0.0771
    101  CG        44.5520    0.1080   77.9500 C.ar  236  HIS236      0.0820
    102  ND1       44.5540   -0.2800   76.6250 N.ar  236  HIS236     -0.2267
    103  CD2       43.5320    0.9920   78.0810 C.ar  236  HIS236      0.1154
    104  CE1       43.5670    0.3270   75.9850 C.ar  236  HIS236      0.1986
    105  NE2       42.9350    1.1100   76.8440 N.ar  236  HIS236     -0.2212
    106  N         37.2360    0.3810   85.1620 N.3   262  GLU262     -0.1245
    107  CA        36.7910    0.8600   83.8540 C.3   262  GLU262      0.1567
    108  C         37.4470   -0.0090   82.7710 C.2   262  GLU262      0.2260
    109  O         38.5810    0.2340   82.3560 O.2   262  GLU262     -0.2867
    110  CB        37.1350    2.3400   83.6780 C.3   262  GLU262      0.0388
    111  CG        36.7100    2.9170   82.3110 C.3   262  GLU262      0.1160
    112  CD        37.8620    3.4950   81.4640 C.2   262  GLU262      0.3649
    113  OE1       37.6010    3.8540   80.2900 O.co2 262  GLU262     -0.2457
    114  OE2       39.0200    3.5880   81.9390 O.co2 262  GLU262     -0.2457
    115  N         36.8090   -0.5550   79.1430 N.3   264  TRP264     -0.1227
    116  CA        35.9720    0.1140   78.1470 C.3   264  TRP264      0.1737
    117  C         35.8080   -0.7930   76.9370 C.2   264  TRP264      0.2596
    118  O         36.6820   -0.8710   76.0730 O.2   264  TRP264     -0.2718
    119  CB        36.5220    1.4730   77.7390 C.3   264  TRP264      0.0564
    120  CG        35.4400    2.2270   77.0390 C.ar  264  TRP264      0.0003
    121  CD1       35.2660    2.3400   75.6950 C.ar  264  TRP264      0.0946
    122  CD2       34.3250    2.9010   77.6480 C.ar  264  TRP264      0.0152
    123  NE1       34.1350    3.0700   75.4240 N.ar  264  TRP264     -0.2442
    124  CE2       33.5380    3.4290   76.6030 C.ar  264  TRP264      0.0810
    125  CE3       33.9300    3.1280   78.9740 C.ar  264  TRP264      0.0012
    126  CZ2       32.3760    4.1760   76.8380 C.ar  264  TRP264      0.0191
    127  CZ3       32.7890    3.8700   79.2090 C.ar  264  TRP264      0.0001
    128  CH2       32.0200    4.3850   78.1410 C.ar  264  TRP264      0.0015
    129  N         34.6630   -1.4600   76.8670 N.am  265  SER265     -0.1938
    130  CA        34.3400   -2.3310   75.7490 C.3   265  SER265      0.2055
    131  C         32.8260   -2.4860   75.6910 C.2   265  SER265      0.2643
    132  O         32.1800   -2.6280   76.7320 O.2   265  SER265     -0.2714
    133  CB        35.0200   -3.6990   75.9160 C.3   265  SER265      0.2130
    134  OG        34.4810   -4.6560   75.0200 O.3   265  SER265     -0.2179
    135  N         32.2670   -2.4580   74.4800 N.am  266  TYR266     -0.1973
    136  CA        30.8560   -2.7730   74.2940 C.3   266  TYR266      0.1639
    137  C         30.6140   -4.2610   74.0890 C.2   266  TYR266      0.2290
    138  O         29.4570   -4.6720   73.9440 O.2   266  TYR266     -0.2864
    139  CB        30.2870   -1.9920   73.1120 C.3   266  TYR266      0.0560
    140  CG        30.3080   -0.5010   73.3080 C.ar  266  TYR266     -0.0198
    141  CD1       30.3660    0.0470   74.5790 C.ar  266  TYR266     -0.0009
    142  CD2       30.2340    0.3620   72.2250 C.ar  266  TYR266     -0.0009
    143  CE1       30.3740    1.4170   74.7670 C.ar  266  TYR266      0.0417
    144  CE2       30.2400    1.7380   72.3980 C.ar  266  TYR266      0.0417
    145  CZ        30.3190    2.2580   73.6710 C.ar  266  TYR266      0.1957
    146  OH        30.3260    3.6220   73.8550 O.3   266  TYR266     -0.2866
    147  N         32.8470   11.2950   81.9100 N.3   328  HIS328     -0.1226
    148  CA        33.7190   12.3260   81.3550 C.3   328  HIS328      0.1752
    149  C         34.3080   11.9130   80.0120 C.2   328  HIS328      0.2596
    150  O         34.6070   12.7810   79.1870 O.2   328  HIS328     -0.2718
    151  CB        34.8440   12.6630   82.3260 C.3   328  HIS328      0.0759
    152  CG        35.7890   11.5300   82.5450 C.ar  328  HIS328      0.0818
    153  ND1       35.4310   10.3900   83.2360 N.ar  328  HIS328     -0.2268
    154  CD2       37.0550   11.3290   82.1080 C.ar  328  HIS328      0.1154
    155  CE1       36.4490    9.5470   83.2370 C.ar  328  HIS328      0.1986
    156  NE2       37.4490   10.0940   82.5640 N.ar  328  HIS328     -0.2212
    157  N         34.4750   10.6040   79.7650 N.am  329  ASP329     -0.1974
    158  CA        35.0280   10.1550   78.4900 C.3   329  ASP329      0.1709
    159  C         34.0040   10.1560   77.3550 C.2   329  ASP329      0.2293
    160  O         34.4070   10.1570   76.1860 O.2   329  ASP329     -0.2864
    161  CB        35.6220    8.7390   78.6150 C.3   329  ASP329      0.1436
    162  CG        36.9470    8.7100   79.3810 C.2   329  ASP329      0.3671
    163  OD1       37.7940    9.6200   79.2020 O.co2 329  ASP329     -0.2456
    164  OD2       37.1430    7.7640   80.1710 O.co2 329  ASP329     -0.2456
    165  N         35.4420   14.3550   73.4320 N.3   334  GLN334     -0.1231
    166  CA        36.3510   13.3890   74.0300 C.3   334  GLN334      0.1698
    167  C         36.4980   12.1680   73.1220 C.2   334  GLN334      0.2592
    168  O         35.7810   12.0090   72.1400 O.2   334  GLN334     -0.2718
    169  CB        35.8610   12.9980   75.4240 C.3   334  GLN334      0.0381
    170  CG        35.9890   14.1180   76.4520 C.3   334  GLN334      0.0905
    171  CD        37.4000   14.6920   76.4950 C.2   334  GLN334      0.2608
    172  OE1       38.3340   14.0310   76.9560 O.2   334  GLN334     -0.2717
    173  NE2       37.5650   15.9180   75.9880 N.am  334  GLN334     -0.0878
    174  N         37.4630   11.3040   73.4460 N.am  335  ALA335     -0.1966
    175  CA        37.8000   10.2020   72.5510 C.3   335  ALA335      0.1728
    176  C         36.7650    9.0850   72.5640 C.2   335  ALA335      0.2616
    177  O         36.6720    8.3350   71.5870 O.2   335  ALA335     -0.2715
    178  CB        39.1650    9.6260   72.9140 C.3   335  ALA335      0.0334
    179  N         35.9970    8.9460   73.6430 N.am  336  LEU336     -0.1963
    180  CA        34.9240    7.9640   73.7100 C.3   336  LEU336      0.1728
    181  C         33.5590    8.6070   73.5280 C.2   336  LEU336      0.2616
    182  O         32.5490    8.0390   73.9650 O.2   336  LEU336     -0.2715
    183  CB        34.9930    7.1870   75.0240 C.3   336  LEU336      0.0311
    184  CG        36.2990    6.4120   75.2010 C.3   336  LEU336      0.0022
    185  CD1       36.2910    5.6320   76.5060 C.3   336  LEU336      0.0001
    186  CD2       36.5420    5.4800   74.0100 C.3   336  LEU336      0.0001
    187  N         33.5190    9.7830   72.8960 N.am  337  GLN337     -0.1977
    188  CA        32.2880   10.5360   72.6780 C.3   337  GLN337      0.1601
    189  C         31.1570    9.6310   72.2160 C.2   337  GLN337      0.2287
    190  O         31.2690    8.9440   71.1960 O.2   337  GLN337     -0.2864
    191  CB        32.5200   11.6360   71.6420 C.3   337  GLN337      0.0394
    192  CG        31.3840   12.6520   71.5970 C.3   337  GLN337      0.0908
    193  CD        31.4740   13.6000   70.4090 C.2   337  GLN337      0.2608
    194  OE1       32.4860   14.2740   70.2060 O.2   337  GLN337     -0.2717
    195  NE2       30.4070   13.6550   69.6180 N.am  337  GLN337     -0.0878
@<TRIPOS>BOND
     1    45    43   ar
     2   195   193   am
     3    42    43    1
     4    42    41    1
     5    43    44   ar
     6    39    38    1
     7    39    40    2
     8   194   193    2
     9    38    41    1
    10    38    37    1
    11   193   192    1
    12   190   189    2
    13   177   176    2
    14   192   191    1
    15   191   188    1
    16    57    56    1
    17   168   167    2
    18   189   188    1
    19   142   144   ar
    20   142   140   ar
    21    56    55   ar
    22    56    54   ar
    23   144   145   ar
    24    55    53   ar
    25   175   176    1
    26   175   178    1
    27   175   174    1
    28   176   179   am
    29   188   187    1
    30    54    52   ar
    31   187   181   am
    32    53    51   ar
    33   139   140    1
    34   139   136    1
    35   167   174   am
    36   167   166    1
    37    52    51   ar
    38   140   141   ar
    39    51    50    1
    40   165   166    1
    41   181   180    1
    42   181   182    2
    43    46    47    1
    44   179   180    1
    45   145   146    1
    46   145   143   ar
    47   180   183    1
    48    47    50    1
    49    47    48    1
    50   138   137    2
    51   186   184    1
    52   166   169    1
    53   137   136    1
    54    61    60    2
    55   136   135    1
    56   135   131   am
    57   141   143   ar
    58    95    94    1
    59   134   133    1
    60   183   184    1
    61   184   185    1
    62    48    49    2
    63    64    63    1
    64    60    59    1
    65    60    66   am
    66   123   121   ar
    67   123   124   ar
    68   169   170    1
    69    59    58    1
    70    59    62    1
    71    94    93    1
    72   131   130    1
    73   131   132    2
    74   121   120   ar
    75   130   133    1
    76   130   129    1
    77   104   102   ar
    78   104   105   ar
    79   173   171   am
    80    67    66    1
    81    67    70    1
    82    67    68    1
    83   118   117    2
    84   160   159    2
    85    70    71    1
    86   170   171    1
    87    63    62    1
    88    63    65    1
    89   171   172    2
    90   124   126   ar
    91   124   122   ar
    92   102   101   ar
    93   126   128   ar
    94   105   103   ar
    95   129   117   am
    96   117   116    1
    97    93    92    1
    98    68    69    2
    99   120   122   ar
   100   120   119    1
   101    73    72    1
   102   159   158    1
   103   122   125   ar
   104   119   116    1
   105    71    72    1
   106    92    91    1
   107   101   103   ar
   108   101   100    1
   109   128   127   ar
   110   116   115    1
   111   158   161    1
   112   158   157    1
   113     9     7   ar
   114     9    10   ar
   115   161   162    1
   116    90    89    2
   117    91    88    1
   118     7     6   ar
   119   100    97    1
   120   125   127   ar
   121    12    10   ar
   122    12    14   ar
   123    10     8   ar
   124   150   149    2
   125   163   162   ar
   126    97    96    1
   127    97    98    1
   128    89    96   am
   129    89    88    1
   130   162   164   ar
   131     6     8   ar
   132     6     5    1
   133   157   149   am
   134    14    13   ar
   135     8    11   ar
   136    88    87    1
   137   149   148    1
   138    99    98    2
   139   113   112   ar
   140     5     2    1
   141    13    11   ar
   142    33    35   ar
   143    33    32   ar
   144    31    32    1
   145    31    28    1
   146    35    36   ar
   147    32    34   ar
   148   148   147    1
   149   148   151    1
   150   112   114   ar
   151   112   111    1
   152    86    83    1
   153     3     2    1
   154     3     4    2
   155     2     1    1
   156    36    34   ar
   157    85    84    2
   158    83    84    1
   159    83    82    1
   160   154   152   ar
   161   154   156   ar
   162   111   110    1
   163   151   152    1
   164   109   108    2
   165    28    27    1
   166    28    29    1
   167   152   153   ar
   168   156   155   ar
   169   108   107    1
   170    19    20    1
   171    19    16    1
   172    18    17    2
   173    82    76   am
   174   153   155   ar
   175    29    30    2
   176    17    16    1
   177    80    79   ar
   178    81    79   ar
   179    22    20   ar
   180    22    24   ar
   181    20    21   ar
   182   110   107    1
   183   107   106    1
   184    16    15    1
   185    79    78    1
   186    24    25   ar
   187    21    23   ar
   188    76    77    2
   189    76    75    1
   190    25    23   ar
   191    25    26    1
   192    78    75    1
   193    75    74    1
