@<TRIPOS>MOLECULE
tmp/6ag0B00.pdb
 98 99 0 0 0
SMALL
GASTEIGER

@<TRIPOS>ATOM
      1  N         63.7010    4.0750   82.6400 N.3   156  TRP156     -0.1227
      2  CA        63.1330    3.4330   81.4540 C.3   156  TRP156      0.1737
      3  C         62.8160    1.9590   81.6800 C.2   156  TRP156      0.2595
      4  O         61.8130    1.4570   81.1670 O.2   156  TRP156     -0.2718
      5  CB        64.0710    3.5910   80.2440 C.3   156  TRP156      0.0564
      6  CG        65.2880    2.7640   80.3390 C.ar  156  TRP156      0.0003
      7  CD1       66.4950    3.1520   80.8310 C.ar  156  TRP156      0.0946
      8  CD2       65.4330    1.3960   79.9320 C.ar  156  TRP156      0.0152
      9  NE1       67.3680    2.0990   80.7960 N.ar  156  TRP156     -0.2442
     10  CE2       66.7500    1.0160   80.2270 C.ar  156  TRP156      0.0810
     11  CE3       64.5720    0.4560   79.3640 C.ar  156  TRP156      0.0012
     12  CZ2       67.2360   -0.2710   79.9630 C.ar  156  TRP156      0.0191
     13  CZ3       65.0540   -0.8180   79.0940 C.ar  156  TRP156      0.0001
     14  CH2       66.3730   -1.1720   79.3980 C.ar  156  TRP156      0.0015
     15  N         63.6510    1.2450   82.4390 N.am  157  TYR157     -0.1976
     16  CA        63.4270   -0.1900   82.5780 C.3   157  TYR157      0.1639
     17  C         62.2390   -0.5260   83.4830 C.2   157  TYR157      0.2290
     18  O         61.8990   -1.7080   83.6280 O.2   157  TYR157     -0.2864
     19  CB        64.6970   -0.8740   83.0800 C.3   157  TYR157      0.0560
     20  CG        65.3960   -0.1990   84.2360 C.ar  157  TYR157     -0.0198
     21  CD1       65.0710   -0.5130   85.5500 C.ar  157  TYR157     -0.0009
     22  CD2       66.4140    0.7230   84.0180 C.ar  157  TYR157     -0.0009
     23  CE1       65.7370    0.0860   86.6120 C.ar  157  TYR157      0.0417
     24  CE2       67.0830    1.3230   85.0720 C.ar  157  TYR157      0.0417
     25  CZ        66.7450    1.0020   86.3640 C.ar  157  TYR157      0.1957
     26  OH        67.4100    1.6060   87.4110 O.3   157  TYR157     -0.2866
     27  N         65.3800   -5.1400   76.0870 N.3   178  GLY178     -0.1210
     28  CA        65.9800   -5.5100   77.3570 C.3   178  GLY178      0.1956
     29  C         65.6050   -6.9330   77.7190 C.2   178  GLY178      0.2612
     30  O         64.6600   -7.5250   77.1910 O.2   178  GLY178     -0.2717
     31  N         66.3580   -7.5040   78.6600 N.am  179  ILE179     -0.1965
     32  CA        66.1040   -8.8890   79.0460 C.3   179  ILE179      0.1727
     33  C         64.7160   -8.9980   79.6540 C.2   179  ILE179      0.2617
     34  O         64.4100   -8.3450   80.6580 O.2   179  ILE179     -0.2715
     35  CB        67.1650   -9.3930   80.0280 C.3   179  ILE179      0.0290
     36  CG1       68.5620   -9.2210   79.4600 C.3   179  ILE179      0.0022
     37  CG2       66.9270  -10.8730   80.3530 C.3   179  ILE179      0.0023
     38  CD1       69.6300   -9.8030   80.3830 C.3   179  ILE179      0.0001
     39  N         63.8750   -9.8360   79.0590 N.am  180  GLY180     -0.1940
     40  CA        62.5250  -10.0400   79.5320 C.3   180  GLY180      0.2014
     41  C         61.5430   -8.9370   79.1950 C.2   180  GLY180      0.2639
     42  O         60.3810   -9.0230   79.6200 O.2   180  GLY180     -0.2714
     43  N         61.9680   -7.8990   78.4700 N.am  181  LYS181     -0.1963
     44  CA        61.0670   -6.8130   78.1110 C.3   181  LYS181      0.1728
     45  C         60.0550   -7.3190   77.1000 C.2   181  LYS181      0.2616
     46  O         60.4250   -7.9610   76.1200 O.2   181  LYS181     -0.2715
     47  CB        61.8350   -5.6330   77.5300 C.3   181  LYS181      0.0311
     48  CG        62.3790   -4.6930   78.5750 C.3   181  LYS181      0.0038
     49  CD        61.2500   -3.9540   79.2780 C.3   181  LYS181      0.0206
     50  CE        61.7700   -3.2870   80.5200 C.3   181  LYS181      0.1093
     51  NZ        60.6450   -2.8650   81.3390 N.3   181  LYS181     -0.1314
     52  N         58.7730   -7.1040   77.3840 N.am  182  ALA182     -0.1977
     53  CA        57.6970   -7.5270   76.4970 C.3   182  ALA182      0.1597
     54  C         56.4540   -6.7620   76.9060 C.2   182  ALA182      0.2287
     55  O         56.3510   -6.2870   78.0390 O.2   182  ALA182     -0.2864
     56  CB        57.4490   -9.0470   76.5660 C.3   182  ALA182      0.0319
     57  N         55.5780   -1.1610   83.2360 N.3   203  ASP203     -0.1239
     58  CA        55.8800   -2.5850   83.0750 C.3   203  ASP203      0.1674
     59  C         55.4320   -3.3160   84.3380 C.2   203  ASP203      0.2266
     60  O         56.1760   -3.4230   85.3130 O.2   203  ASP203     -0.2867
     61  CB        57.3670   -2.7800   82.8060 C.3   203  ASP203      0.1410
     62  CG        57.7280   -4.2300   82.5890 C.2   203  ASP203      0.3668
     63  OD1       56.8000   -5.0620   82.5670 O.co2 203  ASP203     -0.2456
     64  OD2       58.9350   -4.5440   82.4470 O.co2 203  ASP203     -0.2456
     65  N         55.2070   -6.3380   84.8310 N.3   205  ASP205     -0.1225
     66  CA        56.0100   -7.5300   85.0400 C.3   205  ASP205      0.1805
     67  C         57.2500   -7.2530   85.8750 C.2   205  ASP205      0.2598
     68  O         57.9330   -8.1980   86.2870 O.2   205  ASP205     -0.2718
     69  CB        56.4320   -8.1060   83.6810 C.3   205  ASP205      0.1424
     70  CG        56.4260   -9.6220   83.6620 C.2   205  ASP205      0.3668
     71  OD1       57.1870  -10.2020   82.8590 O.co2 205  ASP205     -0.2456
     72  OD2       55.6550  -10.2280   84.4450 O.co2 205  ASP205     -0.2456
     73  N         57.5750   -5.9890   86.1070 N.am  206  HIS206     -0.1962
     74  CA        58.7610   -5.6590   86.8790 C.3   206  HIS206      0.1772
     75  C         58.4250   -5.6660   88.3610 C.2   206  HIS206      0.2462
     76  O         57.5690   -4.8820   88.7900 O.2   206  HIS206     -0.2730
     77  CB        59.3020   -4.3030   86.4850 C.3   206  HIS206      0.0785
     78  CG        60.6750   -4.0450   87.0020 C.ar  206  HIS206      0.0821
     79  ND1       61.7450   -3.7770   86.1760 N.ar  206  HIS206     -0.2267
     80  CD2       61.1580   -4.0330   88.2670 C.ar  206  HIS206      0.1154
     81  CE1       62.8280   -3.5940   86.9140 C.ar  206  HIS206      0.1986
     82  NE2       62.4980   -3.7430   88.1860 N.ar  206  HIS206     -0.2212
     83  N         59.0950   -6.4910   89.1750 N.am  207  PRO207     -0.2716
     84  CA        58.7130   -6.6000   90.5920 C.3   207  PRO207      0.1536
     85  C         58.9650   -5.3300   91.3810 C.2   207  PRO207      0.2601
     86  O         58.2610   -5.0960   92.3670 O.2   207  PRO207     -0.2715
     87  CB        59.5700   -7.7690   91.1160 C.3   207  PRO207      0.0310
     88  CG        60.2880   -8.3360   89.9070 C.3   207  PRO207      0.0237
     89  CD        60.2960   -7.2760   88.8490 C.3   207  PRO207      0.0939
     90  N         59.9870   -4.5380   91.0270 N.am  208  GLU208     -0.1932
     91  CA        60.2040   -3.2660   91.7130 C.3   208  GLU208      0.1818
     92  C         58.9790   -2.3850   91.5580 C.2   208  GLU208      0.2332
     93  O         58.5950   -1.6650   92.4920 O.2   208  GLU208     -0.2860
     94  CB        61.4650   -2.5450   91.1730 C.2   208  GLU208      0.0097
     95  CG        62.7920   -2.7300   91.9840 C.2   208  GLU208      0.0837
     96  CD        64.1190   -2.3040   91.2230 C.2   208  GLU208      0.3877
     97  OE1       64.3060   -1.1160   90.8380 O.co2 208  GLU208     -0.2406
     98  OE2       65.0130   -3.1680   91.0510 O.co2 208  GLU208     -0.2406
@<TRIPOS>BOND
     1    27    28    1
     2    46    45    2
     3    53    56    1
     4    53    54    1
     5    53    52    1
     6    54    55    2
     7    45    52   am
     8    45    44    1
     9    30    29    2
    10    28    29    1
    11    47    44    1
    12    47    48    1
    13    29    31   am
    14    44    43    1
    15    43    41   am
    16    48    49    1
    17    31    32    1
    18    32    33    1
    19    32    35    1
    20    39    40    1
    21    39    33   am
    22    13    11   ar
    23    13    14   ar
    24    41    40    1
    25    41    42    2
    26    49    50    1
    27    11     8   ar
    28    14    12   ar
    29    36    35    1
    30    36    38    1
    31    33    34    2
    32     8    10   ar
    33     8     6   ar
    34    12    10   ar
    35    35    37    1
    36    10     9   ar
    37     5     6    1
    38     5     2    1
    39     6     7   ar
    40    50    51    1
    41     9     7   ar
    42     4     3    2
    43     2     3    1
    44     2     1    1
    45     3    15   am
    46    15    16    1
    47    64    62   ar
    48    63    62   ar
    49    16    19    1
    50    16    17    1
    51    62    61    1
    52    61    58    1
    53    71    70   ar
    54    58    57    1
    55    58    59    1
    56    19    20    1
    57    17    18    2
    58    70    69    1
    59    70    72   ar
    60    69    66    1
    61    22    20   ar
    62    22    24   ar
    63    20    21   ar
    64    59    60    2
    65    65    66    1
    66    66    67    1
    67    24    25   ar
    68    21    23   ar
    69    67    73   am
    70    67    68    2
    71    73    74    1
    72    79    81   ar
    73    79    78   ar
    74    25    23   ar
    75    25    26    1
    76    77    74    1
    77    77    78    1
    78    74    75    1
    79    81    82   ar
    80    78    80   ar
    81    82    80   ar
    82    75    76    2
    83    75    83   am
    84    89    83    1
    85    89    88    1
    86    83    84    1
    87    88    87    1
    88    84    87    1
    89    84    85    1
    90    97    96   ar
    91    90    85   am
    92    90    91    1
    93    98    96   ar
    94    94    91    1
    95    94    95    2
    96    96    95    1
    97    85    86    2
    98    92    91    1
    99    92    93    2
