@<TRIPOS>MOLECULE
tmp/6ag0B04.pdb
 145 144 0 0 0
SMALL
GASTEIGER

@<TRIPOS>ATOM
      1  N         35.0790   16.7220   82.3870 N.3    12  TRP12      -0.1241
      2  CA        36.3560   16.9800   81.7230 C.3    12  TRP12       0.1605
      3  C         36.6690   18.4640   81.6530 C.2    12  TRP12       0.2264
      4  O         37.8040   18.8700   81.9390 O.2    12  TRP12      -0.2867
      5  CB        36.3780   16.3840   80.3130 C.3    12  TRP12       0.0550
      6  CG        37.7400   16.5050   79.6940 C.ar   12  TRP12       0.0003
      7  CD1       38.2060   17.5220   78.8830 C.ar   12  TRP12       0.0946
      8  CD2       38.8340   15.6090   79.8770 C.ar   12  TRP12       0.0152
      9  NE1       39.5170   17.2870   78.5380 N.ar   12  TRP12      -0.2442
     10  CE2       39.9300   16.1250   79.1370 C.ar   12  TRP12       0.0810
     11  CE3       38.9980   14.4170   80.5870 C.ar   12  TRP12       0.0012
     12  CZ2       41.1690   15.4900   79.0960 C.ar   12  TRP12       0.0191
     13  CZ3       40.2410   13.7830   80.5480 C.ar   12  TRP12       0.0001
     14  CH2       41.3070   14.3200   79.7990 C.ar   12  TRP12       0.0015
     15  N         50.6760   16.1020   84.6680 N.3    48  THR48      -0.1218
     16  CA        51.6640   16.6680   83.7510 C.3    48  THR48       0.1862
     17  C         51.7840   18.1830   83.8960 C.2    48  THR48       0.2287
     18  O         52.8260   18.7640   83.5620 O.2    48  THR48      -0.2866
     19  CB        51.2230   16.2750   82.3310 C.3    48  THR48       0.1770
     20  OG1       51.6350   14.9270   82.0550 O.3    48  THR48      -0.2211
     21  CG2       51.7190   17.2250   81.2950 C.3    48  THR48       0.0375
     22  N         56.0060   20.4270   88.5790 N.3    69  LYS69      -0.1245
     23  CA        55.2940   20.6900   87.3250 C.3    69  LYS69       0.1561
     24  C         54.6800   22.0820   87.3020 C.2    69  LYS69       0.2260
     25  O         53.6260   22.2810   86.7020 O.2    69  LYS69      -0.2867
     26  CB        54.2070   19.6460   87.0570 C.3    69  LYS69       0.0271
     27  CG        54.5340   18.2230   87.4990 C.3    69  LYS69       0.0035
     28  CD        55.7260   17.6540   86.7680 C.3    69  LYS69       0.0206
     29  CE        55.5300   17.7040   85.2710 C.3    69  LYS69       0.1093
     30  NZ        56.7770   17.2240   84.5840 N.3    69  LYS69      -0.1314
     31  N         52.7280    6.7970   82.8980 N.3   105  LYS105     -0.1231
     32  CA        53.2730    7.9220   83.6350 C.3   105  LYS105      0.1693
     33  C         53.7900    8.9500   82.6420 C.2   105  LYS105      0.2593
     34  O         54.5540    8.6080   81.7220 O.2   105  LYS105     -0.2718
     35  CB        54.3980    7.4500   84.5650 C.3   105  LYS105      0.0285
     36  CG        54.2740    7.8940   85.9970 C.3   105  LYS105      0.0035
     37  CD        55.5150    7.4710   86.8090 C.3   105  LYS105      0.0206
     38  CE        55.7330    8.4100   87.9960 C.3   105  LYS105      0.1093
     39  NZ        54.5180    8.5500   88.9070 N.3   105  LYS105     -0.1314
     40  N         53.3830   10.2100   82.8340 N.am  106  GLY106     -0.1942
     41  CA        53.7650   11.2800   81.9350 C.3   106  GLY106      0.2014
     42  C         54.4200   12.4290   82.6850 C.2   106  GLY106      0.2639
     43  O         54.3740   12.5020   83.9160 O.2   106  GLY106     -0.2714
     44  N         55.0050   13.3460   81.9160 N.am  107  GLY107     -0.1939
     45  CA        55.6580   14.4980   82.5110 C.3   107  GLY107      0.2014
     46  C         56.9880   14.2110   83.1850 C.2   107  GLY107      0.2639
     47  O         57.3270   14.8680   84.1760 O.2   107  GLY107     -0.2714
     48  N         57.7510   13.2480   82.6660 N.am  108  ALA108     -0.1963
     49  CA        59.0530   12.8910   83.2240 C.3   108  ALA108      0.1728
     50  C         59.9710   14.1030   83.3130 C.2   108  ALA108      0.2616
     51  O         59.8510   15.0560   82.5410 O.2   108  ALA108     -0.2715
     52  CB        59.7160   11.8100   82.3730 C.3   108  ALA108      0.0334
     53  N         60.8560   14.0790   84.3240 N.am  109  ASP109     -0.1971
     54  CA        61.8220   15.1560   84.5600 C.3   109  ASP109      0.1709
     55  C         62.9010   15.2210   83.4840 C.2   109  ASP109      0.2293
     56  O         63.4780   16.2920   83.2410 O.2   109  ASP109     -0.2864
     57  CB        62.5060   14.9580   85.9180 C.3   109  ASP109      0.1436
     58  CG        61.5210   14.8780   87.0550 C.2   109  ASP109      0.3671
     59  OD1       61.6440   13.9290   87.8550 O.co2 109  ASP109     -0.2456
     60  OD2       60.6300   15.7500   87.1460 O.co2 109  ASP109     -0.2456
     61  N         61.0680    9.7730   77.4430 N.3   137  TRP137     -0.1241
     62  CA        60.7600   10.5100   78.6790 C.3   137  TRP137      0.1605
     63  C         60.4230    9.5220   79.7960 C.2   137  TRP137      0.2264
     64  O         59.2690    9.2120   80.0710 O.2   137  TRP137     -0.2867
     65  CB        59.6190   11.4830   78.4450 C.3   137  TRP137      0.0550
     66  CG        60.0310   12.6360   77.6080 C.ar  137  TRP137      0.0003
     67  CD1       59.8740   12.7650   76.2520 C.ar  137  TRP137      0.0946
     68  CD2       60.6770   13.8340   78.0540 C.ar  137  TRP137      0.0152
     69  NE1       60.3970   13.9640   75.8350 N.ar  137  TRP137     -0.2442
     70  CE2       60.8890   14.6420   76.9200 C.ar  137  TRP137      0.0810
     71  CE3       61.0960   14.3020   79.3010 C.ar  137  TRP137      0.0012
     72  CZ2       61.4940   15.8850   76.9970 C.ar  137  TRP137      0.0191
     73  CZ3       61.6950   15.5440   79.3750 C.ar  137  TRP137      0.0001
     74  CH2       61.8930   16.3190   78.2300 C.ar  137  TRP137      0.0015
     75  N         57.0780    3.6500   75.0040 N.3   162  VAL162     -0.1231
     76  CA        56.6370    5.0390   74.9010 C.3   162  VAL162      0.1692
     77  C         56.0770    5.2460   73.5010 C.2   162  VAL162      0.2592
     78  O         56.2170    4.3940   72.6200 O.2   162  VAL162     -0.2718
     79  CB        57.7630    6.0640   75.1580 C.3   162  VAL162      0.0266
     80  CG1       58.1480    6.1010   76.6000 C.3   162  VAL162      0.0020
     81  CG2       58.9650    5.8230   74.2370 C.3   162  VAL162      0.0020
     82  N         55.4580    6.4090   73.2830 N.am  163  ASP163     -0.1960
     83  CA        54.9970    6.7450   71.9390 C.3   163  ASP163      0.1840
     84  C         55.6770    7.9890   71.3680 C.2   163  ASP163      0.2622
     85  O         55.2050    8.5520   70.3780 O.2   163  ASP163     -0.2715
     86  CB        53.4760    6.9120   71.9080 C.3   163  ASP163      0.1450
     87  CG        53.0000    8.0950   72.7270 C.2   163  ASP163      0.3671
     88  OD1       53.8310    8.7440   73.3880 O.co2 163  ASP163     -0.2456
     89  OD2       51.7790    8.3610   72.7290 O.co2 163  ASP163     -0.2456
     90  N         56.7830    8.4170   71.9530 N.am  164  TRP164     -0.1974
     91  CA        57.4270    9.6510   71.5340 C.3   164  TRP164      0.1640
     92  C         58.9350    9.4690   71.6320 C.2   164  TRP164      0.2290
     93  O         59.4420    9.0670   72.6860 O.2   164  TRP164     -0.2864
     94  CB        56.9670   10.8300   72.4030 C.3   164  TRP164      0.0576
     95  CG        57.5740   12.1800   72.0200 C.ar  164  TRP164      0.0006
     96  CD1       58.5230   12.8710   72.7090 C.ar  164  TRP164      0.0946
     97  CD2       57.2410   12.9890   70.8790 C.ar  164  TRP164      0.0152
     98  NE1       58.8070   14.0570   72.0730 N.ar  164  TRP164     -0.2442
     99  CE2       58.0300   14.1540   70.9500 C.ar  164  TRP164      0.0810
    100  CE3       56.3400   12.8470   69.8140 C.ar  164  TRP164      0.0012
    101  CZ2       57.9600   15.1670   69.9890 C.ar  164  TRP164      0.0191
    102  CZ3       56.2720   13.8600   68.8520 C.ar  164  TRP164      0.0001
    103  CH2       57.0790   14.9990   68.9480 C.ar  164  TRP164      0.0015
    104  N         62.1230   11.7780   71.5300 N.3   166  GLU166     -0.1245
    105  CA        62.4190   13.2070   71.6470 C.3   166  GLU166      0.1567
    106  C         63.5630   13.6470   70.7280 C.2   166  GLU166      0.2260
    107  O         63.5930   14.8030   70.2940 O.2   166  GLU166     -0.2867
    108  CB        62.7430   13.5450   73.1070 C.3   166  GLU166      0.0388
    109  CG        63.1230   14.9980   73.3560 C.3   166  GLU166      0.1160
    110  CD        61.9780   15.9630   73.1210 C.2   166  GLU166      0.3649
    111  OE1       62.2640   17.1240   72.7430 O.co2 166  GLU166     -0.2457
    112  OE2       60.7990   15.5640   73.3010 O.co2 166  GLU166     -0.2457
    113  N         49.2030    2.3960   75.7370 N.3   197  LEU197     -0.1231
    114  CA        48.1420    3.3630   75.4600 C.3   197  LEU197      0.1693
    115  C         48.6420    4.7900   75.2360 C.2   197  LEU197      0.2592
    116  O         48.2800    5.4210   74.2390 O.2   197  LEU197     -0.2718
    117  CB        47.1040    3.3540   76.5850 C.3   197  LEU197      0.0284
    118  CG        46.0600    4.4680   76.4870 C.3   197  LEU197      0.0019
    119  CD1       45.2040    4.2980   75.2300 C.3   197  LEU197      0.0001
    120  CD2       45.1690    4.4430   77.7220 C.3   197  LEU197      0.0001
    121  N         49.4730    5.3140   76.1350 N.am  198  MET198     -0.1965
    122  CA        49.9180    6.7020   76.0380 C.3   198  MET198      0.1736
    123  C         51.0490    6.9170   77.0350 C.2   198  MET198      0.2616
    124  O         51.2620    6.1070   77.9420 O.2   198  MET198     -0.2715
    125  CB        48.7700    7.6760   76.3160 C.3   198  MET198      0.0427
    126  CG        48.2620    7.5740   77.7550 C.3   198  MET198      0.0599
    127  SD        47.0720    8.8470   78.1870 S.3   198  MET198     -0.1393
    128  CE        45.6820    8.2940   77.1970 C.3   198  MET198      0.0692
    129  N         51.7620    8.0390   76.8640 N.am  199  TYR199     -0.1960
    130  CA        52.8820    8.4180   77.7310 C.3   199  TYR199      0.1771
    131  C         53.8700    7.2520   77.9020 C.2   199  TYR199      0.2619
    132  O         54.1240    6.5130   76.9450 O.2   199  TYR199     -0.2715
    133  CB        52.3520    8.9130   79.0840 C.3   199  TYR199      0.0574
    134  CG        51.6360   10.2570   79.0270 C.ar  199  TYR199     -0.0198
    135  CD1       52.3120   11.4240   78.6700 C.ar  199  TYR199     -0.0009
    136  CD2       50.2830   10.3620   79.3490 C.ar  199  TYR199     -0.0009
    137  CE1       51.6520   12.6540   78.6330 C.ar  199  TYR199      0.0417
    138  CE2       49.6250   11.5820   79.3160 C.ar  199  TYR199      0.0417
    139  CZ        50.3080   12.7200   78.9540 C.ar  199  TYR199      0.1957
    140  OH        49.6450   13.9300   78.9180 O.3   199  TYR199     -0.2866
    141  N         54.4480    7.0770   79.0950 N.am  200  ALA200     -0.1977
    142  CA        55.3340    5.9470   79.3700 C.3   200  ALA200      0.1597
    143  C         54.5380    4.8190   80.0240 C.2   200  ALA200      0.2287
    144  O         53.9830    4.9900   81.1210 O.2   200  ALA200     -0.2864
    145  CB        56.5020    6.3630   80.2630 C.3   200  ALA200      0.0319
@<TRIPOS>BOND
     1   102   103   ar
     2   102   100   ar
     3   103   101   ar
     4   100    97   ar
     5   101    99   ar
     6   107   106    2
     7    85    84    2
     8   106   105    1
     9    97    99   ar
    10    97    95   ar
    11    99    98   ar
    12    84    83    1
    13    84    90   am
    14   104   105    1
    15    91    92    1
    16    91    90    1
    17    91    94    1
    18    92    93    2
    19   105   108    1
    20    86    83    1
    21    86    87    1
    22    83    82    1
    23    95    94    1
    24    95    96   ar
    25    98    96   ar
    26    78    77    2
    27    87    89   ar
    28    87    88   ar
    29   111   110   ar
    30   108   109    1
    31   110   112   ar
    32   110   109    1
    33    82    77   am
    34    77    76    1
    35    81    79    1
    36   116   115    2
    37    76    75    1
    38    76    79    1
    39    79    80    1
    40   119   118    1
    41   115   114    1
    42   115   121   am
    43   114   113    1
    44   114   117    1
    45    69    67   ar
    46    69    70   ar
    47   122   121    1
    48   122   125    1
    49   122   123    1
    50    67    66   ar
    51   125   126    1
    52   118   117    1
    53   118   120    1
    54   129   123   am
    55   129   130    1
    56    70    72   ar
    57    70    68   ar
    58   132   131    2
    59    72    74   ar
    60   123   124    2
    61   128   127    1
    62    61    62    1
    63    66    68   ar
    64    66    65    1
    65   130   131    1
    66   130   133    1
    67   126   127    1
    68   131   141   am
    69    68    71   ar
    70    74    73   ar
    71    65    62    1
    72     9     7   ar
    73     9    10   ar
    74   137   135   ar
    75   137   139   ar
    76   135   134   ar
    77    62    63    1
    78     7     6   ar
    79   140   139    1
    80   139   138   ar
    81   134   133    1
    82   134   136   ar
    83   141   142    1
    84    12    10   ar
    85    12    14   ar
    86    10     8   ar
    87    71    73   ar
    88   138   136   ar
    89   142   143    1
    90   142   145    1
    91     6     8   ar
    92     6     5    1
    93    63    64    2
    94    14    13   ar
    95     8    11   ar
    96   143   144    2
    97     5     2    1
    98    13    11   ar
    99    21    19    1
   100     3     2    1
   101     3     4    2
   102    34    33    2
   103     2     1    1
   104    44    45    1
   105    44    42   am
   106    41    42    1
   107    41    40    1
   108    20    19    1
   109    19    16    1
   110    52    49    1
   111    45    46    1
   112    51    50    2
   113    33    40   am
   114    33    32    1
   115    48    46   am
   116    48    49    1
   117    42    43    2
   118    31    32    1
   119    46    47    2
   120    49    50    1
   121    56    55    2
   122    50    53   am
   123    55    54    1
   124    18    17    2
   125    32    35    1
   126    16    17    1
   127    16    15    1
   128    53    54    1
   129    54    57    1
   130    35    36    1
   131    30    29    1
   132    29    28    1
   133    57    58    1
   134    36    37    1
   135    25    24    2
   136    28    27    1
   137    37    38    1
   138    58    60   ar
   139    58    59   ar
   140    26    23    1
   141    26    27    1
   142    24    23    1
   143    23    22    1
   144    38    39    1
