@<TRIPOS>MOLECULE
tmp/6aggA01.pdb
 103 97 0 0 0
SMALL
GASTEIGER

@<TRIPOS>ATOM
      1  N         24.9810    5.5040   37.6300 N.3    53  ARG53      -0.1245
      2  CA        25.0920    5.2520   39.0670 C.3    53  ARG53       0.1563
      3  C         23.7920    5.7100   39.7300 C.2    53  ARG53       0.2260
      4  O         22.8790    6.1840   39.0450 O.2    53  ARG53      -0.2867
      5  CB        26.2970    5.9660   39.6610 C.3    53  ARG53       0.0307
      6  CG        26.3380    7.4600   39.4980 C.3    53  ARG53       0.0489
      7  CD        27.7080    7.9840   39.9570 C.3    53  ARG53       0.2205
      8  NE        27.7010    9.4360   40.0760 N.pl3  53  ARG53      -0.0865
      9  CZ        27.6020   10.1050   41.2220 C.cat  53  ARG53       0.5346
     10  NH1       27.5560    9.4720   42.3890 N.pl3  53  ARG53       0.1354
     11  NH2       27.5830   11.4290   41.1980 N.pl3  53  ARG53       0.1354
     12  N         14.9340   18.4130   45.9820 N.3   158  GLU158     -0.1245
     13  CA        16.1320   18.7140   45.2100 C.3   158  GLU158      0.1567
     14  C         15.7970   19.5980   44.0200 C.2   158  GLU158      0.2260
     15  O         14.9050   19.3020   43.2200 O.2   158  GLU158     -0.2867
     16  CB        16.8810   17.4560   44.7780 C.3   158  GLU158      0.0388
     17  CG        18.3460   17.7250   44.4500 C.3   158  GLU158      0.1160
     18  CD        19.1500   16.4550   44.2320 C.2   158  GLU158      0.3649
     19  OE1       18.5780   15.3600   44.4090 O.co2 158  GLU158     -0.2457
     20  OE2       20.3520   16.5530   43.8920 O.co2 158  GLU158     -0.2457
     21  N         23.9650   19.1960   52.5420 N.3   192  ASP192     -0.1225
     22  CA        24.6550   18.1780   51.7400 C.3   192  ASP192      0.1805
     23  C         25.0090   18.6280   50.3290 C.2   192  ASP192      0.2597
     24  O         25.2090   17.8040   49.4430 O.2   192  ASP192     -0.2718
     25  CB        23.8390   16.8850   51.6650 C.3   192  ASP192      0.1424
     26  CG        24.1550   15.9330   52.7940 C.2   192  ASP192      0.3668
     27  OD1       25.1840   16.1410   53.4730 O.co2 192  ASP192     -0.2456
     28  OD2       23.3790   14.9760   52.9970 O.co2 192  ASP192     -0.2456
     29  N         25.0910   19.9340   50.1240 N.am  193  ASN193     -0.1974
     30  CA        25.3890   20.4750   48.8100 C.3   193  ASN193      0.1688
     31  C         26.8480   20.8750   48.6610 C.2   193  ASN193      0.2292
     32  O         27.2660   21.3760   47.6270 O.2   193  ASN193     -0.2864
     33  CB        24.4770   21.6580   48.5310 C.3   193  ASN193      0.1181
     34  CG        23.0200   21.2700   48.5490 C.2   193  ASN193      0.2629
     35  OD1       22.6510   20.1820   48.1040 O.2   193  ASN193     -0.2716
     36  ND2       22.1800   22.1530   49.0740 N.am  193  ASN193     -0.0877
     37  N         29.8530   19.4430   46.0620 N.3   202  VAL202     -0.1231
     38  CA        29.2860   18.1030   46.1000 C.3   202  VAL202      0.1692
     39  C         28.0060   17.9410   45.2820 C.2   202  VAL202      0.2592
     40  O         27.6480   16.8310   44.9080 O.2   202  VAL202     -0.2718
     41  CB        29.0570   17.6560   47.5700 C.3   202  VAL202      0.0266
     42  CG1       28.1660   16.4360   47.6380 C.3   202  VAL202      0.0020
     43  CG2       30.3880   17.3830   48.2430 C.3   202  VAL202      0.0020
     44  N         27.3290   19.0470   44.9980 N.am  203  CYS203     -0.1970
     45  CA        26.0700   19.0030   44.2580 C.3   203  CYS203      0.1712
     46  C         26.2920   19.0260   42.7440 C.2   203  CYS203      0.2296
     47  O         25.3510   19.1920   41.9690 O.2   203  CYS203     -0.2864
     48  CB        25.1590   20.1620   44.6780 C.3   203  CYS203      0.0983
     49  SG        25.9840   21.7660   44.7680 S.3   203  CYS203     -0.0798
     50  N         22.4120   19.6250   41.2920 N.3   214  GLY214     -0.1225
     51  CA        21.2250   19.2200   42.0230 C.3   214  GLY214      0.1811
     52  C         21.4020   19.6340   43.4690 C.2   214  GLY214      0.2280
     53  O         22.2950   19.1390   44.1650 O.2   214  GLY214     -0.2866
     54  N         20.0510   19.9130   47.3020 N.3   216  ARG216     -0.1245
     55  CA        19.1250   19.3390   48.2880 C.3   216  ARG216      0.1563
     56  C         18.7770   20.2870   49.4460 C.2   216  ARG216      0.2260
     57  O         19.6360   21.0020   49.9690 O.2   216  ARG216     -0.2867
     58  CB        19.6670   18.0180   48.8230 C.3   216  ARG216      0.0307
     59  CG        19.4340   16.8410   47.8970 C.3   216  ARG216      0.0489
     60  CD        20.6730   15.9700   47.8300 C.3   216  ARG216      0.2205
     61  NE        20.3950   14.6670   47.2430 N.pl3 216  ARG216     -0.0865
     62  CZ        21.3120   13.7310   47.0440 C.cat 216  ARG216      0.5346
     63  NH1       22.5730   13.9530   47.3720 N.pl3 216  ARG216      0.1354
     64  NH2       20.9660   12.5740   46.5080 N.pl3 216  ARG216      0.1354
     65  N         29.9670   14.6300   53.6980 N.3   397  PRO397     -0.2102
     66  CA        28.9560   14.8190   52.6510 C.3   397  PRO397      0.1504
     67  C         29.3990   14.3060   51.2730 C.2   397  PRO397      0.2576
     68  O         28.5620   13.9180   50.4560 O.2   397  PRO397     -0.2718
     69  CB        28.7680   16.3370   52.6270 C.3   397  PRO397      0.0282
     70  CG        29.1810   16.7910   53.9990 C.3   397  PRO397      0.0208
     71  CD        30.3090   15.8920   54.3770 C.3   397  PRO397      0.0893
     72  N         30.7020   14.2950   51.0200 N.am  398  SER398     -0.1938
     73  CA        31.2090   13.8600   49.7240 C.3   398  SER398      0.2055
     74  C         31.1410   12.3370   49.5910 C.2   398  SER398      0.2643
     75  O         31.3910   11.7720   48.5180 O.2   398  SER398     -0.2714
     76  CB        32.6340   14.3840   49.5020 C.3   398  SER398      0.2130
     77  OG        33.5160   13.3550   49.0980 O.3   398  SER398     -0.2179
     78  N         30.7810   11.6820   50.6900 N.am  399  ALA399     -0.1963
     79  CA        30.6670   10.2330   50.7190 C.3   399  ALA399      0.1728
     80  C         29.2320    9.7940   50.9650 C.2   399  ALA399      0.2616
     81  O         28.9430    8.6010   50.9980 O.2   399  ALA399     -0.2715
     82  CB        31.5850    9.6510   51.7790 C.3   399  ALA399      0.0334
     83  N         28.3350   10.7610   51.1330 N.am  400  ARG400     -0.1977
     84  CA        26.9390   10.4550   51.4350 C.3   400  ARG400      0.1597
     85  C         26.2440    9.7090   50.2970 C.2   400  ARG400      0.2287
     86  O         26.4320   10.0130   49.1120 O.2   400  ARG400     -0.2864
     87  CB        26.1500   11.7220   51.7940 C.3   400  ARG400      0.0334
     88  CG        24.7140   11.4470   52.2640 C.3   400  ARG400      0.0492
     89  CD        24.4130   12.0930   53.6270 C.3   400  ARG400      0.2205
     90  NE        25.4270   11.7590   54.6240 N.pl3 400  ARG400     -0.0865
     91  CZ        26.3140   12.6170   55.1180 C.cat 400  ARG400      0.5346
     92  NH1       26.3110   13.8860   54.7320 N.pl3 400  ARG400      0.1354
     93  NH2       27.1960   12.2050   56.0180 N.pl3 400  ARG400      0.1354
     94  N         22.6940    8.7420   48.4750 N.3   402  HIS402     -0.1241
     95  CA        21.4040    9.3880   48.2510 C.3   402  HIS402      0.1621
     96  C         20.3820    9.1500   49.3890 C.2   402  HIS402      0.2264
     97  O         19.8080   10.0950   49.9200 O.2   402  HIS402     -0.2867
     98  CB        20.8210    8.9670   46.8920 C.3   402  HIS402      0.0745
     99  CG        21.7530    9.1800   45.7350 C.ar  402  HIS402      0.0817
    100  ND1       22.1920   10.4300   45.3450 N.ar  402  HIS402     -0.2268
    101  CD2       22.3150    8.3010   44.8700 C.ar  402  HIS402      0.1154
    102  CE1       22.9930   10.3090   44.3020 C.ar  402  HIS402      0.1986
    103  NE2       23.0840    9.0290   43.9930 N.ar  402  HIS402     -0.2212
@<TRIPOS>BOND
     1     1     2    1
     2     4     3    2
     3     2     5    1
     4     2     3    1
     5     6     5    1
     6     6     7    1
     7     7     8    1
     8     8     9    2
     9    11     9    1
    10     9    10    1
    11    50    51    1
    12    47    46    2
    13    51    52    1
    14    46    45    1
    15    15    14    2
    16    52    53    2
    17    20    18   ar
    18   103   102   ar
    19   103   101   ar
    20    14    13    1
    21    18    19   ar
    22    18    17    1
    23    45    48    1
    24    45    44    1
    25   102   100   ar
    26    17    16    1
    27    48    49    1
    28    16    13    1
    29   101    99   ar
    30    40    39    2
    31    44    39   am
    32    13    12    1
    33    39    38    1
    34   100    99   ar
    35    99    98    1
    36    37    38    1
    37    38    41    1
    38    64    62    1
    39    98    95    1
    40    62    61    2
    41    62    63    1
    42    61    60    1
    43    54    55    1
    44    41    42    1
    45    41    43    1
    46    32    31    2
    47    60    59    1
    48    59    58    1
    49    35    34    2
    50    95    94    1
    51    95    96    1
    52    55    58    1
    53    55    56    1
    54    75    74    2
    55    33    34    1
    56    33    30    1
    57    34    36   am
    58    31    30    1
    59    30    29    1
    60    77    76    1
    61    86    85    2
    62    96    97    2
    63    24    23    2
    64    56    57    2
    65    76    73    1
    66    74    73    1
    67    74    78   am
    68    73    72    1
    69    29    23   am
    70    85    84    1
    71    23    22    1
    72    68    67    2
    73    78    79    1
    74    79    80    1
    75    79    82    1
    76    80    81    2
    77    80    83   am
    78    72    67   am
    79    83    84    1
    80    67    66    1
    81    84    87    1
    82    25    22    1
    83    25    26    1
    84    22    21    1
    85    87    88    1
    86    88    89    1
    87    69    66    1
    88    69    70    1
    89    66    65    1
    90    26    28   ar
    91    26    27   ar
    92    89    90    1
    93    65    71    1
    94    70    71    1
    95    90    91    2
    96    92    91    1
    97    91    93    1
