@<TRIPOS>MOLECULE
tmp/6aggA00.pdb
 184 174 0 0 0
SMALL
GASTEIGER

@<TRIPOS>ATOM
      1  N         11.4040    5.1260   34.3950 N.3     8  ASP8       -0.1225
      2  CA        12.8660    5.0820   34.5900 C.3     8  ASP8        0.1805
      3  C         13.6330    4.1010   33.6930 C.2     8  ASP8        0.2597
      4  O         13.0730    3.5430   32.7400 O.2     8  ASP8       -0.2718
      5  CB        13.2820    4.9390   36.0660 C.3     8  ASP8        0.1424
      6  CG        13.1960    3.5290   36.5580 C.2     8  ASP8        0.3668
      7  OD1       12.2280    2.8490   36.1620 O.co2   8  ASP8       -0.2456
      8  OD2       14.0860    3.0990   37.3310 O.co2   8  ASP8       -0.2456
      9  N         14.9130    3.9040   34.0200 N.am    9  ASP9       -0.1974
     10  CA        15.8500    3.1990   33.1530 C.3     9  ASP9        0.1709
     11  C         15.8920    3.8180   31.7190 C.2     9  ASP9        0.2293
     12  O         15.7230    3.1250   30.7250 O.2     9  ASP9       -0.2864
     13  CB        15.5590    1.6950   33.1090 C.3     9  ASP9        0.1436
     14  CG        16.7690    0.8810   32.6510 C.2     9  ASP9        0.3671
     15  OD1       17.7870    1.5010   32.2530 O.co2   9  ASP9       -0.2456
     16  OD2       16.7060   -0.3700   32.7010 O.co2   9  ASP9       -0.2456
     17  N         18.2490    6.6730   30.8630 N.3    11  ASP11      -0.1239
     18  CA        19.5640    7.2090   30.5740 C.3    11  ASP11       0.1674
     19  C         20.5230    6.1000   30.2030 C.2    11  ASP11       0.2266
     20  O         20.1800    4.9190   30.2500 O.2    11  ASP11      -0.2867
     21  CB        20.1190    7.8910   31.8170 C.3    11  ASP11       0.1410
     22  CG        20.8580    6.9260   32.7260 C.2    11  ASP11       0.3668
     23  OD1       21.9780    7.2670   33.1600 O.co2  11  ASP11      -0.2456
     24  OD2       20.3230    5.8290   33.0020 O.co2  11  ASP11      -0.2456
     25  N         19.5290   11.3850   31.0540 N.3    17  CYS17      -0.1235
     26  CA        19.1200   10.9900   32.4130 C.3    17  CYS17       0.1677
     27  C         17.6210   11.0890   32.6710 C.2    17  CYS17       0.2270
     28  O         16.9750   12.0870   32.3160 O.2    17  CYS17      -0.2867
     29  CB        19.9060   11.7470   33.4910 C.3    17  CYS17       0.0956
     30  SG        19.1710   13.2970   34.0460 S.3    17  CYS17      -0.0801
     31  N         14.4240    7.3680   45.0950 N.3    43  ARG43      -0.1231
     32  CA        15.5780    6.4790   45.1850 C.3    43  ARG43       0.1694
     33  C         15.1540    5.0640   45.5610 C.2    43  ARG43       0.2592
     34  O         14.2950    4.8590   46.4170 O.2    43  ARG43      -0.2718
     35  CB        16.5980    7.0150   46.1880 C.3    43  ARG43       0.0321
     36  CG        17.2600    8.3010   45.7420 C.3    43  ARG43       0.0489
     37  CD        17.9470    8.1280   44.3920 C.3    43  ARG43       0.2205
     38  NE        18.3550    9.4120   43.8350 N.pl3  43  ARG43      -0.0865
     39  CZ        19.3250    9.5680   42.9430 C.cat  43  ARG43       0.5346
     40  NH1       19.9990    8.5140   42.5060 N.pl3  43  ARG43       0.1354
     41  NH2       19.6260   10.7800   42.4970 N.pl3  43  ARG43       0.1354
     42  N         15.7580    4.0870   44.9000 N.am   44  LEU44      -0.1966
     43  CA        15.3900    2.6980   45.1160 C.3    44  LEU44       0.1728
     44  C         16.5740    1.9460   45.6970 C.2    44  LEU44       0.2616
     45  O         17.6450    2.5300   45.9050 O.2    44  LEU44      -0.2715
     46  CB        14.9120    2.0570   43.8060 C.3    44  LEU44       0.0311
     47  CG        13.8770    2.8500   42.9920 C.3    44  LEU44       0.0022
     48  CD1       13.5060    2.1110   41.7320 C.3    44  LEU44       0.0001
     49  CD2       12.6260    3.1270   43.8040 C.3    44  LEU44       0.0001
     50  N         16.3810    0.6610   45.9730 N.am   45  ASN45      -0.1972
     51  CA        17.4260   -0.1110   46.6160 C.3    45  ASN45       0.1688
     52  C         18.7810    0.1730   45.9530 C.2    45  ASN45       0.2292
     53  O         18.9660   -0.0530   44.7420 O.2    45  ASN45      -0.2864
     54  CB        17.0710   -1.5960   46.6200 C.3    45  ASN45       0.1181
     55  CG        18.1480   -2.4460   47.2400 C.2    45  ASN45       0.2629
     56  OD1       19.2640   -1.9820   47.4700 O.2    45  ASN45      -0.2716
     57  ND2       17.8250   -3.7060   47.5070 N.am   45  ASN45      -0.0877
     58  N         21.6740   -2.6130   44.1150 N.3    48  ILE48      -0.1245
     59  CA        21.3970   -3.2820   42.8500 C.3    48  ILE48       0.1561
     60  C         22.4020   -2.9420   41.7480 C.2    48  ILE48       0.2260
     61  O         22.7230   -1.7670   41.5320 O.2    48  ILE48      -0.2867
     62  CB        19.9860   -2.9170   42.3530 C.3    48  ILE48       0.0252
     63  CG1       18.9410   -3.2340   43.4250 C.3    48  ILE48       0.0019
     64  CG2       19.6670   -3.6410   41.0620 C.3    48  ILE48       0.0019
     65  CD1       18.7730   -4.7100   43.6960 C.3    48  ILE48       0.0001
     66  N         23.4510   -2.5770   37.7300 N.3    50  TYR50      -0.1227
     67  CA        22.7510   -1.9850   36.5780 C.3    50  TYR50       0.1736
     68  C         22.4240   -0.5090   36.7980 C.2    50  TYR50       0.2595
     69  O         21.6910    0.0970   36.0130 O.2    50  TYR50      -0.2718
     70  CB        21.4810   -2.7660   36.2200 C.3    50  TYR50       0.0548
     71  CG        21.5130   -3.3680   34.8340 C.ar   50  TYR50      -0.0200
     72  CD1       22.5110   -4.2680   34.4700 C.ar   50  TYR50      -0.0009
     73  CD2       20.5600   -3.0190   33.8770 C.ar   50  TYR50      -0.0009
     74  CE1       22.5660   -4.8030   33.2020 C.ar   50  TYR50       0.0417
     75  CE2       20.6100   -3.5470   32.5920 C.ar   50  TYR50       0.0417
     76  CZ        21.6210   -4.4410   32.2660 C.ar   50  TYR50       0.1957
     77  OH        21.6990   -4.9680   30.9920 O.3    50  TYR50      -0.2866
     78  N         22.9810    0.0470   37.8730 N.am   51  LYS51      -0.1966
     79  CA        22.8310    1.4550   38.2260 C.3    51  LYS51       0.1728
     80  C         23.7530    2.3250   37.3640 C.2    51  LYS51       0.2617
     81  O         23.3460    2.8190   36.3080 O.2    51  LYS51      -0.2715
     82  CB        23.1270    1.6630   39.7240 C.3    51  LYS51       0.0311
     83  CG        22.0240    1.1930   40.6380 C.3    51  LYS51       0.0038
     84  CD        22.3930    1.4030   42.1430 C.3    51  LYS51       0.0206
     85  CE        23.9060    1.4380   42.3780 C.3    51  LYS51       0.1093
     86  NZ        24.4530    0.2570   43.1740 N.3    51  LYS51      -0.1314
     87  N         24.9980    2.4890   37.8100 N.am   52  THR52      -0.1937
     88  CA        25.9780    3.3260   37.1160 C.3    52  THR52       0.2028
     89  C         25.3810    4.6590   36.6790 C.2    52  THR52       0.2642
     90  O         25.2810    4.9220   35.4790 O.2    52  THR52      -0.2714
     91  CB        26.5530    2.5890   35.9060 C.3    52  THR52       0.1808
     92  OG1       27.0080    1.3160   36.3050 O.3    52  THR52      -0.2208
     93  CG2       27.6440    3.3570   35.2330 C.3    52  THR52       0.0379
     94  N         24.9810    5.5040   37.6300 N.am   53  ARG53      -0.1963
     95  CA        25.0920    5.2520   39.0670 C.3    53  ARG53       0.1729
     96  C         23.7920    5.7100   39.7300 C.2    53  ARG53       0.2617
     97  O         22.8790    6.1840   39.0450 O.2    53  ARG53      -0.2715
     98  CB        26.2970    5.9660   39.6610 C.3    53  ARG53       0.0348
     99  CG        26.3380    7.4600   39.4980 C.3    53  ARG53       0.0492
    100  CD        27.7080    7.9840   39.9570 C.3    53  ARG53       0.2205
    101  NE        27.7010    9.4360   40.0760 N.pl3  53  ARG53      -0.0865
    102  CZ        27.6020   10.1050   41.2220 C.cat  53  ARG53       0.5346
    103  NH1       27.5560    9.4720   42.3890 N.pl3  53  ARG53       0.1354
    104  NH2       27.5830   11.4290   41.1980 N.pl3  53  ARG53       0.1354
    105  N         23.7050    5.5720   41.0530 N.am   54  GLY54      -0.1940
    106  CA        22.5120    5.9630   41.7840 C.3    54  GLY54       0.2014
    107  C         21.3710    5.0660   41.3600 C.2    54  GLY54       0.2639
    108  O         21.5470    4.2210   40.4810 O.2    54  GLY54      -0.2714
    109  N         20.2040    5.2270   41.9710 N.am   55  ASN55      -0.1958
    110  CA        19.0600    4.4040   41.5830 C.3    55  ASN55       0.1819
    111  C         17.6970    5.0300   41.8770 C.2    55  ASN55       0.2621
    112  O         16.9860    4.5980   42.7900 O.2    55  ASN55      -0.2715
    113  CB        19.1480    3.0000   42.1870 C.3    55  ASN55       0.1195
    114  CG        18.0300    2.0930   41.7050 C.2    55  ASN55       0.2630
    115  OD1       17.5180    2.2610   40.5920 O.2    55  ASN55      -0.2716
    116  ND2       17.6390    1.1280   42.5390 N.am   55  ASN55      -0.0877
    117  N         17.3490    6.0380   41.0790 N.am   56  GLY56      -0.1954
    118  CA        16.0930    6.7480   41.1980 C.3    56  GLY56       0.1869
    119  C         15.2360    6.7710   39.9350 C.2    56  GLY56       0.2309
    120  O         15.6870    7.1440   38.8430 O.2    56  GLY56      -0.2863
    121  N         22.3140   -1.6830   28.5140 N.3    88  LYS88      -0.1245
    122  CA        21.8990   -1.6520   29.9110 C.3    88  LYS88       0.1561
    123  C         20.6940   -0.7360   30.1040 C.2    88  LYS88       0.2260
    124  O         20.0270   -0.7840   31.1480 O.2    88  LYS88      -0.2867
    125  CB        23.0590   -1.2370   30.8220 C.3    88  LYS88       0.0271
    126  CG        23.5310    0.1390   30.5390 C.3    88  LYS88       0.0035
    127  CD        24.4300    0.3840   31.6900 C.3    88  LYS88       0.0206
    128  CE        24.1420    1.8100   32.1030 C.3    88  LYS88       0.1093
    129  NZ        24.6700    2.0380   33.4400 N.3    88  LYS88      -0.1314
    130  N         10.8350   -2.3550   46.4950 N.3   111  ALA111     -0.1245
    131  CA        11.8070   -1.9070   45.5080 C.3   111  ALA111      0.1562
    132  C         12.9110   -1.1150   46.1730 C.2   111  ALA111      0.2260
    133  O         14.0290   -1.0270   45.6460 O.2   111  ALA111     -0.2867
    134  CB        11.1430   -1.0700   44.4130 C.3   111  ALA111      0.0290
    135  N         14.2540   -4.0280   49.1660 N.3   114  ASP114     -0.1225
    136  CA        14.4290   -5.4230   48.7640 C.3   114  ASP114      0.1805
    137  C         14.8690   -5.5400   47.2940 C.2   114  ASP114      0.2598
    138  O         15.4390   -4.6070   46.7260 O.2   114  ASP114     -0.2718
    139  CB        13.1160   -6.1770   48.9940 C.3   114  ASP114      0.1424
    140  CG        13.3180   -7.6510   49.2570 C.2   114  ASP114      0.3668
    141  OD1       13.8720   -8.3430   48.3780 O.co2 114  ASP114     -0.2456
    142  OD2       12.8930   -8.1240   50.3340 O.co2 114  ASP114     -0.2456
    143  N         14.5950   -6.6920   46.6900 N.am  115  VAL115     -0.1966
    144  CA        14.9770   -6.9750   45.3090 C.3   115  VAL115      0.1727
    145  C         13.8000   -7.5500   44.5190 C.2   115  VAL115      0.2616
    146  O         13.1520   -8.4980   44.9650 O.2   115  VAL115     -0.2715
    147  CB        16.1390   -7.9880   45.2670 C.3   115  VAL115      0.0290
    148  CG1       16.2520   -8.6220   43.8950 C.3   115  VAL115      0.0023
    149  CG2       17.4440   -7.3240   45.6690 C.3   115  VAL115      0.0023
    150  N         13.5360   -6.9950   43.3390 N.am  116  LEU116     -0.1977
    151  CA        12.3820   -7.4130   42.5350 C.3   116  LEU116      0.1596
    152  C         12.7450   -8.0700   41.2080 C.2   116  LEU116      0.2287
    153  O         13.8050   -7.8150   40.6400 O.2   116  LEU116     -0.2864
    154  CB        11.4490   -6.2240   42.2760 C.3   116  LEU116      0.0297
    155  CG        10.4580   -5.9020   43.3990 C.3   116  LEU116      0.0022
    156  CD1       10.6230   -4.4800   43.8870 C.3   116  LEU116      0.0001
    157  CD2        9.0400   -6.1380   42.9250 C.3   116  LEU116      0.0001
    158  N         12.6600   -3.5970   31.9730 N.3   139  ARG139     -0.1231
    159  CA        13.2120   -3.5610   33.3130 C.3   139  ARG139      0.1694
    160  C         12.8450   -2.2560   34.0130 C.2   139  ARG139      0.2592
    161  O         12.6620   -2.2310   35.2240 O.2   139  ARG139     -0.2718
    162  CB        14.7290   -3.7740   33.3070 C.3   139  ARG139      0.0321
    163  CG        15.2690   -4.2160   34.6720 C.3   139  ARG139      0.0489
    164  CD        16.7850   -4.1390   34.7870 C.3   139  ARG139      0.2205
    165  NE        17.4760   -5.0020   33.8320 N.pl3 139  ARG139     -0.0865
    166  CZ        17.7820   -6.2780   34.0550 C.cat 139  ARG139      0.5346
    167  NH1       17.4450   -6.8490   35.2030 N.pl3 139  ARG139      0.1354
    168  NH2       18.4200   -6.9850   33.1290 N.pl3 139  ARG139      0.1354
    169  N         12.7250   -1.1820   33.2400 N.am  140  GLY140     -0.1957
    170  CA        12.3940    0.1200   33.7830 C.3   140  GLY140      0.1869
    171  C         11.0210    0.1450   34.4130 C.2   140  GLY140      0.2309
    172  O         10.7130    1.0270   35.2220 O.2   140  GLY140     -0.2863
    173  N          9.7750   -1.7940   36.7430 N.3   142  ILE142     -0.1231
    174  CA         9.8930   -1.9280   38.1980 C.3   142  ILE142      0.1692
    175  C         10.0150   -0.5700   38.8960 C.2   142  ILE142      0.2592
    176  O          9.1950   -0.2120   39.7820 O.2   142  ILE142     -0.2718
    177  CB        11.1240   -2.7800   38.5850 C.3   142  ILE142      0.0266
    178  CG1       10.8750   -4.2600   38.2640 C.3   142  ILE142      0.0019
    179  CG2       11.4790   -2.5760   40.0750 C.3   142  ILE142      0.0020
    180  CD1       12.1110   -5.1400   38.3320 C.3   142  ILE142      0.0001
    181  N         11.0460    0.1740   38.4860 N.am  143  GLY143     -0.1957
    182  CA        11.3030    1.4970   39.0170 C.3   143  GLY143      0.1869
    183  C         10.1230    2.4260   38.8110 C.2   143  GLY143      0.2309
    184  O          9.8870    3.3430   39.6080 O.2   143  GLY143     -0.2863
@<TRIPOS>BOND
     1   121   122    1
     2   122   123    1
     3   122   125    1
     4   123   124    2
     5    19    20    2
     6    19    18    1
     7   126   125    1
     8   126   127    1
     9    18    17    1
    10    18    21    1
    11    12    11    2
    12    77    76    1
    13    25    26    1
    14   127   128    1
    15    11    10    1
    16    21    22    1
    17   158   159    1
    18   128   129    1
    19    15    14   ar
    20    76    75   ar
    21    76    74   ar
    22    28    27    2
    23    26    27    1
    24    26    29    1
    25    75    73   ar
    26    14    16   ar
    27    14    13    1
    28    22    24   ar
    29    22    23   ar
    30     4     3    2
    31    13    10    1
    32   168   166    1
    33    10     9    1
    34    74    72   ar
    35   169   170    1
    36   169   160   am
    37   162   159    1
    38   162   163    1
    39   159   160    1
    40    29    30    1
    41     3     9   am
    42     3     2    1
    43   170   171    1
    44   165   166    2
    45   165   164    1
    46    73    71   ar
    47   160   161    2
    48   166   167    1
    49     1     2    1
    50   171   172    2
    51    72    71   ar
    52     2     5    1
    53   163   164    1
    54    71    70    1
    55    93    91    1
    56    90    89    2
    57    91    92    1
    58    91    88    1
    59    69    68    2
    60     5     6    1
    61     7     6   ar
    62    70    67    1
    63    81    80    2
    64     6     8   ar
    65    67    68    1
    66    67    66    1
    67    89    88    1
    68    89    94   am
    69   173   174    1
    70    68    78   am
    71    88    87    1
    72    80    87   am
    73    80    79    1
    74    94    95    1
    75    78    79    1
    76   174   177    1
    77   174   175    1
    78    79    82    1
    79   178   180    1
    80   178   177    1
    81   181   175   am
    82   181   182    1
    83   177   179    1
    84   183   182    1
    85   183   184    2
    86   120   119    2
    87   175   176    2
    88    97    96    2
    89    95    98    1
    90    95    96    1
    91    99    98    1
    92    99   100    1
    93    82    83    1
    94    96   105   am
    95   119   118    1
    96   100   101    1
    97   101   102    2
    98   108   107    2
    99   115   114    2
   100    83    84    1
   101   153   152    2
   102   105   106    1
   103    64    62    1
   104   117   118    1
   105   117   111   am
   106   104   102    1
   107   152   151    1
   108   102   103    1
   109   107   106    1
   110   107   109   am
   111    61    60    2
   112   110   111    1
   113   110   109    1
   114   110   113    1
   115   114   113    1
   116   114   116   am
   117    48    47    1
   118    60    59    1
   119   111   112    2
   120    84    85    1
   121   154   151    1
   122   154   155    1
   123    62    59    1
   124    62    63    1
   125    85    86    1
   126    41    39    1
   127    40    39    1
   128   151   150    1
   129    59    58    1
   130   157   155    1
   131    39    38    2
   132    47    49    1
   133    47    46    1
   134   150   145   am
   135   155   156    1
   136    63    65    1
   137    46    43    1
   138    38    37    1
   139   148   147    1
   140    37    36    1
   141   134   131    1
   142   145   146    2
   143   145   144    1
   144    53    52    2
   145    42    43    1
   146    42    33   am
   147    31    32    1
   148    43    44    1
   149    32    33    1
   150    32    35    1
   151   147   144    1
   152   147   149    1
   153   144   143    1
   154   131   132    1
   155   131   130    1
   156    33    34    2
   157   133   132    2
   158    44    45    2
   159    44    50   am
   160    36    35    1
   161    52    51    1
   162    50    51    1
   163    51    54    1
   164    54    55    1
   165   143   137   am
   166   138   137    2
   167    55    56    2
   168    55    57   am
   169   137   136    1
   170   141   140   ar
   171   136   139    1
   172   136   135    1
   173   139   140    1
   174   140   142   ar
