@<TRIPOS>MOLECULE
tmp/6agoA00.pdb
 199 199 0 0 0
SMALL
GASTEIGER

@<TRIPOS>ATOM
      1  N         63.2640   47.9200  199.5320 N.3   115  GLU115     -0.1231
      2  CA        64.4520   47.0770  199.6010 C.3   115  GLU115      0.1699
      3  C         65.7150   47.8580  199.2600 C.2   115  GLU115      0.2592
      4  O         66.7540   47.2530  198.9760 O.2   115  GLU115     -0.2718
      5  CB        64.3160   45.8630  198.6770 C.3   115  GLU115      0.0402
      6  CG        63.3510   44.8020  199.1800 C.3   115  GLU115      0.1161
      7  CD        63.2630   43.6060  198.2520 C.2   115  GLU115      0.3649
      8  OE1       63.4330   43.7860  197.0280 O.co2 115  GLU115     -0.2457
      9  OE2       63.0290   42.4840  198.7480 O.co2 115  GLU115     -0.2457
     10  N         65.6480   49.1890  199.2820 N.am  116  LYS116     -0.1966
     11  CA        66.7810   50.0330  198.9270 C.3   116  LYS116      0.1728
     12  C         67.1920   50.9680  200.0570 C.2   116  LYS116      0.2617
     13  O         68.0660   51.8190  199.8550 O.2   116  LYS116     -0.2715
     14  CB        66.4630   50.8470  197.6690 C.3   116  LYS116      0.0311
     15  CG        65.7990   50.0460  196.5650 C.3   116  LYS116      0.0038
     16  CD        65.9000   50.7640  195.2370 C.3   116  LYS116      0.0206
     17  CE        66.4880   49.9040  194.1120 C.3   116  LYS116      0.1093
     18  NZ        66.1990   50.7120  192.8740 N.3   116  LYS116     -0.1314
     19  N         66.5910   50.8370  201.2350 N.am  117  GLY117     -0.1940
     20  CA        66.9330   51.6980  202.3480 C.3   117  GLY117      0.2014
     21  C         66.2340   53.0400  202.2950 C.2   117  GLY117      0.2638
     22  O         65.1390   53.1960  202.8410 O.2   117  GLY117     -0.2714
     23  N         66.8540   54.0160  201.6380 N.am  118  TRP118     -0.1973
     24  CA        66.3110   55.3610  201.5290 C.3   118  TRP118      0.1640
     25  C         65.8820   55.6480  200.0960 C.2   118  TRP118      0.2290
     26  O         66.4130   55.0730  199.1420 O.2   118  TRP118     -0.2864
     27  CB        67.3370   56.4060  201.9810 C.3   118  TRP118      0.0576
     28  CG        67.6130   56.3820  203.4520 C.ar  118  TRP118      0.0006
     29  CD1       68.7610   55.9720  204.0650 C.ar  118  TRP118      0.0946
     30  CD2       66.7240   56.7890  204.4990 C.ar  118  TRP118      0.0152
     31  NE1       68.6410   56.0970  205.4280 N.ar  118  TRP118     -0.2442
     32  CE2       67.3990   56.5950  205.7200 C.ar  118  TRP118      0.0810
     33  CE3       65.4210   57.2960  204.5210 C.ar  118  TRP118      0.0012
     34  CZ2       66.8170   56.8940  206.9490 C.ar  118  TRP118      0.0191
     35  CZ3       64.8450   57.5900  205.7440 C.ar  118  TRP118      0.0001
     36  CH2       65.5420   57.3890  206.9400 C.ar  118  TRP118      0.0015
     37  N         73.0170   67.5180  192.3860 N.3   135  TYR135     -0.1241
     38  CA        73.6980   66.4950  193.1730 C.3   135  TYR135      0.1605
     39  C         74.9270   67.1240  193.8200 C.2   135  TYR135      0.2264
     40  O         75.9140   67.4170  193.1380 O.2   135  TYR135     -0.2867
     41  CB        74.0800   65.3130  192.2860 C.3   135  TYR135      0.0534
     42  CG        74.6330   64.1160  193.0250 C.ar  135  TYR135     -0.0201
     43  CD1       75.9750   64.0460  193.3760 C.ar  135  TYR135     -0.0009
     44  CD2       73.8140   63.0450  193.3550 C.ar  135  TYR135     -0.0009
     45  CE1       76.4830   62.9480  194.0430 C.ar  135  TYR135      0.0417
     46  CE2       74.3120   61.9440  194.0220 C.ar  135  TYR135      0.0417
     47  CZ        75.6460   61.8990  194.3630 C.ar  135  TYR135      0.1957
     48  OH        76.1430   60.8000  195.0270 O.3   135  TYR135     -0.2866
     49  N         78.6830   49.0540  200.3120 N.3   157  SER157     -0.1202
     50  CA        77.4900   48.4360  199.7410 C.3   157  SER157      0.2020
     51  C         76.5520   49.4680  199.1280 C.2   157  SER157      0.2619
     52  O         75.8570   49.1700  198.1510 O.2   157  SER157     -0.2717
     53  CB        76.7590   47.6230  200.8120 C.3   157  SER157      0.2103
     54  OG        76.4850   48.4110  201.9580 O.3   157  SER157     -0.2182
     55  N         76.5170   50.6790  199.6820 N.am  158  ASP158     -0.1959
     56  CA        75.7000   51.7750  199.1590 C.3   158  ASP158      0.1840
     57  C         76.6240   52.9720  198.9540 C.2   158  ASP158      0.2622
     58  O         76.7360   53.8350  199.8270 O.2   158  ASP158     -0.2715
     59  CB        74.5390   52.1010  200.0980 C.3   158  ASP158      0.1450
     60  CG        74.9370   52.0520  201.5610 C.2   158  ASP158      0.3671
     61  OD1       75.3660   50.9750  202.0270 O.co2 158  ASP158     -0.2456
     62  OD2       74.8180   53.0890  202.2460 O.co2 158  ASP158     -0.2456
     63  N         77.2840   53.0240  197.7990 N.am  159  HIS159     -0.1959
     64  CA        78.2650   54.0750  197.5580 C.3   159  HIS159      0.1787
     65  C         77.5620   55.4070  197.3210 C.2   159  HIS159      0.2620
     66  O         76.7610   55.5490  196.3910 O.2   159  HIS159     -0.2715
     67  CB        79.1850   53.7040  196.3900 C.3   159  HIS159      0.0785
     68  CG        78.5280   53.7310  195.0430 C.ar  159  HIS159      0.0821
     69  ND1       79.1490   54.2510  193.9270 N.ar  159  HIS159     -0.2267
     70  CD2       77.3200   53.2830  194.6260 C.ar  159  HIS159      0.1154
     71  CE1       78.3460   54.1370  192.8850 C.ar  159  HIS159      0.1986
     72  NE2       77.2290   53.5540  193.2810 N.ar  159  HIS159     -0.2212
     73  N         77.8430   56.3770  198.1910 N.am  160  TYR160     -0.1960
     74  CA        77.2750   57.7190  198.0780 C.3   160  TYR160      0.1771
     75  C         78.2410   58.5740  197.2650 C.2   160  TYR160      0.2619
     76  O         78.9760   59.4150  197.7870 O.2   160  TYR160     -0.2715
     77  CB        77.0210   58.3130  199.4580 C.3   160  TYR160      0.0574
     78  CG        75.8510   57.7020  200.1940 C.ar  160  TYR160     -0.0198
     79  CD1       74.5470   58.0720  199.8930 C.ar  160  TYR160     -0.0009
     80  CD2       76.0500   56.7620  201.1970 C.ar  160  TYR160     -0.0009
     81  CE1       73.4740   57.5210  200.5660 C.ar  160  TYR160      0.0417
     82  CE2       74.9820   56.2050  201.8760 C.ar  160  TYR160      0.0417
     83  CZ        73.6960   56.5890  201.5550 C.ar  160  TYR160      0.1957
     84  OH        72.6280   56.0410  202.2240 O.3   160  TYR160     -0.2866
     85  N         78.2380   58.3480  195.9530 N.am  161  CYS161     -0.1968
     86  CA        79.1710   59.0530  195.0890 C.3   161  CYS161      0.1712
     87  C         78.6530   59.0580  193.6600 C.2   161  CYS161      0.2296
     88  O         77.9890   58.1150  193.2200 O.2   161  CYS161     -0.2864
     89  CB        80.5650   58.4200  195.1370 C.3   161  CYS161      0.0983
     90  SG        80.6390   56.7350  194.4820 S.3   161  CYS161     -0.0798
     91  N         71.6660   62.3630  197.4410 N.3   180  ARG180     -0.1231
     92  CA        72.3890   61.1280  197.7180 C.3   180  ARG180      0.1694
     93  C         71.4620   59.9580  198.0220 C.2   180  ARG180      0.2592
     94  O         71.9350   58.8180  198.0830 O.2   180  ARG180     -0.2718
     95  CB        73.3530   61.3370  198.8880 C.3   180  ARG180      0.0321
     96  CG        72.6640   61.5140  200.2310 C.3   180  ARG180      0.0489
     97  CD        73.6020   62.1120  201.2670 C.3   180  ARG180      0.2205
     98  NE        74.7300   61.2360  201.5690 N.pl3 180  ARG180     -0.0865
     99  CZ        74.7390   60.3430  202.5530 C.cat 180  ARG180      0.5346
    100  NH1       73.6750   60.2020  203.3310 N.pl3 180  ARG180      0.1354
    101  NH2       75.8110   59.5890  202.7580 N.pl3 180  ARG180      0.1354
    102  N         70.1670   60.2050  198.2110 N.am  181  PHE181     -0.1962
    103  CA        69.2090   59.1560  198.5280 C.3   181  PHE181      0.1771
    104  C         68.4390   58.6660  197.3090 C.2   181  PHE181      0.2619
    105  O         67.5720   57.7980  197.4500 O.2   181  PHE181     -0.2715
    106  CB        68.2290   59.6460  199.6000 C.3   181  PHE181      0.0574
    107  CG        68.8990   60.0960  200.8700 C.ar  181  PHE181     -0.0200
    108  CD1       69.8840   59.3210  201.4600 C.ar  181  PHE181     -0.0042
    109  CD2       68.5540   61.2990  201.4640 C.ar  181  PHE181     -0.0042
    110  CE1       70.5050   59.7330  202.6220 C.ar  181  PHE181     -0.0003
    111  CE2       69.1730   61.7160  202.6270 C.ar  181  PHE181     -0.0003
    112  CZ        70.1500   60.9320  203.2060 C.ar  181  PHE181     -0.0000
    113  N         68.7340   59.1940  196.1250 N.am  182  ILE182     -0.1963
    114  CA        68.0620   58.7690  194.9010 C.3   182  ILE182      0.1727
    115  C         68.6720   57.4490  194.4460 C.2   182  ILE182      0.2616
    116  O         69.8710   57.3750  194.1560 O.2   182  ILE182     -0.2715
    117  CB        68.1790   59.8380  193.8070 C.3   182  ILE182      0.0290
    118  CG1       67.7530   61.2020  194.3540 C.3   182  ILE182      0.0022
    119  CG2       67.3380   59.4580  192.6020 C.3   182  ILE182      0.0023
    120  CD1       67.7370   62.3030  193.3200 C.3   182  ILE182      0.0001
    121  N         67.8490   56.4060  194.3790 N.am  183  ASN183     -0.1958
    122  CA        68.3280   55.0720  194.0520 C.3   183  ASN183      0.1819
    123  C         68.2240   54.8290  192.5450 C.2   183  ASN183      0.2621
    124  O         68.0400   55.7560  191.7530 O.2   183  ASN183     -0.2715
    125  CB        67.5680   54.0250  194.8670 C.3   183  ASN183      0.1195
    126  CG        66.0920   54.3390  194.9930 C.2   183  ASN183      0.2630
    127  OD1       65.3170   54.1170  194.0640 O.2   183  ASN183     -0.2716
    128  ND2       65.6930   54.8530  196.1510 N.am  183  ASN183     -0.0877
    129  N         68.3380   53.5670  192.1380 N.am  184  HIS184     -0.1973
    130  CA        68.5180   53.1910  190.7440 C.3   184  HIS184      0.1656
    131  C         67.3130   52.4200  190.2190 C.2   184  HIS184      0.2291
    132  O         66.6310   51.7120  190.9630 O.2   184  HIS184     -0.2864
    133  CB        69.7880   52.3450  190.5830 C.3   184  HIS184      0.0771
    134  CG        69.8630   51.5970  189.2890 C.ar  184  HIS184      0.0820
    135  ND1       69.8790   52.2280  188.0630 N.ar  184  HIS184     -0.2267
    136  CD2       69.9270   50.2700  189.0290 C.ar  184  HIS184      0.1154
    137  CE1       69.9490   51.3210  187.1050 C.ar  184  HIS184      0.1986
    138  NE2       69.9800   50.1250  187.6650 N.ar  184  HIS184     -0.2212
    139  N         67.0590   57.0960  188.7150 N.3   219  TYR219     -0.1241
    140  CA        67.8620   57.2970  187.5200 C.3   219  TYR219      0.1605
    141  C         68.7690   56.0900  187.3300 C.2   219  TYR219      0.2264
    142  O         68.9960   55.3050  188.2530 O.2   219  TYR219     -0.2867
    143  CB        68.6800   58.5970  187.5890 C.3   219  TYR219      0.0534
    144  CG        69.8230   58.5820  188.5780 C.ar  219  TYR219     -0.0201
    145  CD1       69.6190   58.9180  189.9100 C.ar  219  TYR219     -0.0009
    146  CD2       71.1120   58.2570  188.1740 C.ar  219  TYR219     -0.0009
    147  CE1       70.6640   58.9140  190.8160 C.ar  219  TYR219      0.0417
    148  CE2       72.1620   58.2500  189.0720 C.ar  219  TYR219      0.0417
    149  CZ        71.9330   58.5810  190.3910 C.ar  219  TYR219      0.1957
    150  OH        72.9770   58.5750  191.2880 O.3   219  TYR219     -0.2866
    151  N         71.9790   53.9630  187.0190 N.3   221  TYR221     -0.1241
    152  CA        73.3530   53.9850  187.5040 C.3   221  TYR221      0.1605
    153  C         74.3580   53.5630  186.4410 C.2   221  TYR221      0.2264
    154  O         75.5270   53.9520  186.5260 O.2   221  TYR221     -0.2867
    155  CB        73.5040   53.0780  188.7280 C.3   221  TYR221      0.0534
    156  CG        72.9810   53.6640  190.0230 C.ar  221  TYR221     -0.0201
    157  CD1       72.2730   54.8590  190.0360 C.ar  221  TYR221     -0.0009
    158  CD2       73.2030   53.0220  191.2350 C.ar  221  TYR221     -0.0009
    159  CE1       71.7950   55.3920  191.2180 C.ar  221  TYR221      0.0417
    160  CE2       72.7310   53.5500  192.4220 C.ar  221  TYR221      0.0417
    161  CZ        72.0280   54.7350  192.4070 C.ar  221  TYR221      0.1957
    162  OH        71.5560   55.2660  193.5840 O.3   221  TYR221     -0.2866
    163  N         80.3920   52.2480  189.0440 N.3   227  ASN227     -0.1240
    164  CA        79.9700   51.1960  189.9610 C.3   227  ASN227      0.1653
    165  C         81.0900   50.1690  190.0400 C.2   227  ASN227      0.2266
    166  O         80.9670   49.0560  189.5170 O.2   227  ASN227     -0.2867
    167  CB        78.6540   50.5440  189.5330 C.3   227  ASN227      0.1155
    168  CG        77.8200   50.0890  190.7240 C.2   227  ASN227      0.2627
    169  OD1       78.1270   49.0810  191.3620 O.2   227  ASN227     -0.2716
    170  ND2       76.7740   50.8450  191.0400 N.am  227  ASN227     -0.0877
    171  N         70.3180   43.5390  192.6590 N.3   230  CYS230     -0.1221
    172  CA        69.4100   44.6560  192.4220 C.3   230  CYS230      0.1808
    173  C         67.9550   44.2030  192.3950 C.2   230  CYS230      0.2601
    174  O         67.6380   43.1250  191.8900 O.2   230  CYS230     -0.2717
    175  CB        69.7580   45.3590  191.1100 C.3   230  CYS230      0.0970
    176  SG        68.4450   46.4160  190.4540 S.3   230  CYS230     -0.0800
    177  N         67.0660   45.0450  192.9440 N.am  231  LYS231     -0.1965
    178  CA        65.6310   44.7830  192.9820 C.3   231  LYS231      0.1728
    179  C         64.8930   46.0880  192.6610 C.2   231  LYS231      0.2616
    180  O         64.2850   46.7250  193.5200 O.2   231  LYS231     -0.2715
    181  CB        65.1990   44.2140  194.3350 C.3   231  LYS231      0.0311
    182  CG        65.6440   42.7800  194.5800 C.3   231  LYS231      0.0038
    183  CD        65.1020   41.8470  193.5080 C.3   231  LYS231      0.0206
    184  CE        65.6120   40.4290  193.6970 C.3   231  LYS231      0.1093
    185  NZ        65.1870   39.5350  192.5850 N.3   231  LYS231     -0.1314
    186  N         64.9480   46.4960  191.3910 N.am  232  CYS232     -0.1968
    187  CA        64.2670   47.7170  190.9740 C.3   232  CYS232      0.1712
    188  C         62.7940   47.4560  190.6800 C.2   232  CYS232      0.2296
    189  O         61.9230   48.2180  191.1150 O.2   232  CYS232     -0.2864
    190  CB        64.9630   48.3190  189.7510 C.3   232  CYS232      0.0983
    191  SG        64.3290   47.7370  188.1620 S.3   232  CYS232     -0.0798
    192  N         72.8220   45.7720  189.4930 N.3   241  ILE241     -0.1245
    193  CA        73.1790   47.1020  189.0120 C.3   241  ILE241      0.1561
    194  C         74.4910   47.0200  188.2470 C.2   241  ILE241      0.2260
    195  O         75.5430   46.7070  188.8180 O.2   241  ILE241     -0.2867
    196  CB        73.2740   48.0940  190.1750 C.3   241  ILE241      0.0252
    197  CG1       71.9560   48.1430  190.9510 C.3   241  ILE241      0.0019
    198  CG2       73.6450   49.4770  189.6620 C.3   241  ILE241      0.0019
    199  CD1       71.9840   49.0710  192.1460 C.3   241  ILE241      0.0001
@<TRIPOS>BOND
     1   153   154    2
     2   153   152    1
     3   151   152    1
     4   137   138   ar
     5   137   135   ar
     6   141   140    1
     7   141   142    2
     8   152   155    1
     9   140   143    1
    10   140   139    1
    11   143   144    1
    12   138   136   ar
    13   135   134   ar
    14   191   190    1
    15   146   144   ar
    16   146   148   ar
    17   194   195    2
    18   194   193    1
    19   144   145   ar
    20   155   156    1
    21   193   192    1
    22   193   196    1
    23   136   134   ar
    24   163   164    1
    25   148   149   ar
    26   134   133    1
    27   166   165    2
    28   167   164    1
    29   167   168    1
    30   198   196    1
    31   190   187    1
    32   145   147   ar
    33   164   165    1
    34   156   157   ar
    35   156   158   ar
    36   157   159   ar
    37   196   197    1
    38   131   130    1
    39   131   132    2
    40   149   147   ar
    41   149   150    1
    42   176   175    1
    43   133   130    1
    44   188   187    1
    45   188   189    2
    46   168   170   am
    47   168   169    2
    48   130   129    1
    49   197   199    1
    50   187   186    1
    51   175   172    1
    52   159   161   ar
    53   158   160   ar
    54   186   179   am
    55   124   123    2
    56   174   173    2
    57   129   123   am
    58    41    42    1
    59    41    38    1
    60    37    38    1
    61   173   172    1
    62   173   177   am
    63   161   160   ar
    64   161   162    1
    65   172   171    1
    66   123   122    1
    67   185   184    1
    68   119   117    1
    69   179   178    1
    70   179   180    2
    71    18    17    1
    72    71    72   ar
    73    71    69   ar
    74   177   178    1
    75   178   181    1
    76    42    44   ar
    77    42    43   ar
    78    40    39    2
    79    38    39    1
    80    88    87    2
    81    72    70   ar
    82   120   118    1
    83    44    46   ar
    84    43    45   ar
    85   183   184    1
    86   183   182    1
    87    87    86    1
    88   117   118    1
    89   117   114    1
    90    69    68   ar
    91    46    47   ar
    92    45    47   ar
    93   122   121    1
    94   122   125    1
    95   127   126    2
    96    17    16    1
    97   116   115    2
    98   181   182    1
    99    47    48    1
   100   121   115   am
   101   115   114    1
   102    90    89    1
   103    70    68   ar
   104   125   126    1
   105   114   113    1
   106   126   128   am
   107    68    67    1
   108    86    89    1
   109    86    85    1
   110    16    15    1
   111    85    75   am
   112   113   104   am
   113    67    64    1
   114    66    65    2
   115    15    14    1
   116     8     7   ar
   117    75    76    2
   118    75    74    1
   119   104   105    2
   120   104   103    1
   121    65    64    1
   122    65    73   am
   123    91    92    1
   124    64    63    1
   125    14    11    1
   126    92    93    1
   127    92    95    1
   128    63    57   am
   129    93    94    2
   130    93   102   am
   131    74    73    1
   132    74    77    1
   133    52    51    2
   134   102   103    1
   135     7     9   ar
   136     7     6    1
   137   103   106    1
   138     5     6    1
   139     5     2    1
   140    95    96    1
   141    11    10    1
   142    11    12    1
   143    57    56    1
   144    57    58    2
   145     4     3    2
   146    51    55   am
   147    51    50    1
   148    26    25    2
   149    56    55    1
   150    56    59    1
   151     3    10   am
   152     3     2    1
   153    77    78    1
   154     1     2    1
   155   106   107    1
   156    50    49    1
   157    50    53    1
   158    13    12    2
   159    79    78   ar
   160    79    81   ar
   161    12    19   am
   162    25    24    1
   163    59    60    1
   164    78    80   ar
   165    96    97    1
   166    81    83   ar
   167    53    54    1
   168   107   108   ar
   169   107   109   ar
   170    80    82   ar
   171    19    20    1
   172    97    98    1
   173   108   110   ar
   174   109   111   ar
   175    24    23    1
   176    24    27    1
   177    83    82   ar
   178    83    84    1
   179    60    61   ar
   180    60    62   ar
   181    98    99    2
   182    23    21   am
   183    27    28    1
   184    21    20    1
   185    21    22    2
   186    99   101    1
   187    99   100    1
   188   110   112   ar
   189   111   112   ar
   190    28    29   ar
   191    28    30   ar
   192    29    31   ar
   193    30    33   ar
   194    30    32   ar
   195    33    35   ar
   196    31    32   ar
   197    32    34   ar
   198    35    36   ar
   199    36    34   ar
