@<TRIPOS>MOLECULE
tmp/6agtB01.pdb
 114 106 0 0 0
SMALL
GASTEIGER

@<TRIPOS>ATOM
      1  N          1.4450  -29.5720   34.1030 N.3   207  GLY207     -0.1210
      2  CA         1.8860  -29.7550   32.7290 C.3   207  GLY207      0.1956
      3  C          3.3590  -30.0740   32.6260 C.2   207  GLY207      0.2611
      4  O          3.9130  -30.1900   31.5370 O.2   207  GLY207     -0.2717
      5  N          4.0090  -30.1800   33.7780 N.am  208  ALA208     -0.1979
      6  CA         5.4200  -30.5100   33.8360 C.3   208  ALA208      0.1597
      7  C          5.7500  -30.8390   35.2770 C.2   208  ALA208      0.2287
      8  O          4.9390  -30.5980   36.1750 O.2   208  ALA208     -0.2864
      9  CB         6.2970  -29.3410   33.3230 C.3   208  ALA208      0.0319
     10  N          4.2320  -24.6180   32.3920 N.3   229  ALA229     -0.1245
     11  CA         4.0610  -25.1640   31.0490 C.3   229  ALA229      0.1562
     12  C          2.7470  -24.6790   30.4810 C.2   229  ALA229      0.2260
     13  O          1.9330  -24.1310   31.2110 O.2   229  ALA229     -0.2867
     14  CB         4.0990  -26.7420   31.0780 C.3   229  ALA229      0.0290
     15  N          0.8090  -26.9700   28.6480 N.3   231  GLU231     -0.1245
     16  CA         0.1770  -28.2520   28.2660 C.3   231  GLU231      0.1567
     17  C         -1.3170  -28.3760   28.5750 C.2   231  GLU231      0.2260
     18  O         -2.1250  -28.6700   27.6880 O.2   231  GLU231     -0.2867
     19  CB         0.9300  -29.3950   28.9410 C.3   231  GLU231      0.0388
     20  CG         0.3320  -30.7720   28.6840 C.3   231  GLU231      0.1160
     21  CD         1.3730  -31.8870   28.6800 C.2   231  GLU231      0.3649
     22  OE1        0.9560  -33.0750   28.6760 O.co2 231  GLU231     -0.2457
     23  OE2        2.5910  -31.5780   28.6980 O.co2 231  GLU231     -0.2457
     24  N         10.0890  -21.4610   35.9140 N.3   253  ARG253     -0.1245
     25  CA        10.4620  -22.6050   36.7340 C.3   253  ARG253      0.1563
     26  C         11.4010  -22.0850   37.8020 C.2   253  ARG253      0.2260
     27  O         12.4610  -21.5230   37.5090 O.2   253  ARG253     -0.2867
     28  CB        11.0630  -23.7220   35.8640 C.3   253  ARG253      0.0307
     29  CG        10.0080  -24.2410   34.8450 C.3   253  ARG253      0.0489
     30  CD        10.2510  -25.6210   34.2330 C.3   253  ARG253      0.2205
     31  NE         9.1870  -25.9160   33.2700 N.pl3 253  ARG253     -0.0865
     32  CZ         9.2330  -26.8770   32.3440 C.cat 253  ARG253      0.5346
     33  NH1       10.2900  -27.6680   32.2430 N.pl3 253  ARG253      0.1354
     34  NH2        8.2140  -27.0460   31.5110 N.pl3 253  ARG253      0.1354
     35  N          4.6240  -24.8220   22.6360 N.3   269  GLU269     -0.1245
     36  CA         3.9370  -26.1330   22.6940 C.3   269  GLU269      0.1567
     37  C          2.8510  -26.1680   21.6250 C.2   269  GLU269      0.2260
     38  O          2.1030  -25.2000   21.4590 O.2   269  GLU269     -0.2867
     39  CB         3.3100  -26.4340   24.0750 C.3   269  GLU269      0.0388
     40  CG         4.3300  -26.6210   25.2360 C.3   269  GLU269      0.1160
     41  CD         3.7460  -27.3450   26.4670 C.2   269  GLU269      0.3649
     42  OE1        2.7810  -28.1300   26.3060 O.co2 269  GLU269     -0.2457
     43  OE2        4.2630  -27.1390   27.6000 O.co2 269  GLU269     -0.2457
     44  N         -0.3430  -28.8000   19.9760 N.3   271  TYR271     -0.1241
     45  CA        -1.1910  -29.9940   20.1080 C.3   271  TYR271      0.1605
     46  C         -1.9320  -30.2290   18.7960 C.2   271  TYR271      0.2264
     47  O         -2.4930  -29.3090   18.1790 O.2   271  TYR271     -0.2867
     48  CB        -2.1380  -29.8600   21.3170 C.3   271  TYR271      0.0534
     49  CG        -1.2740  -29.9500   22.5680 C.ar  271  TYR271     -0.0201
     50  CD1       -0.5760  -28.8330   23.0330 C.ar  271  TYR271     -0.0009
     51  CD2       -1.0520  -31.1730   23.1950 C.ar  271  TYR271     -0.0009
     52  CE1        0.2760  -28.9110   24.1090 C.ar  271  TYR271      0.0417
     53  CE2       -0.2030  -31.2670   24.2860 C.ar  271  TYR271      0.0417
     54  CZ         0.4600  -30.1350   24.7380 C.ar  271  TYR271      0.1957
     55  OH         1.3210  -30.2160   25.8020 O.3   271  TYR271     -0.2866
     56  N         18.4360  -31.3430   26.3950 N.3   423  GLU423     -0.1245
     57  CA        17.0640  -31.5080   25.9370 C.3   423  GLU423      0.1567
     58  C         16.5520  -30.2220   25.3080 C.2   423  GLU423      0.2260
     59  O         16.7010  -29.1320   25.8920 O.2   423  GLU423     -0.2867
     60  CB        16.1500  -31.9060   27.0970 C.3   423  GLU423      0.0388
     61  CG        14.6920  -32.1210   26.6760 C.3   423  GLU423      0.1160
     62  CD        13.7280  -32.1600   27.8530 C.2   423  GLU423      0.3649
     63  OE1       14.1320  -31.8050   28.9840 O.co2 423  GLU423     -0.2457
     64  OE2       12.5530  -32.5280   27.6460 O.co2 423  GLU423     -0.2457
     65  N         10.3410  -32.0900   23.9830 N.3   426  ASN426     -0.1225
     66  CA         9.6690  -33.1590   24.7180 C.3   426  ASN426      0.1785
     67  C          8.2770  -33.3580   24.1100 C.2   426  ASN426      0.2597
     68  O          7.5370  -32.3960   23.9370 O.2   426  ASN426     -0.2718
     69  CB         9.5960  -32.8100   26.2060 C.3   426  ASN426      0.1169
     70  CG         8.9640  -33.9070   27.0440 C.2   426  ASN426      0.2627
     71  OD1        9.1920  -35.0860   26.8100 O.2   426  ASN426     -0.2716
     72  ND2        8.1930  -33.5120   28.0570 N.am  426  ASN426     -0.0877
     73  N          7.9280  -34.5900   23.7610 N.am  427  ALA427     -0.1966
     74  CA         6.7000  -34.8230   22.9910 C.3   427  ALA427      0.1728
     75  C          6.1160  -36.2010   23.2820 C.2   427  ALA427      0.2616
     76  O          6.8420  -37.0930   23.7140 O.2   427  ALA427     -0.2715
     77  CB         6.9860  -34.6750   21.5010 C.3   427  ALA427      0.0334
     78  N          4.8130  -36.3680   23.0650 N.am  428  TYR428     -0.1974
     79  CA         4.2140  -37.6970   23.1800 C.3   428  TYR428      0.1639
     80  C          2.7860  -37.7900   22.6660 C.2   428  TYR428      0.2290
     81  O          2.0820  -36.7790   22.4920 O.2   428  TYR428     -0.2864
     82  CB         4.2450  -38.1950   24.6390 C.3   428  TYR428      0.0560
     83  CG         3.9920  -37.1700   25.7400 C.ar  428  TYR428     -0.0198
     84  CD1        2.7060  -36.8240   26.1130 C.ar  428  TYR428     -0.0009
     85  CD2        5.0550  -36.6090   26.4570 C.ar  428  TYR428     -0.0009
     86  CE1        2.4660  -35.9380   27.1520 C.ar  428  TYR428      0.0417
     87  CE2        4.8280  -35.7150   27.4960 C.ar  428  TYR428      0.0417
     88  CZ         3.5340  -35.3730   27.8290 C.ar  428  TYR428      0.1957
     89  OH         3.2950  -34.4790   28.8530 O.3   428  TYR428     -0.2866
     90  N         -0.6990  -38.1390   23.5710 N.3   430  GLU430     -0.1245
     91  CA        -1.3250  -37.6750   24.8040 C.3   430  GLU430      0.1567
     92  C         -2.2540  -38.6980   25.4660 C.2   430  GLU430      0.2260
     93  O         -3.0480  -39.3740   24.8040 O.2   430  GLU430     -0.2867
     94  CB        -2.1060  -36.3880   24.5520 C.3   430  GLU430      0.0388
     95  CG        -1.2630  -35.2870   23.8900 C.3   430  GLU430      0.1160
     96  CD        -0.1710  -34.7650   24.8080 C.2   430  GLU430      0.3649
     97  OE1       -0.3600  -34.7630   26.0500 O.co2 430  GLU430     -0.2457
     98  OE2        0.8950  -34.3810   24.2850 O.co2 430  GLU430     -0.2457
     99  N          1.2390  -34.2690   21.1670 N.3   475  GLY475     -0.1210
    100  CA         1.6470  -32.9750   21.6890 C.3   475  GLY475      0.1956
    101  C          3.1550  -32.8420   21.7270 C.2   475  GLY475      0.2612
    102  O          3.8680  -33.8490   21.8750 O.2   475  GLY475     -0.2717
    103  N          3.6530  -31.6110   21.5980 N.am  476  LEU476     -0.1965
    104  CA         5.0920  -31.4070   21.5160 C.3   476  LEU476      0.1728
    105  C          5.5190  -30.0360   22.0460 C.2   476  LEU476      0.2616
    106  O          4.8380  -29.0370   21.8120 O.2   476  LEU476     -0.2715
    107  CB         5.5580  -31.5670   20.0690 C.3   476  LEU476      0.0311
    108  CG         7.0500  -31.4030   19.7420 C.3   476  LEU476      0.0022
    109  CD1        7.3340  -32.2390   18.5310 C.3   476  LEU476      0.0001
    110  CD2        7.5430  -29.9080   19.4940 C.3   476  LEU476      0.0001
    111  N          6.6610  -30.0000   22.7260 N.am  477  GLY477     -0.1955
    112  CA         7.2220  -28.7740   23.2660 C.3   477  GLY477      0.1869
    113  C          8.6640  -28.5860   22.8620 C.2   477  GLY477      0.2309
    114  O          9.4140  -29.5570   22.7420 O.2   477  GLY477     -0.2863
@<TRIPOS>BOND
     1    47    46    2
     2   109   108    1
     3    46    45    1
     4   110   108    1
     5   108   107    1
     6    44    45    1
     7   107   104    1
     8    45    48    1
     9    99   100    1
    10    48    49    1
    11    38    37    2
    12    77    74    1
    13   104   103    1
    14   104   105    1
    15   103   101   am
    16    37    36    1
    17   100   101    1
    18   101   102    2
    19   106   105    2
    20   105   111   am
    21    81    80    2
    22    49    50   ar
    23    49    51   ar
    24    35    36    1
    25    80    79    1
    26    36    39    1
    27   111   112    1
    28   114   113    2
    29   113   112    1
    30    74    75    1
    31    74    73    1
    32    50    52   ar
    33    78    79    1
    34    78    75   am
    35    79    82    1
    36    51    53   ar
    37    75    76    2
    38    90    91    1
    39    73    67   am
    40    95    94    1
    41    95    96    1
    42    68    67    2
    43    65    66    1
    44    39    40    1
    45    52    54   ar
    46    67    66    1
    47    98    96   ar
    48    53    54   ar
    49    94    91    1
    50    82    83    1
    51    66    69    1
    52    54    55    1
    53    91    92    1
    54    93    92    2
    55    96    97   ar
    56    40    41    1
    57    58    59    2
    58    58    57    1
    59    83    84   ar
    60    83    85   ar
    61    57    56    1
    62    57    60    1
    63    84    86   ar
    64    69    70    1
    65    42    41   ar
    66    85    87   ar
    67    41    43   ar
    68    61    60    1
    69    61    62    1
    70    71    70    2
    71    70    72   am
    72    86    88   ar
    73    87    88   ar
    74    64    62   ar
    75    18    17    2
    76    88    89    1
    77    62    63   ar
    78    16    17    1
    79    16    15    1
    80    16    19    1
    81    22    21   ar
    82    21    20    1
    83    21    23   ar
    84    20    19    1
    85    12    11    1
    86    12    13    2
    87    11    14    1
    88    11    10    1
    89    34    32    1
    90     4     3    2
    91    33    32    1
    92    32    31    2
    93     3     2    1
    94     3     5   am
    95     2     1    1
    96    31    30    1
    97     9     6    1
    98     5     6    1
    99     6     7    1
   100    30    29    1
   101    29    28    1
   102     7     8    2
   103    28    25    1
   104    24    25    1
   105    25    26    1
   106    27    26    2
