@<TRIPOS>MOLECULE
tmp/6agtB00.pdb
 157 148 0 0 0
SMALL
GASTEIGER

@<TRIPOS>ATOM
      1  N          7.4830  -19.4550   30.0920 N.3   251  VAL251     -0.1245
      2  CA         7.0850  -20.2550   31.2380 C.3   251  VAL251      0.1561
      3  C          8.1280  -20.0270   32.3330 C.2   251  VAL251      0.2260
      4  O          9.2260  -19.4910   32.0610 O.2   251  VAL251     -0.2867
      5  CB         6.9640  -21.7570   30.8990 C.3   251  VAL251      0.0252
      6  CG1        5.8210  -21.9880   29.9090 C.3   251  VAL251      0.0019
      7  CG2        8.2740  -22.2920   30.3510 C.3   251  VAL251      0.0019
      8  N         10.0890  -21.4610   35.9140 N.3   253  ARG253     -0.1245
      9  CA        10.4620  -22.6050   36.7340 C.3   253  ARG253      0.1563
     10  C         11.4010  -22.0850   37.8020 C.2   253  ARG253      0.2260
     11  O         12.4610  -21.5230   37.5090 O.2   253  ARG253     -0.2867
     12  CB        11.0630  -23.7220   35.8640 C.3   253  ARG253      0.0307
     13  CG        10.0080  -24.2410   34.8450 C.3   253  ARG253      0.0489
     14  CD        10.2510  -25.6210   34.2330 C.3   253  ARG253      0.2205
     15  NE         9.1870  -25.9160   33.2700 N.pl3 253  ARG253     -0.0865
     16  CZ         9.2330  -26.8770   32.3440 C.cat 253  ARG253      0.5346
     17  NH1       10.2900  -27.6680   32.2430 N.pl3 253  ARG253      0.1354
     18  NH2        8.2140  -27.0460   31.5110 N.pl3 253  ARG253      0.1354
     19  N         13.8590  -22.4490   39.7800 N.3   255  GLU255     -0.1231
     20  CA        15.0410  -23.2110   40.1050 C.3   255  GLU255      0.1699
     21  C         16.2650  -22.3880   39.7620 C.2   255  GLU255      0.2592
     22  O         16.1530  -21.2740   39.2330 O.2   255  GLU255     -0.2718
     23  CB        15.0520  -24.5590   39.3880 C.3   255  GLU255      0.0402
     24  CG        15.1150  -24.5270   37.8810 C.3   255  GLU255      0.1161
     25  CD        15.1190  -25.9380   37.2990 C.2   255  GLU255      0.3649
     26  OE1       14.1270  -26.6750   37.5010 O.co2 255  GLU255     -0.2457
     27  OE2       16.1280  -26.3240   36.6690 O.co2 255  GLU255     -0.2457
     28  N         17.4300  -22.9320   40.0920 N.am  256  GLY256     -0.1957
     29  CA        18.6800  -22.2180   39.9620 C.3   256  GLY256      0.1869
     30  C         19.0730  -21.9150   38.5360 C.2   256  GLY256      0.2309
     31  O         18.6620  -22.5850   37.5910 O.2   256  GLY256     -0.2863
     32  N         22.3240  -23.4790   31.0930 N.3   260  THR260     -0.1203
     33  CA        21.1750  -23.8830   30.2770 C.3   260  THR260      0.1994
     34  C         19.8530  -23.7160   31.0150 C.2   260  THR260      0.2618
     35  O         18.8190  -24.2690   30.5930 O.2   260  THR260     -0.2717
     36  CB        21.3090  -25.3450   29.8080 C.3   260  THR260      0.1784
     37  OG1       21.4950  -26.1920   30.9510 O.3   260  THR260     -0.2211
     38  CG2       22.5010  -25.4930   28.8570 C.3   260  THR260      0.0376
     39  N         19.8810  -22.9570   32.1090 N.am  261  HIS261     -0.1961
     40  CA        18.6850  -22.6800   32.9030 C.3   261  HIS261      0.1787
     41  C         18.5460  -21.1880   33.2830 C.2   261  HIS261      0.2620
     42  O         19.3790  -20.6290   34.0120 O.2   261  HIS261     -0.2715
     43  CB        18.6810  -23.5120   34.1970 C.3   261  HIS261      0.0785
     44  CG        18.6080  -24.9920   33.9730 C.ar  261  HIS261      0.0821
     45  ND1       19.6920  -25.7390   33.5610 N.ar  261  HIS261     -0.2267
     46  CD2       17.5740  -25.8620   34.0960 C.ar  261  HIS261      0.1154
     47  CE1       19.3310  -27.0080   33.4540 C.ar  261  HIS261      0.1986
     48  NE2       18.0550  -27.1090   33.7800 N.ar  261  HIS261     -0.2212
     49  N         17.4740  -20.5740   32.8020 N.am  262  ASN262     -0.1972
     50  CA        17.0330  -19.2600   33.2440 C.3   262  ASN262      0.1688
     51  C         15.6140  -19.4460   33.7670 C.2   262  ASN262      0.2292
     52  O         14.8010  -20.0970   33.1110 O.2   262  ASN262     -0.2864
     53  CB        17.0910  -18.2610   32.0830 C.3   262  ASN262      0.1181
     54  CG        16.9760  -16.8150   32.5370 C.2   262  ASN262      0.2629
     55  OD1       17.9340  -16.2410   33.0550 O.2   262  ASN262     -0.2716
     56  ND2       15.8100  -16.2110   32.3180 N.am  262  ASN262     -0.0877
     57  N         11.7840  -18.7160   30.7070 N.3   265  PHE265     -0.1241
     58  CA        12.2990  -18.9990   29.3690 C.3   265  PHE265      0.1605
     59  C         11.1660  -19.1930   28.3940 C.2   265  PHE265      0.2264
     60  O         10.0100  -19.2970   28.7720 O.2   265  PHE265     -0.2867
     61  CB        13.2160  -20.2350   29.3500 C.3   265  PHE265      0.0534
     62  CG        12.5270  -21.5260   29.7080 C.ar  265  PHE265     -0.0203
     63  CD1       12.3280  -21.8810   31.0410 C.ar  265  PHE265     -0.0042
     64  CD2       12.1110  -22.3970   28.7180 C.ar  265  PHE265     -0.0042
     65  CE1       11.7120  -23.1040   31.3830 C.ar  265  PHE265     -0.0003
     66  CE2       11.4800  -23.6090   29.0400 C.ar  265  PHE265     -0.0003
     67  CZ        11.2820  -23.9560   30.3840 C.ar  265  PHE265     -0.0000
     68  N          9.0630  -21.1230   25.5980 N.3   267  SER267     -0.1217
     69  CA         8.7650  -22.4090   24.9980 C.3   267  SER267      0.1889
     70  C          7.7030  -22.2620   23.9270 C.2   267  SER267      0.2288
     71  O          6.9330  -21.2750   23.9010 O.2   267  SER267     -0.2866
     72  CB         8.3090  -23.4090   26.0520 C.3   267  SER267      0.2089
     73  OG         7.0000  -23.1100   26.4900 O.3   267  SER267     -0.2183
     74  N          4.6240  -24.8220   22.6360 N.3   269  GLU269     -0.1245
     75  CA         3.9370  -26.1330   22.6940 C.3   269  GLU269      0.1567
     76  C          2.8510  -26.1680   21.6250 C.2   269  GLU269      0.2260
     77  O          2.1030  -25.2000   21.4590 O.2   269  GLU269     -0.2867
     78  CB         3.3100  -26.4340   24.0750 C.3   269  GLU269      0.0388
     79  CG         4.3300  -26.6210   25.2360 C.3   269  GLU269      0.1160
     80  CD         3.7460  -27.3450   26.4670 C.2   269  GLU269      0.3649
     81  OE1        2.7810  -28.1300   26.3060 O.co2 269  GLU269     -0.2457
     82  OE2        4.2630  -27.1390   27.6000 O.co2 269  GLU269     -0.2457
     83  N         18.4360  -31.3430   26.3950 N.3   423  GLU423     -0.1231
     84  CA        17.0640  -31.5080   25.9370 C.3   423  GLU423      0.1699
     85  C         16.5520  -30.2220   25.3080 C.2   423  GLU423      0.2592
     86  O         16.7010  -29.1320   25.8920 O.2   423  GLU423     -0.2718
     87  CB        16.1500  -31.9060   27.0970 C.3   423  GLU423      0.0402
     88  CG        14.6920  -32.1210   26.6760 C.3   423  GLU423      0.1161
     89  CD        13.7280  -32.1600   27.8530 C.2   423  GLU423      0.3649
     90  OE1       14.1320  -31.8050   28.9840 O.co2 423  GLU423     -0.2457
     91  OE2       12.5530  -32.5280   27.6460 O.co2 423  GLU423     -0.2457
     92  N         15.9660  -30.3300   24.1190 N.am  424  VAL424     -0.1966
     93  CA        15.3810  -29.1550   23.4880 C.3   424  VAL424      0.1727
     94  C         13.9210  -29.3840   23.1230 C.2   424  VAL424      0.2616
     95  O         13.2170  -28.4480   22.7140 O.2   424  VAL424     -0.2715
     96  CB        16.1740  -28.7150   22.2180 C.3   424  VAL424      0.0290
     97  CG1       17.6200  -28.3420   22.5790 C.3   424  VAL424      0.0023
     98  CG2       16.1340  -29.7790   21.1220 C.3   424  VAL424      0.0023
     99  N         13.4560  -30.6140   23.3310 N.am  425  LEU425     -0.1963
    100  CA        12.1650  -31.0440   22.7960 C.3   425  LEU425      0.1728
    101  C         11.6110  -32.1900   23.6150 C.2   425  LEU425      0.2616
    102  O         12.3260  -33.1340   23.9240 O.2   425  LEU425     -0.2715
    103  CB        12.3170  -31.4430   21.3180 C.3   425  LEU425      0.0311
    104  CG        11.0790  -31.7950   20.4700 C.3   425  LEU425      0.0022
    105  CD1       11.4220  -31.7160   18.9890 C.3   425  LEU425      0.0001
    106  CD2       10.5410  -33.1780   20.7960 C.3   425  LEU425      0.0001
    107  N         10.3410  -32.0900   23.9830 N.am  426  ASN426     -0.1972
    108  CA         9.6690  -33.1590   24.7180 C.3   426  ASN426      0.1688
    109  C          8.2770  -33.3580   24.1100 C.2   426  ASN426      0.2292
    110  O          7.5370  -32.3960   23.9370 O.2   426  ASN426     -0.2864
    111  CB         9.5960  -32.8100   26.2060 C.3   426  ASN426      0.1181
    112  CG         8.9640  -33.9070   27.0440 C.2   426  ASN426      0.2629
    113  OD1        9.1920  -35.0860   26.8100 O.2   426  ASN426     -0.2716
    114  ND2        8.1930  -33.5120   28.0570 N.am  426  ASN426     -0.0877
    115  N          6.6610  -30.0000   22.7260 N.3   477  GLY477     -0.1210
    116  CA         7.2220  -28.7740   23.2660 C.3   477  GLY477      0.1956
    117  C          8.6640  -28.5860   22.8620 C.2   477  GLY477      0.2612
    118  O          9.4140  -29.5570   22.7420 O.2   477  GLY477     -0.2717
    119  N          9.0490  -27.3160   22.6800 N.am  478  LEU478     -0.1965
    120  CA        10.3860  -26.9010   22.2700 C.3   478  LEU478      0.1728
    121  C         10.8790  -25.8050   23.2060 C.2   478  LEU478      0.2616
    122  O         10.0910  -24.9180   23.6050 O.2   478  LEU478     -0.2715
    123  CB        10.3950  -26.3320   20.8430 C.3   478  LEU478      0.0311
    124  CG         9.9570  -27.1230   19.6140 C.3   478  LEU478      0.0022
    125  CD1        9.8350  -26.1810   18.4180 C.3   478  LEU478      0.0001
    126  CD2       10.9440  -28.2060   19.3050 C.3   478  LEU478      0.0001
    127  N         12.1640  -25.8670   23.5450 N.am  479  GLY479     -0.1955
    128  CA        12.8060  -24.8100   24.3050 C.3   479  GLY479      0.1869
    129  C         13.5070  -23.8770   23.3360 C.2   479  GLY479      0.2309
    130  O         14.5730  -24.1880   22.8060 O.2   479  GLY479     -0.2863
    131  N         15.0700  -20.9630   23.6640 N.3   481  ASP481     -0.1225
    132  CA        16.3890  -20.4630   24.0640 C.3   481  ASP481      0.1805
    133  C         17.5150  -21.4520   23.7660 C.2   481  ASP481      0.2597
    134  O         18.5350  -21.0760   23.2010 O.2   481  ASP481     -0.2718
    135  CB        16.3600  -20.1210   25.5460 C.3   481  ASP481      0.1424
    136  CG        15.0760  -19.4080   25.9240 C.2   481  ASP481      0.3668
    137  OD1       15.0350  -18.1600   25.7920 O.co2 481  ASP481     -0.2456
    138  OD2       14.0910  -20.1010   26.2810 O.co2 481  ASP481     -0.2456
    139  N         17.3180  -22.7200   24.1150 N.am  482  ARG482     -0.1979
    140  CA        18.3730  -23.7150   23.9270 C.3   482  ARG482      0.1597
    141  C         18.6340  -23.9700   22.4510 C.2   482  ARG482      0.2287
    142  O         19.7860  -24.0680   21.9910 O.2   482  ARG482     -0.2864
    143  CB        18.0090  -25.0050   24.6580 C.3   482  ARG482      0.0334
    144  CG        18.0920  -24.8710   26.1850 C.3   482  ARG482      0.0492
    145  CD        17.8280  -26.2210   26.8910 C.3   482  ARG482      0.2205
    146  NE        17.9170  -26.1230   28.3520 N.pl3 482  ARG482     -0.0865
    147  CZ        17.6390  -27.1240   29.1880 C.cat 482  ARG482      0.5346
    148  NH1       17.2430  -28.3000   28.7080 N.pl3 482  ARG482      0.1354
    149  NH2       17.7410  -26.9530   30.5040 N.pl3 482  ARG482      0.1354
    150  N         22.9380  -19.8200   28.0780 N.3   493  ILE493     -0.1245
    151  CA        21.6060  -19.3490   27.7620 C.3   493  ILE493      0.1561
    152  C         21.5300  -17.8110   27.9370 C.2   493  ILE493      0.2260
    153  O         20.7730  -17.1300   27.2320 O.2   493  ILE493     -0.2867
    154  CB        20.5490  -20.1060   28.6070 C.3   493  ILE493      0.0252
    155  CG1       19.1460  -19.8560   28.0640 C.3   493  ILE493      0.0019
    156  CG2       20.6690  -19.8060   30.1150 C.3   493  ILE493      0.0019
    157  CD1       18.1060  -20.7250   28.7420 C.3   493  ILE493      0.0001
@<TRIPOS>BOND
     1   125   124    1
     2   105   104    1
     3   126   124    1
     4   124   123    1
     5   104   106    1
     6   104   103    1
     7   123   120    1
     8    98    96    1
     9   103   100    1
    10    77    76    2
    11    76    75    1
    12   142   141    2
    13    96    97    1
    14    96    93    1
    15   120   119    1
    16   120   121    1
    17   141   140    1
    18    74    75    1
    19   119   117   am
    20    75    78    1
    21    95    94    2
    22   115   116    1
    23   118   117    2
    24   100    99    1
    25   100   101    1
    26   130   129    2
    27   117   116    1
    28    94    99   am
    29    94    93    1
    30   134   133    2
    31   121   127   am
    32   121   122    2
    33   129   128    1
    34    93    92    1
    35   127   128    1
    36   101   102    2
    37   101   107   am
    38   131   132    1
    39   133   132    1
    40   133   139   am
    41    71    70    2
    42   140   139    1
    43   140   143    1
    44    70    69    1
    45   110   109    2
    46   107   108    1
    47   132   135    1
    48    78    79    1
    49   109   108    1
    50    92    85   am
    51   143   144    1
    52   108   111    1
    53    69    68    1
    54    69    72    1
    55    79    80    1
    56    85    86    2
    57    85    84    1
    58   135   136    1
    59   137   136   ar
    60   136   138   ar
    61    84    83    1
    62    84    87    1
    63    72    73    1
    64   144   145    1
    65   111   112    1
    66    81    80   ar
    67    80    82   ar
    68    88    87    1
    69    88    89    1
    70   113   112    2
    71   145   146    1
    72   112   114   am
    73   153   152    2
    74    91    89   ar
    75   151   152    1
    76   151   150    1
    77   151   154    1
    78    89    90   ar
    79   155   154    1
    80   155   157    1
    81   146   147    2
    82    59    60    2
    83    59    58    1
    84   154   156    1
    85   148   147    1
    86    64    66   ar
    87    64    62   ar
    88    38    36    1
    89    66    67   ar
    90   147   149    1
    91    61    58    1
    92    61    62    1
    93    58    57    1
    94    62    63   ar
    95    36    33    1
    96    36    37    1
    97     6     5    1
    98     1     2    1
    99    33    34    1
   100    33    32    1
   101     7     5    1
   102    67    65   ar
   103    35    34    2
   104     5     2    1
   105    34    39   am
   106    63    65   ar
   107     2     3    1
   108    18    16    1
   109     4     3    2
   110    53    54    1
   111    53    50    1
   112    39    40    1
   113    17    16    1
   114    56    54   am
   115    16    15    2
   116    54    55    2
   117    49    50    1
   118    49    41   am
   119    40    41    1
   120    40    43    1
   121    52    51    2
   122    50    51    1
   123    15    14    1
   124    41    42    2
   125    47    45   ar
   126    47    48   ar
   127    45    44   ar
   128    48    46   ar
   129    44    46   ar
   130    44    43    1
   131    14    13    1
   132    13    12    1
   133    12     9    1
   134     8     9    1
   135    27    25   ar
   136     9    10    1
   137    25    26   ar
   138    25    24    1
   139    11    10    2
   140    31    30    2
   141    24    23    1
   142    30    29    1
   143    22    21    2
   144    23    20    1
   145    21    28   am
   146    21    20    1
   147    19    20    1
   148    29    28    1
