@<TRIPOS>MOLECULE
tmp/6ahfE01.pdb
 127 120 0 0 0
SMALL
GASTEIGER

@<TRIPOS>ATOM
      1  N        197.3670  133.2890  109.1280 N.3   414  GLU414     -0.1231
      2  CA       196.1290  134.0220  109.2680 C.3   414  GLU414      0.1699
      3  C        196.0500  135.2200  108.3310 C.2   414  GLU414      0.2592
      4  O        195.0130  135.4350  107.7010 O.2   414  GLU414     -0.2718
      5  CB       195.9170  134.4110  110.7150 C.3   414  GLU414      0.0402
      6  CG       196.1370  133.2250  111.6030 C.3   414  GLU414      0.1161
      7  CD       195.6150  131.9200  111.0610 C.2   414  GLU414      0.3649
      8  OE1      194.4820  131.8720  110.5590 O.co2 414  GLU414     -0.2457
      9  OE2      196.3650  130.9300  111.1180 O.co2 414  GLU414     -0.2457
     10  N        197.0860  136.0490  108.2410 N.am  415  VAL415     -0.1966
     11  CA       196.8980  137.2050  107.3670 C.3   415  VAL415      0.1727
     12  C        198.0590  137.5340  106.4340 C.2   415  VAL415      0.2616
     13  O        197.9260  137.4060  105.2170 O.2   415  VAL415     -0.2715
     14  CB       196.5090  138.4400  108.1880 C.3   415  VAL415      0.0290
     15  CG1      195.0720  138.3350  108.6590 C.3   415  VAL415      0.0023
     16  CG2      197.3920  138.5310  109.3750 C.3   415  VAL415      0.0023
     17  N        199.1820  138.0060  106.9730 N.am  416  VAL416     -0.1977
     18  CA       200.1510  138.7720  106.1980 C.3   416  VAL416      0.1596
     19  C        201.5540  138.3170  106.5800 C.2   416  VAL416      0.2287
     20  O        201.7460  137.6080  107.5630 O.2   416  VAL416     -0.2864
     21  CB       199.9850  140.2910  106.4140 C.3   416  VAL416      0.0276
     22  CG1      200.9320  141.0850  105.5670 C.3   416  VAL416      0.0022
     23  CG2      198.5630  140.7150  106.1350 C.3   416  VAL416      0.0022
     24  N        196.8940  151.2500  107.3410 N.3   450  LEU450     -0.1231
     25  CA       196.0500  150.6940  106.2970 C.3   450  LEU450      0.1693
     26  C        194.8030  150.0780  106.8930 C.2   450  LEU450      0.2593
     27  O        194.8140  149.5300  107.9930 O.2   450  LEU450     -0.2718
     28  CB       196.8000  149.6460  105.4810 C.3   450  LEU450      0.0284
     29  CG       197.9130  150.1940  104.5940 C.3   450  LEU450      0.0019
     30  CD1      198.7480  149.0850  104.0000 C.3   450  LEU450      0.0001
     31  CD2      197.2690  151.0150  103.5070 C.3   450  LEU450      0.0001
     32  N        193.7360  150.1310  106.1240 N.am  451  SER451     -0.1938
     33  CA       192.5480  149.3910  106.4700 C.3   451  SER451      0.2055
     34  C        192.3570  148.2800  105.4630 C.2   451  SER451      0.2644
     35  O        192.8480  148.3410  104.3350 O.2   451  SER451     -0.2714
     36  CB       191.3340  150.2850  106.5450 C.3   451  SER451      0.2130
     37  OG       191.4760  151.1220  107.6720 O.3   451  SER451     -0.2179
     38  N        191.6640  147.2430  105.9000 N.am  452  GLY452     -0.1939
     39  CA       191.8080  145.9910  105.2120 C.3   452  GLY452      0.2014
     40  C        193.0100  145.2170  105.6790 C.2   452  GLY452      0.2640
     41  O        193.4040  144.2610  105.0180 O.2   452  GLY452     -0.2714
     42  N        193.5870  145.5890  106.8190 N.am  453  SER453     -0.1936
     43  CA       194.9040  145.1060  107.2030 C.3   453  SER453      0.2043
     44  C        194.8960  143.9170  108.1560 C.2   453  SER453      0.2643
     45  O        195.9580  143.3440  108.3940 O.2   453  SER453     -0.2714
     46  CB       195.7030  146.2340  107.8410 C.3   453  SER453      0.1992
     47  OG       195.1800  146.5110  109.1100 O.3   453  SER453     -0.2638
     48  N        193.7590  143.5260  108.7130 N.am  454  GLY454     -0.1939
     49  CA       193.6710  142.2590  109.4130 C.3   454  GLY454      0.2014
     50  C        194.3750  142.1700  110.7460 C.2   454  GLY454      0.2639
     51  O        194.2170  141.1730  111.4510 O.2   454  GLY454     -0.2714
     52  N        195.1470  143.1700  111.1280 N.am  455  LYS455     -0.1963
     53  CA       195.8020  143.0980  112.4210 C.3   455  LYS455      0.1728
     54  C        194.7740  142.9650  113.5240 C.2   455  LYS455      0.2617
     55  O        194.9960  142.3010  114.5370 O.2   455  LYS455     -0.2715
     56  CB       196.6520  144.3300  112.5810 C.3   455  LYS455      0.0311
     57  CG       195.8110  145.5020  112.3300 C.3   455  LYS455      0.0038
     58  CD       196.6040  146.7000  112.0430 C.3   455  LYS455      0.0216
     59  CE       195.6460  147.8120  111.7320 C.3   455  LYS455      0.1214
     60  NZ       194.7950  147.4470  110.5580 N.4   455  LYS455     -0.0836
     61  N        193.6250  143.5700  113.3190 N.am  456  THR456     -0.1937
     62  CA       192.4790  143.3220  114.1550 C.3   456  THR456      0.2028
     63  C        192.2120  141.8400  114.1370 C.2   456  THR456      0.2642
     64  O        192.4730  141.1110  115.0980 O.2   456  THR456     -0.2714
     65  CB       191.2870  144.0690  113.5910 C.3   456  THR456      0.1808
     66  OG1      191.6480  145.4330  113.3880 O.3   456  THR456     -0.2208
     67  CG2      190.1620  144.0430  114.5470 C.3   456  THR456      0.0379
     68  N        191.7830  141.4160  112.9620 N.am  457  GLU457     -0.1976
     69  CA       191.5270  140.0270  112.6600 C.3   457  GLU457      0.1602
     70  C        192.6160  139.2140  113.2910 C.2   457  GLU457      0.2287
     71  O        192.3660  138.4070  114.1770 O.2   457  GLU457     -0.2864
     72  CB       191.5480  139.9250  111.1360 C.3   457  GLU457      0.0415
     73  CG       191.2630  138.6360  110.3680 C.3   457  GLU457      0.1163
     74  CD       191.5820  138.8420  108.8690 C.2   457  GLU457      0.3649
     75  OE1      192.2230  139.8650  108.5670 O.co2 457  GLU457     -0.2457
     76  OE2      191.1720  138.0360  108.0040 O.co2 457  GLU457     -0.2457
     77  N        192.1670  139.6370  116.6520 N.3   460  LYS460     -0.1245
     78  CA       190.9180  138.9390  116.7690 C.3   460  LYS460      0.1561
     79  C        191.1890  137.4710  116.6960 C.2   460  LYS460      0.2260
     80  O        190.8270  136.6990  117.5850 O.2   460  LYS460     -0.2867
     81  CB       190.0200  139.3590  115.6380 C.3   460  LYS460      0.0271
     82  CG       189.5130  140.7260  115.7260 C.3   460  LYS460      0.0035
     83  CD       188.9110  141.0210  114.4210 C.3   460  LYS460      0.0206
     84  CE       187.9030  139.9920  114.1030 C.3   460  LYS460      0.1093
     85  NZ       187.3770  140.2360  112.7710 N.3   460  LYS460     -0.1314
     86  N        194.2550  150.3590  118.3410 N.3   561  THR561     -0.1218
     87  CA       194.4620  150.8210  116.9820 C.3   561  THR561      0.1862
     88  C        194.7890  152.3030  116.9630 C.2   561  THR561      0.2287
     89  O        194.3870  153.0560  117.8490 O.2   561  THR561     -0.2866
     90  CB       193.2660  150.5880  116.1030 C.3   561  THR561      0.1770
     91  OG1      192.3030  151.6020  116.3680 O.3   561  THR561     -0.2211
     92  CG2      192.6330  149.2830  116.4870 C.3   561  THR561      0.0375
     93  N        197.0390  136.2100   99.2160 N.3   618  ILE618     -0.1245
     94  CA       196.0050  136.6480  100.1200 C.3   618  ILE618      0.1561
     95  C        194.6470  136.3060   99.5890 C.2   618  ILE618      0.2260
     96  O        193.7210  135.9500  100.3170 O.2   618  ILE618     -0.2867
     97  CB       196.1060  138.1520  100.2700 C.3   618  ILE618      0.0252
     98  CG1      197.4830  138.4990  100.7790 C.3   618  ILE618      0.0019
     99  CG2      195.0370  138.6200  101.1960 C.3   618  ILE618      0.0019
    100  CD1      197.7680  139.9580  100.6830 C.3   618  ILE618      0.0001
    101  N        192.6970  133.0510  100.5690 N.3   621  ILE621     -0.1245
    102  CA       191.8030  132.8450  101.6850 C.3   621  ILE621      0.1561
    103  C        190.3880  132.7760  101.1930 C.2   621  ILE621      0.2260
    104  O        189.7170  131.7530  101.3190 O.2   621  ILE621     -0.2867
    105  CB       191.9660  133.9480  102.7210 C.3   621  ILE621      0.0252
    106  CG1      193.3310  133.8020  103.3600 C.3   621  ILE621      0.0019
    107  CG2      190.8980  133.7850  103.7350 C.3   621  ILE621      0.0019
    108  CD1      194.3520  134.7170  102.8230 C.3   621  ILE621      0.0001
    109  N        188.3270  144.1350   99.7810 N.3   661  ARG661     -0.1245
    110  CA       187.2610  144.1420  100.7670 C.3   661  ARG661      0.1563
    111  C        185.9030  144.2660  100.1090 C.2   661  ARG661      0.2260
    112  O        185.0560  143.3880  100.3190 O.2   661  ARG661     -0.2867
    113  CB       187.4910  145.3040  101.7400 C.3   661  ARG661      0.0307
    114  CG       188.7720  145.2130  102.4360 C.3   661  ARG661      0.0489
    115  CD       188.7260  144.0840  103.3840 C.3   661  ARG661      0.2205
    116  NE       190.0450  143.8720  103.9150 N.pl3 661  ARG661     -0.0865
    117  CZ       190.9430  143.1780  103.2500 C.cat 661  ARG661      0.5346
    118  NH1      190.6080  142.7070  102.0550 N.pl3 661  ARG661      0.1354
    119  NH2      192.1480  142.9690  103.7530 N.pl3 661  ARG661      0.1354
    120  N        185.4870  141.3520   98.2190 N.3   664  ASN664     -0.1240
    121  CA       185.1040  140.2810   99.1000 C.3   664  ASN664      0.1653
    122  C        183.6220  140.0720   98.9670 C.2   664  ASN664      0.2266
    123  O        183.1690  139.0250   98.5100 O.2   664  ASN664     -0.2867
    124  CB       185.4600  140.6150  100.5220 C.3   664  ASN664      0.1155
    125  CG       186.8870  140.9210  100.6720 C.2   664  ASN664      0.2627
    126  OD1      187.6490  140.7400   99.7360 O.2   664  ASN664     -0.2716
    127  ND2      187.2940  141.3170  101.8650 N.am  664  ASN664     -0.0877
@<TRIPOS>BOND
     1   120   121    1
     2   123   122    2
     3   122   121    1
     4   121   124    1
     5    93    94    1
     6    95    94    1
     7    95    96    2
     8   126   125    2
     9   109   110    1
    10   111   112    2
    11   111   110    1
    12    94    97    1
    13    97    98    1
    14    97    99    1
    15   124   125    1
    16   101   102    1
    17   125   127   am
    18   100    98    1
    19   110   113    1
    20   103   104    2
    21   103   102    1
    22   102   105    1
    23   113   114    1
    24   118   117    1
    25   114   115    1
    26   105   106    1
    27   105   107    1
    28   108   106    1
    29   117   119    1
    30   117   116    2
    31   115   116    1
    32    31    29    1
    33    30    29    1
    34    35    34    2
    35    29    28    1
    36    41    40    2
    37    39    40    1
    38    39    38    1
    39    13    12    2
    40    34    38   am
    41    34    33    1
    42    28    25    1
    43    22    21    1
    44    40    42   am
    45    32    33    1
    46    32    26   am
    47    23    21    1
    48    18    21    1
    49    18    19    1
    50    18    17    1
    51    25    26    1
    52    25    24    1
    53    12    17   am
    54    12    11    1
    55    33    36    1
    56    36    37    1
    57    19    20    2
    58    42    43    1
    59    26    27    2
    60    43    46    1
    61    43    44    1
    62    11    14    1
    63    11    10    1
    64     4     3    2
    65    46    47    1
    66    76    74   ar
    67    44    45    2
    68    44    48   am
    69    14    15    1
    70    14    16    1
    71    10     3   am
    72     3     2    1
    73    75    74   ar
    74    48    49    1
    75    74    73    1
    76    47    60    1
    77     1     2    1
    78     2     5    1
    79    49    50    1
    80    73    72    1
    81    60    59    1
    82     8     7   ar
    83     5     6    1
    84    50    52   am
    85    50    51    2
    86     7     9   ar
    87     7     6    1
    88    52    53    1
    89    72    69    1
    90    59    58    1
    91    58    57    1
    92    57    56    1
    93    53    56    1
    94    53    54    1
    95    69    68    1
    96    69    70    1
    97    85    84    1
    98    68    63   am
    99    70    71    2
   100    61    54   am
   101    61    62    1
   102    66    65    1
   103    54    55    2
   104    65    62    1
   105    65    67    1
   106    84    83    1
   107    63    62    1
   108    63    64    2
   109    83    82    1
   110    81    82    1
   111    81    78    1
   112    90    91    1
   113    90    92    1
   114    90    87    1
   115    77    78    1
   116    79    78    1
   117    79    80    2
   118    88    87    1
   119    88    89    2
   120    87    86    1
