@<TRIPOS>MOLECULE
tmp/6ahfD00.pdb
 157 148 0 0 0
SMALL
GASTEIGER

@<TRIPOS>ATOM
      1  N        152.1430  110.5300  127.2470 N.3   179  ASP179     -0.1239
      2  CA       152.5980  110.5170  125.8730 C.3   179  ASP179      0.1674
      3  C        154.1010  110.3280  125.8680 C.2   179  ASP179      0.2266
      4  O        154.8400  111.2820  126.1710 O.2   179  ASP179     -0.2867
      5  CB       152.2010  111.8450  125.2470 C.3   179  ASP179      0.1410
      6  CG       150.7400  112.1510  125.4610 C.2   179  ASP179      0.3668
      7  OD1      149.9860  111.2220  125.8190 O.co2 179  ASP179     -0.2456
      8  OD2      150.3500  113.3230  125.3030 O.co2 179  ASP179     -0.2456
      9  N        156.6970  111.1170  124.6460 N.3   181  VAL181     -0.1231
     10  CA       157.0620  112.0610  123.6080 C.3   181  VAL181      0.1692
     11  C        158.5280  112.4030  123.8040 C.2   181  VAL181      0.2591
     12  O        158.8870  113.1570  124.7040 O.2   181  VAL181     -0.2718
     13  CB       156.1650  113.2970  123.6790 C.3   181  VAL181      0.0266
     14  CG1      154.7750  112.9520  123.3190 C.3   181  VAL181      0.0020
     15  CG2      156.1630  113.9390  125.0300 C.3   181  VAL181      0.0020
     16  N        159.3890  111.8960  122.9380 N.am  182  ILE182     -0.1980
     17  CA       160.7730  111.7670  123.3710 C.3   182  ILE182      0.1595
     18  C        161.7430  112.4790  122.4480 C.2   182  ILE182      0.2287
     19  O        161.3320  113.1800  121.5230 O.2   182  ILE182     -0.2864
     20  CB       161.1640  110.2940  123.4620 C.3   182  ILE182      0.0276
     21  CG1      161.1940  109.7190  122.0650 C.3   182  ILE182      0.0022
     22  CG2      160.1530  109.5310  124.2620 C.3   182  ILE182      0.0022
     23  CD1      161.8200  108.3830  122.0230 C.3   182  ILE182      0.0001
     24  N        164.4550  114.7910  123.0440 N.3   184  ARG184     -0.1245
     25  CA       165.2890  115.8280  123.6360 C.3   184  ARG184      0.1563
     26  C        165.4760  115.4160  125.0770 C.2   184  ARG184      0.2260
     27  O        164.5740  115.5860  125.8960 O.2   184  ARG184     -0.2867
     28  CB       164.6380  117.1960  123.5270 C.3   184  ARG184      0.0307
     29  CG       165.4260  118.3030  124.1620 C.3   184  ARG184      0.0489
     30  CD       164.6410  119.5980  124.0490 C.3   184  ARG184      0.2205
     31  NE       164.6260  120.1340  122.6910 N.pl3 184  ARG184     -0.0865
     32  CZ       165.4280  121.1020  122.2660 C.cat 184  ARG184      0.5346
     33  NH1      166.2580  121.6950  123.1100 N.pl3 184  ARG184      0.1354
     34  NH2      165.3600  121.5220  121.0200 N.pl3 184  ARG184      0.1354
     35  N        163.7370  126.3900  131.5420 N.3   206  ILE206     -0.1245
     36  CA       162.8370  126.3040  130.3930 C.3   206  ILE206      0.1561
     37  C        163.0900  127.3920  129.3420 C.2   206  ILE206      0.2260
     38  O        163.5510  128.4970  129.6230 O.2   206  ILE206     -0.2867
     39  CB       161.3260  126.2680  130.8300 C.3   206  ILE206      0.0252
     40  CG1      160.9310  124.8990  131.3680 C.3   206  ILE206      0.0019
     41  CG2      160.3650  126.5670  129.7010 C.3   206  ILE206      0.0019
     42  CD1      161.1090  123.8120  130.3620 C.3   206  ILE206      0.0001
     43  N        160.6200  127.6400  125.4040 N.3   208  GLU208     -0.1231
     44  CA       159.2040  127.6690  125.0210 C.3   208  GLU208      0.1684
     45  C        158.2970  127.0800  126.0830 C.2   208  GLU208      0.2434
     46  O        158.5880  126.0620  126.6790 O.2   208  GLU208     -0.2733
     47  CB       158.9260  126.8600  123.7610 C.3   208  GLU208      0.0402
     48  CG       159.4320  127.3900  122.4450 C.3   208  GLU208      0.1161
     49  CD       158.6930  126.7580  121.2730 C.2   208  GLU208      0.3649
     50  OE1      158.0000  125.7400  121.4760 O.co2 208  GLU208     -0.2457
     51  OE2      158.7420  127.3170  120.1650 O.co2 208  GLU208     -0.2457
     52  N        157.2140  127.7860  126.3950 N.am  209  PRO209     -0.2718
     53  CA       156.0310  127.5790  127.2150 C.3   209  PRO209      0.1535
     54  C        155.1490  126.3670  127.1210 C.2   209  PRO209      0.2599
     55  O        154.6930  125.9230  126.0830 O.2   209  PRO209     -0.2715
     56  CB       155.1920  128.7990  126.8250 C.3   209  PRO209      0.0310
     57  CG       156.2290  129.8640  126.5710 C.3   209  PRO209      0.0237
     58  CD       157.5700  129.1890  126.4860 C.3   209  PRO209      0.0939
     59  N        155.0250  125.8160  128.3030 N.am  210  GLY210     -0.1941
     60  CA       153.7400  125.4700  128.8740 C.3   210  GLY210      0.2014
     61  C        153.2050  124.0860  128.9580 C.2   210  GLY210      0.2639
     62  O        152.3960  123.7800  129.8230 O.2   210  GLY210     -0.2714
     63  N        153.6410  123.2010  128.0910 N.am  211  ILE211     -0.1963
     64  CA       153.0190  121.9070  128.1070 C.3   211  ILE211      0.1727
     65  C        153.8010  120.9480  128.9780 C.2   211  ILE211      0.2617
     66  O        153.5980  119.7450  128.9140 O.2   211  ILE211     -0.2715
     67  CB       152.7860  121.4000  126.6900 C.3   211  ILE211      0.0290
     68  CG1      152.0990  122.4890  125.9030 C.3   211  ILE211      0.0022
     69  CG2      151.7970  120.2940  126.7010 C.3   211  ILE211      0.0023
     70  CD1      153.0210  123.3290  125.0690 C.3   211  ILE211      0.0001
     71  N        154.7060  121.4620  129.7900 N.am  212  GLY212     -0.1940
     72  CA       155.2300  120.6440  130.8580 C.3   212  GLY212      0.2014
     73  C        156.2050  119.5200  130.5880 C.2   212  GLY212      0.2638
     74  O        155.8720  118.3550  130.7980 O.2   212  GLY212     -0.2714
     75  N        157.4230  119.8340  130.1610 N.am  213  LYS213     -0.1977
     76  CA       158.4260  118.7840  130.0560 C.3   213  LYS213      0.1596
     77  C        158.4740  117.9080  131.2870 C.2   213  LYS213      0.2287
     78  O        159.0710  116.8490  131.2510 O.2   213  LYS213     -0.2864
     79  CB       159.8180  119.3530  129.8830 C.3   213  LYS213      0.0298
     80  CG       159.9380  120.2660  128.7520 C.3   213  LYS213      0.0038
     81  CD       159.7860  119.5230  127.5200 C.3   213  LYS213      0.0206
     82  CE       159.8340  120.4500  126.3780 C.3   213  LYS213      0.1093
     83  NZ       158.5990  121.2350  126.3830 N.3   213  LYS213     -0.1314
     84  N        157.3320  114.8110  130.6260 N.3   216  ILE216     -0.1245
     85  CA       158.4210  114.5190  129.7210 C.3   216  ILE216      0.1561
     86  C        159.6290  114.1320  130.5330 C.2   216  ILE216      0.2260
     87  O        160.1750  113.0390  130.3900 O.2   216  ILE216     -0.2867
     88  CB       158.6960  115.7330  128.8230 C.3   216  ILE216      0.0252
     89  CG1      157.7460  115.7830  127.6400 C.3   216  ILE216      0.0019
     90  CG2      160.1620  115.8900  128.5180 C.3   216  ILE216      0.0019
     91  CD1      157.7660  117.0800  126.9500 C.3   216  ILE216      0.0001
     92  N        158.9240  113.9270  116.2080 N.3   346  ILE346     -0.1245
     93  CA       157.6040  114.0540  116.7730 C.3   346  ILE346      0.1561
     94  C        156.5940  113.7630  115.7000 C.2   346  ILE346      0.2260
     95  O        155.7600  112.8640  115.8260 O.2   346  ILE346     -0.2867
     96  CB       157.4110  115.4660  117.3150 C.3   346  ILE346      0.0252
     97  CG1      158.5030  115.7520  118.3070 C.3   346  ILE346      0.0019
     98  CG2      156.0530  115.6010  117.8960 C.3   346  ILE346      0.0019
     99  CD1      158.5890  117.1920  118.6050 C.3   346  ILE346      0.0001
    100  N        156.7340  110.6920  115.5000 N.3   349  GLY349     -0.1210
    101  CA       156.2300  110.0930  116.7160 C.3   349  GLY349      0.1956
    102  C        154.7240  110.1130  116.7640 C.2   349  GLY349      0.2611
    103  O        154.0880  109.0930  117.0060 O.2   349  GLY349     -0.2717
    104  N        154.1380  111.2270  116.3820 N.am  350  LEU350     -0.1979
    105  CA       152.7670  111.4800  116.7760 C.3   350  LEU350      0.1596
    106  C        151.7400  110.7710  115.9340 C.2   350  LEU350      0.2287
    107  O        150.6630  110.4550  116.4460 O.2   350  LEU350     -0.2864
    108  CB       152.5110  112.9680  116.7260 C.3   350  LEU350      0.0297
    109  CG       152.8660  113.5980  115.3890 C.3   350  LEU350      0.0022
    110  CD1      151.7790  113.5380  114.3250 C.3   350  LEU350      0.0001
    111  CD2      153.2530  115.0070  115.6550 C.3   350  LEU350      0.0001
    112  N        147.2120  110.6160  117.5490 N.3   354  TYR354     -0.1241
    113  CA       145.8420  111.0300  117.4410 C.3   354  TYR354      0.1605
    114  C        145.0940  110.2780  116.3750 C.2   354  TYR354      0.2264
    115  O        143.8700  110.3420  116.3440 O.2   354  TYR354     -0.2867
    116  CB       145.8070  112.5210  117.2640 C.3   354  TYR354      0.0534
    117  CG       146.3620  113.0980  118.5300 C.ar  354  TYR354     -0.0201
    118  CD1      146.2530  112.3920  119.7120 C.ar  354  TYR354     -0.0009
    119  CD2      146.9560  114.3320  118.5580 C.ar  354  TYR354     -0.0009
    120  CE1      146.7500  112.8780  120.8700 C.ar  354  TYR354      0.0417
    121  CE2      147.4380  114.8500  119.7210 C.ar  354  TYR354      0.0417
    122  CZ       147.3330  114.1170  120.8790 C.ar  354  TYR354      0.1957
    123  OH       147.8230  114.6190  122.0520 O.3   354  TYR354     -0.2866
    124  N        153.8860  128.1680  120.2150 N.3   382  ARG382     -0.1245
    125  CA       155.0820  127.3900  120.5120 C.3   382  ARG382      0.1563
    126  C        155.3190  126.3230  119.4700 C.2   382  ARG382      0.2260
    127  O        154.5600  125.3570  119.3580 O.2   382  ARG382     -0.2867
    128  CB       154.9890  126.7710  121.8980 C.3   382  ARG382      0.0307
    129  CG       155.1190  127.8130  122.9750 C.3   382  ARG382      0.0489
    130  CD       156.3630  128.5320  122.6110 C.3   382  ARG382      0.2205
    131  NE       156.9260  129.4120  123.6070 N.pl3 382  ARG382     -0.0865
    132  CZ       157.9930  130.1640  123.3640 C.cat 382  ARG382      0.5346
    133  NH1      158.5610  130.1020  122.1720 N.pl3 382  ARG382      0.1354
    134  NH2      158.5020  130.9450  124.2990 N.pl3 382  ARG382      0.1354
    135  N        156.7530  123.6080  118.0620 N.3   384  PRO384     -0.2102
    136  CA       156.2810  122.2410  117.9170 C.3   384  PRO384      0.1504
    137  C        154.8810  122.1120  118.4290 C.2   384  PRO384      0.2575
    138  O        153.9920  121.6620  117.7160 O.2   384  PRO384     -0.2718
    139  CB       157.2760  121.4590  118.7610 C.3   384  PRO384      0.0282
    140  CG       157.6460  122.4000  119.8170 C.3   384  PRO384      0.0208
    141  CD       157.6590  123.7380  119.2110 C.3   384  PRO384      0.0893
    142  N        154.6320  122.5830  119.6250 N.am  385  ASP385     -0.1974
    143  CA       153.3140  122.3150  120.1170 C.3   385  ASP385      0.1708
    144  C        152.3190  123.1650  119.3610 C.2   385  ASP385      0.2293
    145  O        151.2250  122.7050  119.0390 O.2   385  ASP385     -0.2864
    146  CB       153.3000  122.4710  121.6310 C.3   385  ASP385      0.1436
    147  CG       154.2060  121.4270  122.3250 C.2   385  ASP385      0.3671
    148  OD1      154.7910  120.6060  121.5950 O.co2 385  ASP385     -0.2456
    149  OD2      154.3060  121.3810  123.5730 O.co2 385  ASP385     -0.2456
    150  N        152.2380  121.0110  116.8110 N.3   388  LEU388     -0.1245
    151  CA       151.2580  120.0870  117.3130 C.3   388  LEU388      0.1561
    152  C        149.8800  120.6270  117.0240 C.2   388  LEU388      0.2260
    153  O        149.0150  119.9090  116.5230 O.2   388  LEU388     -0.2867
    154  CB       151.4620  119.8730  118.8070 C.3   388  LEU388      0.0270
    155  CG       152.4090  118.8640  119.4630 C.3   388  LEU388      0.0019
    156  CD1      153.8550  119.0650  119.1250 C.3   388  LEU388      0.0001
    157  CD2      152.2380  118.9690  120.9590 C.3   388  LEU388      0.0001
@<TRIPOS>BOND
     1   110   109    1
     2   109   111    1
     3   109   108    1
     4   100   101    1
     5    94    95    2
     6    94    93    1
     7   106   107    2
     8   106   105    1
     9    92    93    1
    10   115   114    2
    11   114   113    1
    12   104   102   am
    13   104   105    1
    14   153   152    2
    15   101   102    1
    16   108   105    1
    17   102   103    2
    18    93    96    1
    19   150   151    1
    20   152   151    1
    21   116   113    1
    22   116   117    1
    23   151   154    1
    24    96    98    1
    25    96    97    1
    26   113   112    1
    27   138   137    2
    28   136   135    1
    29   136   137    1
    30   136   139    1
    31   135   141    1
    32    97    99    1
    33   137   142   am
    34   117   119   ar
    35   117   118   ar
    36   119   121   ar
    37   139   140    1
    38   154   155    1
    39   145   144    2
    40   156   155    1
    41   141   140    1
    42   127   126    2
    43   144   143    1
    44   155   157    1
    45   126   125    1
    46   142   143    1
    47   118   120   ar
    48   121   122   ar
    49   143   146    1
    50    51    49   ar
    51   124   125    1
    52   125   128    1
    53   120   122   ar
    54   122   123    1
    55    34    32    1
    56    49    50   ar
    57    49    48    1
    58    19    18    2
    59   148   147   ar
    60   146   147    1
    61   128   129    1
    62    23    21    1
    63    21    20    1
    64   133   132    1
    65    32    31    2
    66    32    33    1
    67   147   149   ar
    68    48    47    1
    69    18    17    1
    70   130   129    1
    71   130   131    1
    72    31    30    1
    73    16    17    1
    74    16    11   am
    75    24    25    1
    76    14    13    1
    77   132   131    2
    78   132   134    1
    79    17    20    1
    80    20    22    1
    81    28    25    1
    82    28    29    1
    83    10    13    1
    84    10    11    1
    85    10     9    1
    86    25    26    1
    87    13    15    1
    88    47    44    1
    89    11    12    2
    90    30    29    1
    91    44    43    1
    92    44    45    1
    93    70    68    1
    94    26    27    2
    95     5     6    1
    96     5     2    1
    97     8     6   ar
    98     6     7   ar
    99     3     2    1
   100     3     4    2
   101     2     1    1
   102    68    67    1
   103    45    52   am
   104    45    46    2
   105    55    54    2
   106    82    83    1
   107    82    81    1
   108    52    58    1
   109    52    53    1
   110    58    57    1
   111    57    56    1
   112    67    69    1
   113    67    64    1
   114    56    53    1
   115    91    89    1
   116    54    53    1
   117    54    59   am
   118    81    80    1
   119    89    88    1
   120    63    64    1
   121    63    61   am
   122    64    65    1
   123    59    60    1
   124    90    88    1
   125    80    79    1
   126    88    85    1
   127    60    61    1
   128    66    65    2
   129    61    62    2
   130    65    71   am
   131    37    38    2
   132    37    36    1
   133    41    39    1
   134    85    86    1
   135    85    84    1
   136    71    72    1
   137    79    76    1
   138    76    75    1
   139    76    77    1
   140    75    73   am
   141    42    40    1
   142    87    86    2
   143    36    39    1
   144    36    35    1
   145    73    74    2
   146    73    72    1
   147    39    40    1
   148    78    77    2
