@<TRIPOS>MOLECULE
tmp/6ahiB00.pdb
 94 89 0 0 0
SMALL
GASTEIGER

@<TRIPOS>ATOM
      1  N         -1.6420  -13.4460   -0.4390 N.3    72  THR72      -0.1203
      2  CA        -0.4020  -14.1070   -0.0030 C.3    72  THR72       0.1994
      3  C          0.6200  -13.0530    0.4140 C.2    72  THR72       0.2618
      4  O          0.5770  -11.9300   -0.0580 O.2    72  THR72      -0.2717
      5  CB         0.1270  -15.0550   -1.1000 C.3    72  THR72       0.1784
      6  OG1        1.4320  -15.5440   -0.7740 O.3    72  THR72      -0.2211
      7  CG2        0.2420  -14.4280   -2.4620 C.3    72  THR72       0.0376
      8  N          1.5290  -13.4430    1.3130 N.am   73  ALA73      -0.1965
      9  CA         2.7420  -12.6740    1.6680 C.3    73  ALA73       0.1728
     10  C          3.8340  -12.8620    0.6020 C.2    73  ALA73       0.2617
     11  O          4.7710  -12.1310    0.5740 O.2    73  ALA73      -0.2715
     12  CB         3.2810  -13.0990    3.0130 C.3    73  ALA73       0.0334
     13  N          3.6700  -13.8340   -0.2910 N.am   74  GLY74      -0.1940
     14  CA         4.5870  -14.0060   -1.3860 C.3    74  GLY74       0.2014
     15  C          4.7760  -15.4500   -1.8080 C.2    74  GLY74       0.2639
     16  O          4.6240  -15.7580   -2.9740 O.2    74  GLY74      -0.2714
     17  N          5.1480  -16.3140   -0.8650 N.am   75  ASN75      -0.1958
     18  CA         5.6270  -17.6640   -1.1800 C.3    75  ASN75       0.1819
     19  C          4.4950  -18.5210   -1.7390 C.2    75  ASN75       0.2621
     20  O          4.7240  -19.3250   -2.6410 O.2    75  ASN75      -0.2715
     21  CB         6.3100  -18.3270    0.0190 C.3    75  ASN75       0.1195
     22  CG         7.7010  -17.7840    0.2790 C.2    75  ASN75       0.2630
     23  OD1        8.4330  -17.4670   -0.6540 O.2    75  ASN75      -0.2716
     24  ND2        8.0690  -17.6640    1.5370 N.am   75  ASN75      -0.0877
     25  N          3.2750  -18.3480   -1.2200 N.am   76  THR76      -0.1951
     26  CA         2.1830  -19.1650   -1.7170 C.3    76  THR76       0.1897
     27  C          1.9220  -18.7730   -3.1880 C.2    76  THR76       0.2313
     28  O          1.6050  -19.6090   -3.9980 O.2    76  THR76      -0.2863
     29  CB         0.9400  -19.0830   -0.8110 C.3    76  THR76       0.1794
     30  OG1        1.1970  -19.7240    0.4370 O.3    76  THR76      -0.2208
     31  CG2       -0.2400  -19.7900   -1.4320 C.3    76  THR76       0.0378
     32  N          9.8150  -11.3100   -4.0110 N.3   103  LYS103     -0.1245
     33  CA         8.7940  -12.3120   -4.2160 C.3   103  LYS103      0.1561
     34  C          7.7790  -11.8480   -5.2550 C.2   103  LYS103      0.2260
     35  O          7.3000  -12.6580   -6.0510 O.2   103  LYS103     -0.2867
     36  CB         8.0750  -12.6790   -2.9230 C.3   103  LYS103      0.0271
     37  CG         8.9060  -13.4910   -1.9440 C.3   103  LYS103      0.0035
     38  CD         8.1520  -13.7580   -0.6660 C.3   103  LYS103      0.0206
     39  CE         9.0420  -14.0120    0.5150 C.3   103  LYS103      0.1093
     40  NZ         8.2830  -13.8850    1.7890 N.3   103  LYS103     -0.1314
     41  N         -2.6520   -9.0060    6.0730 N.3   123  ILE123     -0.1245
     42  CA        -3.1620  -10.1060    5.3150 C.3   123  ILE123      0.1561
     43  C         -4.6900  -10.0730    5.2720 C.2   123  ILE123      0.2260
     44  O         -5.2640  -10.4530    4.2580 O.2   123  ILE123     -0.2867
     45  CB        -2.6060  -11.4360    5.8650 C.3   123  ILE123      0.0252
     46  CG1       -1.5640  -12.0080    4.9090 C.3   123  ILE123      0.0019
     47  CG2       -3.7130  -12.4230    6.1920 C.3   123  ILE123      0.0019
     48  CD1       -2.1130  -12.3850    3.5450 C.3   123  ILE123      0.0001
     49  N         -6.1360  -20.1070    1.6380 N.3   145  GLN145     -0.1231
     50  CA        -5.2290  -20.9350    2.4080 C.3   145  GLN145      0.1698
     51  C         -5.5040  -20.6970    3.8950 C.2   145  GLN145      0.2592
     52  O         -5.3510  -21.6170    4.7050 O.2   145  GLN145     -0.2718
     53  CB        -3.7720  -20.6490    2.0260 C.3   145  GLN145      0.0381
     54  CG        -3.2180  -19.3330    2.5630 C.3   145  GLN145      0.0905
     55  CD        -1.8930  -18.9430    1.9420 C.2   145  GLN145      0.2608
     56  OE1       -0.8870  -19.6400    2.0840 O.2   145  GLN145     -0.2717
     57  NE2       -1.8850  -17.7970    1.2690 N.am  145  GLN145     -0.0878
     58  N         -5.9270  -19.4710    4.2420 N.am  146  PHE146     -0.1976
     59  CA        -6.0960  -19.0790    5.6470 C.3   146  PHE146      0.1639
     60  C         -7.2560  -19.8210    6.3270 C.2   146  PHE146      0.2290
     61  O         -7.3050  -19.8230    7.5420 O.2   146  PHE146     -0.2864
     62  CB        -6.1620  -17.5510    5.7470 C.3   146  PHE146      0.0560
     63  CG        -4.8010  -16.9550    5.4910 C.ar  146  PHE146     -0.0200
     64  CD1       -3.8490  -16.9690    6.4930 C.ar  146  PHE146     -0.0042
     65  CD2       -4.4560  -16.4200    4.2570 C.ar  146  PHE146     -0.0042
     66  CE1       -2.5670  -16.4810    6.2740 C.ar  146  PHE146     -0.0003
     67  CE2       -3.1700  -15.9460    4.0340 C.ar  146  PHE146     -0.0003
     68  CZ        -2.2280  -15.9740    5.0420 C.ar  146  PHE146     -0.0000
     69  N          2.2150  -19.0210   10.1420 N.3   179  GLY179     -0.1210
     70  CA         1.5530  -17.9680    9.4090 C.3   179  GLY179      0.1956
     71  C          0.0770  -18.2820    9.2580 C.2   179  GLY179      0.2612
     72  O         -0.7130  -17.8590   10.0570 O.2   179  GLY179     -0.2717
     73  N         -0.2780  -19.0350    8.2160 N.am  180  SER180     -0.1952
     74  CA        -1.6120  -19.6020    8.0670 C.3   180  SER180      0.1924
     75  C         -1.8690  -20.6910    9.1180 C.2   180  SER180      0.2314
     76  O         -2.9820  -20.9490    9.4970 O.2   180  SER180     -0.2863
     77  CB        -1.8030  -20.1370    6.6840 C.3   180  SER180      0.2116
     78  OG        -0.9660  -21.2750    6.4560 O.3   180  SER180     -0.2180
     79  N          6.9120  -13.8880    7.2150 N.3   222  GLY222     -0.1225
     80  CA         6.3560  -15.1680    6.8250 C.3   222  GLY222      0.1811
     81  C          5.5260  -15.7760    7.9470 C.2   222  GLY222      0.2280
     82  O          4.5740  -16.5330    7.7120 O.2   222  GLY222     -0.2866
     83  N         15.1480  -11.6750    0.5790 N.3   298  TYR298     -0.1241
     84  CA        15.0980  -10.6200    1.5950 C.3   298  TYR298      0.1605
     85  C         16.3450   -9.7580    1.5640 C.2   298  TYR298      0.2264
     86  O         16.5160   -8.9190    2.4570 O.2   298  TYR298     -0.2867
     87  CB        14.9090  -11.2050    2.9980 C.3   298  TYR298      0.0534
     88  CG        13.7210  -12.1120    3.0910 C.ar  298  TYR298     -0.0201
     89  CD1       12.4320  -11.6100    3.2400 C.ar  298  TYR298     -0.0009
     90  CD2       13.8980  -13.4820    3.0220 C.ar  298  TYR298     -0.0009
     91  CE1       11.3380  -12.4580    3.3070 C.ar  298  TYR298      0.0417
     92  CE2       12.8170  -14.3370    3.0900 C.ar  298  TYR298      0.0417
     93  CZ        11.5410  -13.8290    3.2540 C.ar  298  TYR298      0.1957
     94  OH        10.5080  -14.7140    3.3410 O.3   298  TYR298     -0.2866
@<TRIPOS>BOND
     1    35    34    2
     2    34    33    1
     3    33    32    1
     4    33    36    1
     5    28    27    2
     6    27    26    1
     7    16    15    2
     8    36    37    1
     9    20    19    2
    10     7     5    1
    11    37    38    1
    12    15    14    1
    13    15    17   am
    14    19    25   am
    15    19    18    1
    16    26    25    1
    17    26    29    1
    18    31    29    1
    19    14    13    1
    20    18    17    1
    21    18    21    1
    22     5     6    1
    23     5     2    1
    24    29    30    1
    25    38    39    1
    26    23    22    2
    27     1     2    1
    28    13    10   am
    29     4     3    2
    30     2     3    1
    31    21    22    1
    32    22    24   am
    33     3     8   am
    34    39    40    1
    35    11    10    2
    36    83    84    1
    37    10     9    1
    38    57    55   am
    39     8     9    1
    40    85    84    1
    41    85    86    2
    42    84    87    1
    43    49    50    1
    44     9    12    1
    45    55    56    2
    46    55    54    1
    47    53    50    1
    48    53    54    1
    49    50    51    1
    50    87    88    1
    51    90    92   ar
    52    90    88   ar
    53    92    93   ar
    54    88    89   ar
    55    89    91   ar
    56    93    91   ar
    57    93    94    1
    58    48    46    1
    59    51    58   am
    60    51    52    2
    61    67    65   ar
    62    67    68   ar
    63    58    59    1
    64    65    63   ar
    65    44    43    2
    66    46    45    1
    67    68    66   ar
    68    43    42    1
    69    42    45    1
    70    42    41    1
    71    63    62    1
    72    63    64   ar
    73    59    62    1
    74    59    60    1
    75    45    47    1
    76    66    64   ar
    77    60    61    2
    78    78    77    1
    79    77    74    1
    80    80    79    1
    81    80    81    1
    82    82    81    2
    83    74    73    1
    84    74    75    1
    85    73    71   am
    86    75    76    2
    87    71    70    1
    88    71    72    2
    89    70    69    1
