@<TRIPOS>MOLECULE
tmp/6ahsA00.pdb
 139 137 0 0 0
SMALL
GASTEIGER

@<TRIPOS>ATOM
      1  N        -15.5140   33.4900   50.3580 N.3    41  HIS41      -0.1241
      2  CA       -14.2130   33.3010   51.0480 C.3    41  HIS41       0.1621
      3  C        -13.0520   33.2030   50.0650 C.2    41  HIS41       0.2264
      4  O        -11.8800   33.2470   50.4270 O.2    41  HIS41      -0.2867
      5  CB       -14.2350   32.0990   52.0390 C.3    41  HIS41       0.0745
      6  CG       -14.1580   30.7330   51.3930 C.ar   41  HIS41       0.0817
      7  ND1      -15.2820   29.9820   51.1170 N.ar   41  HIS41      -0.2268
      8  CD2      -13.0960   29.9230   51.1430 C.ar   41  HIS41       0.1154
      9  CE1      -14.9180   28.7870   50.6860 C.ar   41  HIS41       0.1986
     10  NE2      -13.6020   28.7270   50.6770 N.ar   41  HIS41      -0.2212
     11  N        -22.1850   38.1040   54.1560 N.3    75  TYR75      -0.1241
     12  CA       -21.1040   37.1220   54.3060 C.3    75  TYR75       0.1605
     13  C        -20.4310   37.3060   55.6510 C.2    75  TYR75       0.2264
     14  O        -20.0420   38.4230   56.0110 O.2    75  TYR75      -0.2867
     15  CB       -20.0410   37.3160   53.2440 C.3    75  TYR75       0.0534
     16  CG       -18.7660   36.5390   53.5100 C.ar   75  TYR75      -0.0201
     17  CD1      -18.7850   35.1500   53.6080 C.ar   75  TYR75      -0.0009
     18  CD2      -17.5490   37.1730   53.5850 C.ar   75  TYR75      -0.0009
     19  CE1      -17.6490   34.4470   53.9130 C.ar   75  TYR75       0.0417
     20  CE2      -16.3850   36.4710   53.8280 C.ar   75  TYR75       0.0417
     21  CZ       -16.4450   35.1080   53.9790 C.ar   75  TYR75       0.1957
     22  OH       -15.3110   34.3990   54.1970 O.3    75  TYR75      -0.2866
     23  N        -19.6630   31.9790   58.6350 N.3    80  HIS80      -0.1241
     24  CA       -19.5770   31.4450   57.2630 C.3    80  HIS80       0.1621
     25  C        -20.8900   31.4460   56.5180 C.2    80  HIS80       0.2264
     26  O        -20.9840   30.9110   55.4230 O.2    80  HIS80      -0.2867
     27  CB       -18.9680   30.0570   57.2380 C.3    80  HIS80       0.0745
     28  CG       -17.7340   29.9200   58.0750 C.ar   80  HIS80       0.0817
     29  ND1      -16.5960   30.6730   57.8520 N.ar   80  HIS80      -0.2268
     30  CD2      -17.5260   29.2650   59.2450 C.ar   80  HIS80       0.1154
     31  CE1      -15.7140   30.4270   58.8010 C.ar   80  HIS80       0.1986
     32  NE2      -16.2470   29.5620   59.6540 N.ar   80  HIS80      -0.2212
     33  N        -21.8700   32.5740   52.0420 N.3    83  ASP83      -0.1239
     34  CA       -20.6210   32.4120   51.4540 C.3    83  ASP83       0.1674
     35  C        -20.7910   32.3360   49.9170 C.2    83  ASP83       0.2266
     36  O        -20.7170   31.2420   49.3540 O.2    83  ASP83      -0.2867
     37  CB       -19.9690   31.1470   51.9400 C.3    83  ASP83       0.1410
     38  CG       -18.5030   31.0600   51.5930 C.2    83  ASP83       0.3668
     39  OD1      -17.9330   32.0630   51.0910 O.co2  83  ASP83      -0.2456
     40  OD2      -17.9180   29.9330   51.7420 O.co2  83  ASP83      -0.2456
     41  N        -15.7000   13.3300   48.6360 N.3   170  ASN170     -0.1225
     42  CA       -15.9900   14.6570   49.2100 C.3   170  ASN170      0.1785
     43  C        -15.0670   15.7200   48.6660 C.2   170  ASN170      0.2598
     44  O        -14.1610   15.4400   47.8990 O.2   170  ASN170     -0.2718
     45  CB       -15.8660   14.6410   50.7560 C.3   170  ASN170      0.1169
     46  CG       -16.9810   15.3860   51.4100 C.2   170  ASN170      0.2627
     47  OD1      -17.3430   16.4490   50.9520 O.2   170  ASN170     -0.2716
     48  ND2      -17.4070   14.9290   52.6160 N.am  170  ASN170     -0.0877
     49  N        -15.3700   16.9620   49.0170 N.am  171  THR171     -0.1939
     50  CA       -14.5570   18.1060   48.6920 C.3   171  THR171      0.2028
     51  C        -13.3770   18.2990   49.6480 C.2   171  THR171      0.2642
     52  O        -13.3970   17.7910   50.8260 O.2   171  THR171     -0.2714
     53  CB       -15.4400   19.3930   48.7370 C.3   171  THR171      0.1808
     54  OG1      -16.0700   19.5020   50.0660 O.3   171  THR171     -0.2208
     55  CG2      -16.4960   19.3440   47.7240 C.3   171  THR171      0.0379
     56  N        -12.4130   19.1030   49.2200 N.am  172  CYS172     -0.1953
     57  CA       -11.2660   19.4550   50.0350 C.3   172  CYS172      0.1843
     58  C        -10.5600   20.7740   49.5610 C.2   172  CYS172      0.2625
     59  O        -11.0000   21.3860   48.6200 O.2   172  CYS172     -0.2714
     60  CB       -10.2880   18.2840   50.0210 C.3   172  CYS172      0.0997
     61  SG        -9.1040   18.2550   51.3530 S.3   172  CYS172     -0.0797
     62  N         -9.4880   21.1880   50.2560 N.am  173  ASN173     -0.1972
     63  CA        -8.7740   22.4290   49.9520 C.3   173  ASN173      0.1688
     64  C         -8.5460   22.5870   48.4460 C.2   173  ASN173      0.2292
     65  O         -7.9430   21.6910   47.8320 O.2   173  ASN173     -0.2864
     66  CB        -7.3700   22.4060   50.6180 C.3   173  ASN173      0.1181
     67  CG        -7.4250   22.2330   52.1080 C.2   173  ASN173      0.2629
     68  OD1       -7.8610   21.1720   52.6280 O.2   173  ASN173     -0.2716
     69  ND2       -6.9510   23.2600   52.8430 N.am  173  ASN173     -0.0877
     70  N        -13.0380   24.7930   47.0080 N.3   176  SER176     -0.1217
     71  CA       -13.8470   25.9860   47.3930 C.3   176  SER176      0.1889
     72  C        -14.3490   26.7470   46.2450 C.2   176  SER176      0.2288
     73  O        -13.5560   27.0470   45.3640 O.2   176  SER176     -0.2866
     74  CB       -12.9750   26.9780   48.1380 C.3   176  SER176      0.2089
     75  OG       -12.6600   26.4770   49.3720 O.3   176  SER176     -0.2183
     76  N        -19.1140   25.1090   46.6920 N.3   190  VAL190     -0.1231
     77  CA       -18.3610   24.4220   47.7640 C.3   190  VAL190      0.1692
     78  C        -17.9620   25.4650   48.8570 C.2   190  VAL190      0.2593
     79  O        -17.3290   26.4710   48.5380 O.2   190  VAL190     -0.2718
     80  CB       -17.1050   23.7940   47.1880 C.3   190  VAL190      0.0266
     81  CG1      -16.1960   23.2280   48.3060 C.3   190  VAL190      0.0020
     82  CG2      -17.4880   22.7150   46.2270 C.3   190  VAL190      0.0020
     83  N        -18.2670   25.2020   50.1410 N.am  191  SER191     -0.1938
     84  CA       -18.0260   26.2030   51.1770 C.3   191  SER191      0.2055
     85  C        -17.0470   25.7490   52.2640 C.2   191  SER191      0.2643
     86  O        -16.0070   26.3930   52.4980 O.2   191  SER191     -0.2714
     87  CB       -19.3510   26.6440   51.8160 C.3   191  SER191      0.2130
     88  OG       -19.1950   27.8400   52.4900 O.3   191  SER191     -0.2179
     89  N        -17.4010   24.6800   52.9280 N.am  192  TRP192     -0.1959
     90  CA       -16.5570   24.0760   53.8830 C.3   192  TRP192      0.1771
     91  C        -16.9150   22.6080   54.1790 C.2   192  TRP192      0.2620
     92  O        -17.6910   21.9820   53.4430 O.2   192  TRP192     -0.2715
     93  CB       -16.5800   24.9350   55.1960 C.3   192  TRP192      0.0590
     94  CG       -17.9200   25.1390   55.7970 C.ar  192  TRP192      0.0006
     95  CD1      -18.8200   26.0690   55.4510 C.ar  192  TRP192      0.0946
     96  CD2      -18.4380   24.5240   57.0280 C.ar  192  TRP192      0.0152
     97  NE1      -19.9280   25.9780   56.2520 N.ar  192  TRP192     -0.2442
     98  CE2      -19.7260   25.0310   57.2150 C.ar  192  TRP192      0.0810
     99  CE3      -18.0450   23.4580   57.7930 C.ar  192  TRP192      0.0012
    100  CZ2      -20.5340   24.6570   58.2980 C.ar  192  TRP192      0.0191
    101  CZ3      -18.8560   23.0770   58.8900 C.ar  192  TRP192      0.0001
    102  CH2      -20.0900   23.6380   59.0830 C.ar  192  TRP192      0.0015
    103  N        -16.2390   22.0370   55.1820 N.am  193  GLY193     -0.1940
    104  CA       -16.4910   20.6390   55.6290 C.3   193  GLY193      0.2014
    105  C        -15.6630   20.4120   56.8730 C.2   193  GLY193      0.2640
    106  O        -15.2580   21.3750   57.5290 O.2   193  GLY193     -0.2714
    107  N        -15.3240   19.1610   57.1630 N.am  194  THR194     -0.1936
    108  CA       -14.4590   18.8780   58.2880 C.3   194  THR194      0.2028
    109  C        -13.0680   18.5940   57.7970 C.2   194  THR194      0.2642
    110  O        -12.8450   18.2650   56.6080 O.2   194  THR194     -0.2714
    111  CB       -14.9890   17.7060   59.1680 C.3   194  THR194      0.1808
    112  OG1      -14.8650   16.4870   58.4630 O.3   194  THR194     -0.2208
    113  CG2      -16.4090   17.9120   59.5040 C.3   194  THR194      0.0379
    114  N        -12.1090   18.9580   58.6020 N.am  195  TYR195     -0.1973
    115  CA       -10.7270   18.7620   58.2590 C.3   195  TYR195      0.1639
    116  C        -10.1260   17.8440   59.3220 C.2   195  TYR195      0.2290
    117  O        -10.3610   18.0830   60.4910 O.2   195  TYR195     -0.2864
    118  CB       -10.0200   20.1120   58.2630 C.3   195  TYR195      0.0560
    119  CG        -8.5700   20.0120   58.0080 C.ar  195  TYR195     -0.0198
    120  CD1       -7.6870   19.8700   59.0520 C.ar  195  TYR195     -0.0009
    121  CD2       -8.0660   20.0180   56.7120 C.ar  195  TYR195     -0.0009
    122  CE1       -6.3340   19.7440   58.8360 C.ar  195  TYR195      0.0417
    123  CE2       -6.7240   19.8340   56.4780 C.ar  195  TYR195      0.0417
    124  CZ        -5.8550   19.7220   57.5720 C.ar  195  TYR195      0.1957
    125  OH        -4.5150   19.5330   57.3970 O.3   195  TYR195     -0.2866
    126  N        -10.1200   16.2600   55.4380 N.3   197  CYS197     -0.1221
    127  CA       -11.2210   16.0300   54.5130 C.3   197  CYS197      0.1808
    128  C        -11.5330   14.5460   54.3720 C.2   197  CYS197      0.2601
    129  O        -10.6770   13.7100   54.5540 O.2   197  CYS197     -0.2717
    130  CB       -10.8560   16.5860   53.1330 C.3   197  CYS197      0.0970
    131  SG       -10.2390   18.2830   53.0910 S.3   197  CYS197     -0.0800
    132  N        -12.7390   14.2250   53.9340 N.am  198  GLY198     -0.1957
    133  CA       -12.9870   12.8960   53.4050 C.3   198  GLY198      0.1869
    134  C        -13.0670   11.8850   54.5300 C.2   198  GLY198      0.2309
    135  O        -12.8580   10.7040   54.3130 O.2   198  GLY198     -0.2863
    136  N        -19.9990   17.3300   53.1790 N.3   204  GLY204     -0.1225
    137  CA       -19.5580   18.6110   52.6800 C.3   204  GLY204      0.1811
    138  C        -20.6500   19.6550   52.8350 C.2   204  GLY204      0.2280
    139  O        -21.8270   19.3240   52.7160 O.2   204  GLY204     -0.2866
@<TRIPOS>BOND
     1    73    72    2
     2    82    80    1
     3    72    71    1
     4    76    77    1
     5    70    71    1
     6    80    77    1
     7    80    81    1
     8    71    74    1
     9    55    53    1
    10    77    78    1
    11    65    64    2
    12    44    43    2
    13    74    75    1
    14    64    63    1
    15    79    78    2
    16    59    58    2
    17    41    42    1
    18    43    49   am
    19    43    42    1
    20    50    53    1
    21    50    49    1
    22    50    51    1
    23    53    54    1
    24    78    83   am
    25    42    45    1
    26    56    51   am
    27    56    57    1
    28    36    35    2
    29    58    57    1
    30    58    62   am
    31    51    52    2
    32    35    34    1
    33    63    62    1
    34    63    66    1
    35    60    57    1
    36    60    61    1
    37     3     4    2
    38     3     2    1
    39    83    84    1
    40     1     2    1
    41    66    67    1
    42    10     9   ar
    43    10     8   ar
    44     9     7   ar
    45    45    46    1
    46    47    46    2
    47     2     5    1
    48    39    38   ar
    49     7     6   ar
    50     8     6   ar
    51    84    87    1
    52    84    85    1
    53    61   131    1
    54     6     5    1
    55    46    48   am
    56    34    37    1
    57    34    33    1
    58    38    40   ar
    59    38    37    1
    60    87    88    1
    61    67    68    2
    62    67    69   am
    63    85    86    2
    64    85    89   am
    65   137   138    1
    66   137   136    1
    67   139   138    2
    68    89    90    1
    69   131   130    1
    70   130   127    1
    71    15    16    1
    72    15    12    1
    73   133   132    1
    74   133   134    1
    75    92    91    2
    76    16    18   ar
    77    16    17   ar
    78    18    20   ar
    79    17    19   ar
    80    20    21   ar
    81    90    91    1
    82    90    93    1
    83    19    21   ar
    84   132   128   am
    85    21    22    1
    86    11    12    1
    87    91   103   am
    88    12    13    1
    89   135   134    2
    90   128   127    1
    91   128   129    2
    92   127   126    1
    93   103   104    1
    94    93    94    1
    95    26    25    2
    96    95    94   ar
    97    95    97   ar
    98   104   105    1
    99    13    14    2
   100    94    96   ar
   101    97    98   ar
   102   123   121   ar
   103   123   124   ar
   104    25    24    1
   105   110   109    2
   106   121   119   ar
   107   105   107   am
   108   105   106    2
   109    96    98   ar
   110    96    99   ar
   111   107   108    1
   112    98   100   ar
   113    27    24    1
   114    27    28    1
   115    24    23    1
   116   125   124    1
   117   124   122   ar
   118    99   101   ar
   119   109   108    1
   120   109   114   am
   121    29    28   ar
   122    29    31   ar
   123   119   118    1
   124   119   120   ar
   125    28    30   ar
   126   115   118    1
   127   115   114    1
   128   115   116    1
   129   108   111    1
   130   100   102   ar
   131   112   111    1
   132    31    32   ar
   133   122   120   ar
   134   101   102   ar
   135   111   113    1
   136    30    32   ar
   137   116   117    2
