@<TRIPOS>MOLECULE
tmp/6aicA00.pdb
 135 131 0 0 0
SMALL
GASTEIGER

@<TRIPOS>ATOM
      1  N        -18.1430   -7.0840    5.2620 N.3     2  PHE2       -0.1241
      2  CA       -17.3630   -7.8170    4.2490 C.3     2  PHE2        0.1605
      3  C        -17.9800   -9.1860    3.9640 C.2     2  PHE2        0.2264
      4  O        -18.0230   -9.6120    2.8130 O.2     2  PHE2       -0.2867
      5  CB       -15.8830   -7.9400    4.6290 C.3     2  PHE2        0.0534
      6  CG       -15.1050   -6.6620    4.5180 C.ar    2  PHE2       -0.0203
      7  CD1      -14.7520   -6.1510    3.2660 C.ar    2  PHE2       -0.0042
      8  CD2      -14.6900   -5.9890    5.6520 C.ar    2  PHE2       -0.0042
      9  CE1      -14.0040   -4.9910    3.1570 C.ar    2  PHE2       -0.0003
     10  CE2      -13.9360   -4.8250    5.5500 C.ar    2  PHE2       -0.0003
     11  CZ       -13.5830   -4.3370    4.3050 C.ar    2  PHE2       -0.0000
     12  N         -7.7940   -4.0430   11.4720 N.3    19  GLY19      -0.1210
     13  CA        -8.6000   -2.8810   11.8320 C.3    19  GLY19       0.1956
     14  C         -9.6640   -2.5070   10.8170 C.2    19  GLY19       0.2612
     15  O        -10.2390   -1.4270   10.9250 O.2    19  GLY19      -0.2717
     16  N         -9.9440   -3.3740    9.8410 N.am   20  PHE20      -0.1962
     17  CA       -10.9680   -3.0820    8.8250 C.3    20  PHE20       0.1771
     18  C        -12.3220   -3.5300    9.3960 C.2    20  PHE20       0.2619
     19  O        -12.7630   -4.6610    9.1720 O.2    20  PHE20      -0.2715
     20  CB       -10.6820   -3.7610    7.4800 C.3    20  PHE20       0.0574
     21  CG        -9.5330   -3.1720    6.6830 C.ar   20  PHE20      -0.0200
     22  CD1       -8.5340   -2.3850    7.2650 C.ar   20  PHE20      -0.0042
     23  CD2       -9.4330   -3.4510    5.3230 C.ar   20  PHE20      -0.0042
     24  CE1       -7.4820   -1.8980    6.5060 C.ar   20  PHE20      -0.0003
     25  CE2       -8.3930   -2.9550    4.5560 C.ar   20  PHE20      -0.0003
     26  CZ        -7.4050   -2.1800    5.1510 C.ar   20  PHE20      -0.0000
     27  N        -12.9610   -2.6360   10.1380 N.am   21  LYS21      -0.1963
     28  CA       -14.2420   -2.9580   10.8100 C.3    21  LYS21       0.1728
     29  C        -15.4490   -2.9290    9.8710 C.2    21  LYS21       0.2616
     30  O        -16.4190   -3.6620   10.0890 O.2    21  LYS21      -0.2715
     31  CB       -14.5040   -1.9920   11.9610 C.3    21  LYS21       0.0311
     32  CG       -13.4830   -2.0440   13.0940 C.3    21  LYS21       0.0038
     33  CD       -13.7990   -1.0110   14.1860 C.3    21  LYS21       0.0206
     34  CE       -12.5360   -0.3820   14.7660 C.3    21  LYS21       0.1093
     35  NZ       -11.6250   -1.4020   15.3530 N.3    21  LYS21      -0.1314
     36  N        -15.3970   -2.0570    8.8710 N.am   22  GLU22      -0.1964
     37  CA       -16.4870   -1.8440    7.9300 C.3    22  GLU22       0.1722
     38  C        -15.8390   -1.5300    6.5880 C.2    22  GLU22       0.2496
     39  O        -14.8210   -0.8310    6.5640 O.2    22  GLU22      -0.2727
     40  CB       -17.2570   -0.6160    8.3980 C.3    22  GLU22       0.0428
     41  CG       -18.6830   -0.5230    7.9490 C.3    22  GLU22       0.1163
     42  CD       -19.4090    0.5380    8.7470 C.2    22  GLU22       0.3649
     43  OE1      -20.3920    0.1960    9.4430 O.co2  22  GLU22      -0.2457
     44  OE2      -18.9460    1.7010    8.7230 O.co2  22  GLU22      -0.2457
     45  N        -16.4400   -1.9880    5.4780 N.am   23  PRO23      -0.2490
     46  CA       -15.8670   -1.6030    4.1640 C.3    23  PRO23       0.1619
     47  C        -16.0120   -0.1210    3.8990 C.2    23  PRO23       0.2605
     48  O        -17.0080    0.4790    4.3380 O.2    23  PRO23      -0.2715
     49  CB       -16.6730   -2.4000    3.1460 C.3    23  PRO23       0.0570
     50  CG       -17.7220   -3.1490    3.9040 C.2    23  PRO23      -0.0077
     51  CD       -17.5870   -2.8990    5.3650 C.2    23  PRO23       0.0634
     52  N        -15.0440    0.4530    3.1920 N.am   24  THR24      -0.1951
     53  CA       -15.1370    1.8310    2.6930 C.3    24  THR24       0.1897
     54  C        -16.1620    1.9290    1.5450 C.2    24  THR24       0.2313
     55  O        -16.5320    0.9060    0.9580 O.2    24  THR24      -0.2863
     56  CB       -13.7990    2.3890    2.1820 C.3    24  THR24       0.1794
     57  OG1      -13.3950    1.7180    0.9820 O.3    24  THR24      -0.2208
     58  CG2      -12.7070    2.2940    3.2310 C.3    24  THR24       0.0378
     59  N        -15.0140    0.1460   -1.5570 N.3    27  GLN27      -0.1245
     60  CA       -15.0020   -1.3150   -1.3530 C.3    27  GLN27       0.1566
     61  C        -16.4060   -1.8750   -1.4500 C.2    27  GLN27       0.2260
     62  O        -16.6160   -2.8840   -2.1220 O.2    27  GLN27      -0.2867
     63  CB       -14.3730   -1.6490   -0.0140 C.3    27  GLN27       0.0367
     64  CG       -12.8810   -1.3400   -0.0490 C.3    27  GLN27       0.0905
     65  CD       -12.2480   -1.2310    1.3180 C.2    27  GLN27       0.2608
     66  OE1      -12.9160   -1.4350    2.3510 O.2    27  GLN27      -0.2717
     67  NE2      -10.9600   -0.9140    1.3430 N.am   27  GLN27      -0.0878
     68  N         -5.6980    7.5960   -3.4820 N.3    46  THR46      -0.1203
     69  CA        -5.2900    7.0540   -2.1860 C.3    46  THR46       0.1994
     70  C         -6.0740    7.7680   -1.1040 C.2    46  THR46       0.2618
     71  O         -6.2660    8.9920   -1.1430 O.2    46  THR46      -0.2717
     72  CB        -3.7770    7.1980   -1.8700 C.3    46  THR46       0.1784
     73  OG1       -3.4290    8.5790   -1.7660 O.3    46  THR46      -0.2211
     74  CG2       -2.9320    6.5420   -2.9270 C.3    46  THR46       0.0376
     75  N         -6.5300    6.9950   -0.1350 N.am   47  GLY47      -0.1942
     76  CA        -7.4130    7.5060    0.8980 C.3    47  GLY47       0.2014
     77  C         -8.7880    6.9220    0.8220 C.2    47  GLY47       0.2640
     78  O         -9.5270    7.0300    1.7830 O.2    47  GLY47      -0.2714
     79  N         -9.1410    6.3060   -0.3190 N.am   48  THR48      -0.1936
     80  CA       -10.4620    5.7630   -0.5300 C.3    48  THR48       0.2028
     81  C        -10.5850    4.3270   -0.0640 C.2    48  THR48       0.2643
     82  O        -11.6840    3.8910    0.1900 O.2    48  THR48      -0.2714
     83  CB       -10.8680    5.7970   -2.0150 C.3    48  THR48       0.1808
     84  OG1       -9.8600    5.1490   -2.8190 O.3    48  THR48      -0.2208
     85  CG2      -11.0590    7.2250   -2.4650 C.3    48  THR48       0.0379
     86  N         -9.4710    3.6050    0.0590 N.am   49  GLY49      -0.1939
     87  CA        -9.5240    2.1610    0.3140 C.3    49  GLY49       0.2014
     88  C         -9.4050    1.3350   -0.9600 C.2    49  GLY49       0.2639
     89  O         -9.8390    0.2030   -1.0230 O.2    49  GLY49      -0.2714
     90  N         -8.8000    1.9000   -1.9870 N.am   50  LYS50      -0.1963
     91  CA        -8.7450    1.2210   -3.2860 C.3    50  LYS50       0.1728
     92  C         -7.8870   -0.0490   -3.2800 C.2    50  LYS50       0.2617
     93  O         -8.2160   -0.9850   -4.0040 O.2    50  LYS50      -0.2715
     94  CB        -8.3410    2.1720   -4.3920 C.3    50  LYS50       0.0311
     95  CG        -7.0070    2.8100   -4.2350 C.3    50  LYS50       0.0038
     96  CD        -6.8660    3.8860   -5.2970 C.3    50  LYS50       0.0206
     97  CE        -5.6170    3.7160   -6.0830 C.3    50  LYS50       0.1093
     98  NZ        -4.4720    4.2960   -5.3550 N.3    50  LYS50      -0.1314
     99  N         -6.8690   -0.1370   -2.4200 N.am   51  THR51      -0.1937
    100  CA        -6.0780   -1.3730   -2.3160 C.3    51  THR51       0.2028
    101  C         -6.9480   -2.5250   -1.8560 C.2    51  THR51       0.2642
    102  O         -6.8930   -3.6190   -2.4320 O.2    51  THR51      -0.2714
    103  CB        -4.8390   -1.2260   -1.4250 C.3    51  THR51       0.1808
    104  OG1       -4.0250   -0.1590   -1.9280 O.3    51  THR51      -0.2208
    105  CG2       -4.0220   -2.4730   -1.4410 C.3    51  THR51       0.0379
    106  N         -7.8110   -2.2790   -0.8640 N.am   52  GLY52      -0.1954
    107  CA        -8.7430   -3.2890   -0.4470 C.3    52  GLY52       0.1869
    108  C         -9.7720   -3.6010   -1.5110 C.2    52  GLY52       0.2309
    109  O        -10.1760   -4.7730   -1.6520 O.2    52  GLY52      -0.2863
    110  N          4.8380    2.5930   -3.6080 N.3    79  LEU79      -0.1245
    111  CA         3.4710    2.1120   -3.6930 C.3    79  LEU79       0.1561
    112  C          3.3950    0.5990   -3.8860 C.2    79  LEU79       0.2260
    113  O          2.5480   -0.0730   -3.2600 O.2    79  LEU79      -0.2867
    114  CB         2.6830    2.8690   -4.7580 C.3    79  LEU79       0.0270
    115  CG         1.1770    2.6170   -4.7740 C.3    79  LEU79       0.0019
    116  CD1        0.5080    2.8460   -3.4210 C.3    79  LEU79       0.0001
    117  CD2        0.5330    3.4370   -5.8620 C.3    79  LEU79       0.0001
    118  N          3.9280   -1.0440   -0.4340 N.3    82  GLN82      -0.1245
    119  CA         2.7570   -0.8450    0.4120 C.3    82  GLN82       0.1566
    120  C          1.5910   -1.7750   -0.0030 C.2    82  GLN82       0.2260
    121  O          0.8970   -2.3470    0.8390 O.2    82  GLN82      -0.2867
    122  CB         2.3300    0.6120    0.3140 C.3    82  GLN82       0.0367
    123  CG         1.0670    0.9860    1.0680 C.3    82  GLN82       0.0905
    124  CD         0.7740    2.4620    0.9330 C.2    82  GLN82       0.2608
    125  OE1       -0.0840    2.8650    0.1530 O.2    82  GLN82      -0.2717
    126  NE2        1.5420    3.2820    1.6440 N.am   82  GLN82      -0.0878
    127  N         -0.0450   -4.9770    2.2250 N.3    86  GLN86      -0.1245
    128  CA        -1.4830   -5.1090    2.4930 C.3    86  GLN86       0.1566
    129  C         -2.0330   -6.4690    2.0230 C.2    86  GLN86       0.2260
    130  O         -2.7970   -7.1670    2.7410 O.2    86  GLN86      -0.2867
    131  CB        -2.2850   -4.0070    1.8160 C.3    86  GLN86       0.0367
    132  CG        -2.2100   -2.6170    2.4040 C.3    86  GLN86       0.0905
    133  CD        -3.5620   -2.1650    2.9830 C.2    86  GLN86       0.2608
    134  OE1       -4.5110   -1.6820    2.2680 O.2    86  GLN86      -0.2717
    135  NE2       -3.6650   -2.3060    4.2890 N.am   86  GLN86      -0.0878
@<TRIPOS>BOND
     1    97    98    1
     2    97    96    1
     3   117   115    1
     4    96    95    1
     5   115   114    1
     6   115   116    1
     7   114   111    1
     8    94    95    1
     9    94    91    1
    10    93    92    2
    11   112   111    1
    12   112   113    2
    13   111   110    1
    14    68    69    1
    15    91    92    1
    16    91    90    1
    17    92    99   am
    18    74    72    1
    19    84    83    1
    20    85    83    1
    21   102   101    2
    22    99   100    1
    23   100   101    1
    24   100   103    1
    25    69    72    1
    26    69    70    1
    27    62    61    2
    28    83    80    1
    29    90    88   am
    30   104   103    1
    31    72    73    1
    32   101   106   am
    33   109   108    2
    34    59    60    1
    35   108   107    1
    36    61    60    1
    37   105   103    1
    38    60    63    1
    39    71    70    2
    40    70    75   am
    41    89    88    2
    42    88    87    1
    43   106   107    1
    44    80    79    1
    45    80    81    1
    46   118   119    1
    47    79    77   am
    48    75    76    1
    49    81    86   am
    50    81    82    2
    51    64    63    1
    52    64    65    1
    53   120   119    1
    54   120   121    2
    55    86    87    1
    56   125   124    2
    57   122   119    1
    58   122   123    1
    59    77    76    1
    60    77    78    2
    61   124   123    1
    62   124   126   am
    63    55    54    2
    64    57    56    1
    65    65    67   am
    66    65    66    2
    67    54    53    1
    68   131   132    1
    69   131   128    1
    70   129   128    1
    71   129   130    2
    72    56    53    1
    73    56    58    1
    74   127   128    1
    75   134   133    2
    76   132   133    1
    77    53    52    1
    78     4     3    2
    79   133   135   am
    80    49    50    1
    81    49    46    1
    82     9     7   ar
    83     9    11   ar
    84    52    47   am
    85     7     6   ar
    86    47    46    1
    87    47    48    2
    88    50    51    2
    89     3     2    1
    90    46    45    1
    91     2     5    1
    92     2     1    1
    93    11    10   ar
    94     6     5    1
    95     6     8   ar
    96    25    26   ar
    97    25    23   ar
    98    26    24   ar
    99    23    21   ar
   100    51    45    1
   101    45    38   am
   102    10     8   ar
   103    24    22   ar
   104    39    38    2
   105    38    37    1
   106    21    22   ar
   107    21    20    1
   108    20    17    1
   109    37    40    1
   110    37    36    1
   111    41    40    1
   112    41    42    1
   113    44    42   ar
   114    42    43   ar
   115    17    18    1
   116    17    16    1
   117    36    29   am
   118    19    18    2
   119    18    27   am
   120    16    14   am
   121    29    30    2
   122    29    28    1
   123    27    28    1
   124    28    31    1
   125    14    15    2
   126    14    13    1
   127    12    13    1
   128    31    32    1
   129    32    33    1
   130    33    34    1
   131    34    35    1
