@<TRIPOS>MOLECULE
tmp/6aidA00.pdb
 86 84 0 0 0
SMALL
GASTEIGER

@<TRIPOS>ATOM
      1  N          4.8970  -11.3810   21.0780 N.3    59  GLY59      -0.1210
      2  CA         5.2350  -10.9640   22.4210 C.3    59  GLY59       0.1956
      3  C          5.7660  -12.0640   23.2610 C.2    59  GLY59       0.2612
      4  O          6.0760  -13.1460   22.8230 O.2    59  GLY59      -0.2717
      5  N          5.8900  -11.7430   24.5390 N.am   60  TYR60      -0.1962
      6  CA         6.4070  -12.6280   25.6060 C.3    60  TYR60       0.1771
      7  C          5.6540  -13.9580   25.5890 C.2    60  TYR60       0.2620
      8  O          4.4830  -13.9830   25.6300 O.2    60  TYR60      -0.2715
      9  CB         6.2790  -11.8880   26.9470 C.3    60  TYR60       0.0574
     10  CG         6.9930  -12.5110   28.1270 C.ar   60  TYR60      -0.0198
     11  CD1        8.3120  -12.2730   28.3320 C.ar   60  TYR60      -0.0009
     12  CD2        6.2900  -13.1940   29.0950 C.ar   60  TYR60      -0.0009
     13  CE1        8.9760  -12.7700   29.4320 C.ar   60  TYR60       0.0417
     14  CE2        6.9470  -13.6940   30.2160 C.ar   60  TYR60       0.0417
     15  CZ         8.2710  -13.4910   30.3540 C.ar   60  TYR60       0.1957
     16  OH         8.9240  -13.9740   31.4770 O.3    60  TYR60      -0.2866
     17  N          6.4270  -15.0310   25.5020 N.am   61  THR61      -0.1937
     18  CA         5.9310  -16.4410   25.3810 C.3    61  THR61       0.2028
     19  C          5.4930  -16.8040   23.9830 C.2    61  THR61       0.2642
     20  O          5.1020  -17.9690   23.7130 O.2    61  THR61      -0.2714
     21  CB         4.8470  -16.8900   26.4260 C.3    61  THR61       0.1808
     22  OG1        3.5750  -16.4220   26.0490 O.3    61  THR61      -0.2208
     23  CG2        5.2500  -16.5400   27.8290 C.3    61  THR61       0.0379
     24  N          5.4630  -15.8430   23.0920 N.am   62  GLY62      -0.1954
     25  CA         4.8290  -16.0980   21.7450 C.3    62  GLY62       0.1869
     26  C          5.9400  -16.4670   20.7220 C.2    62  GLY62       0.2309
     27  O          7.0810  -16.2470   20.8400 O.2    62  GLY62      -0.2863
     28  N          1.9230  -17.0550   16.5780 N.3    66  SER66      -0.1217
     29  CA         1.0040  -16.1740   17.2960 C.3    66  SER66       0.1889
     30  C          0.5970  -14.9390   16.4980 C.2    66  SER66       0.2288
     31  O         -0.3500  -14.2410   16.8600 O.2    66  SER66      -0.2866
     32  CB         1.6100  -15.7500   18.6370 C.3    66  SER66       0.2089
     33  OG         2.6360  -14.7910   18.4520 O.3    66  SER66      -0.2183
     34  N          3.1470   -7.4690   18.4810 N.3   129  HIS129     -0.1226
     35  CA         2.1670   -7.6760   19.5760 C.3   129  HIS129      0.1752
     36  C          2.8190   -7.5940   20.9440 C.2   129  HIS129      0.2596
     37  O          3.8280   -8.2830   21.2180 O.2   129  HIS129     -0.2718
     38  CB         1.5540   -9.0830   19.3820 C.3   129  HIS129      0.0759
     39  CG         0.5270   -9.4480   20.4310 C.ar  129  HIS129      0.0818
     40  ND1       -0.4030   -8.6120   20.9460 N.ar  129  HIS129     -0.2268
     41  CD2        0.4610  -10.6070   21.0660 C.ar  129  HIS129      0.1154
     42  CE1       -1.0430   -9.3070   21.8950 C.ar  129  HIS129      0.1986
     43  NE2       -0.5330  -10.5130   21.9530 N.ar  129  HIS129     -0.2212
     44  N          2.1910   -6.7630   21.8140 N.am  130  SER130     -0.1952
     45  CA         2.5000   -6.7870   23.2510 C.3   130  SER130      0.1924
     46  C          3.9310   -6.3430   23.4760 C.2   130  SER130      0.2314
     47  O          4.2690   -5.2330   23.0360 O.2   130  SER130     -0.2863
     48  CB         2.1540   -8.1490   23.8400 C.3   130  SER130      0.2116
     49  OG         2.4750   -8.2030   25.2190 O.3   130  SER130     -0.2180
     50  N         -3.1180   -7.1150   30.7450 N.3   178  ILE178     -0.1245
     51  CA        -1.6680   -7.3420   30.7020 C.3   178  ILE178      0.1561
     52  C         -0.9570   -6.0600   30.2860 C.2   178  ILE178      0.2260
     53  O         -0.0090   -5.5830   30.8980 O.2   178  ILE178     -0.2867
     54  CB        -1.3610   -8.5200   29.8120 C.3   178  ILE178      0.0252
     55  CG1       -1.9490   -9.7910   30.4940 C.3   178  ILE178      0.0019
     56  CG2        0.1360   -8.5400   29.5550 C.3   178  ILE178      0.0019
     57  CD1       -1.9560  -10.9790   29.6530 C.3   178  ILE178      0.0001
     58  N         -6.2420   -8.8680   25.6750 N.3   208  HIS208     -0.1226
     59  CA        -4.8360   -8.7690   25.2260 C.3   208  HIS208      0.1752
     60  C         -4.5310   -9.6700   24.0730 C.2   208  HIS208      0.2592
     61  O         -3.6150   -9.4170   23.3210 O.2   208  HIS208     -0.2718
     62  CB        -3.9500   -9.0830   26.4150 C.3   208  HIS208      0.0759
     63  CG        -2.5270   -8.9060   26.1630 C.ar  208  HIS208      0.0818
     64  ND1       -1.9550   -7.6940   25.9990 N.ar  208  HIS208     -0.2268
     65  CD2       -1.5110   -9.7960   26.0700 C.ar  208  HIS208      0.1154
     66  CE1       -0.6040   -7.8200   25.8330 C.ar  208  HIS208      0.1986
     67  NE2       -0.3460   -9.1000   25.8950 N.ar  208  HIS208     -0.2212
     68  N         -5.2130  -10.8220   23.9870 N.am  209  PHE209     -0.2029
     69  CA        -4.8720  -11.8360   23.0070 C.3   209  PHE209      0.1325
     70  C         -5.6970  -11.7330   21.7880 C.3   209  PHE209      0.2039
     71  O         -5.5560  -12.5730   20.8180 O.3   209  PHE209     -0.2185
     72  CB        -4.9940  -13.2320   23.6550 C.3   209  PHE209      0.0507
     73  CG        -4.0880  -13.3170   24.8680 C.ar  209  PHE209     -0.0204
     74  CD1       -2.7850  -13.5320   24.6700 C.ar  209  PHE209     -0.0042
     75  CD2       -4.5710  -13.1660   26.1290 C.ar  209  PHE209     -0.0042
     76  CE1       -1.8390  -13.5940   25.6930 C.ar  209  PHE209     -0.0003
     77  CE2       -3.5860  -13.2060   27.2000 C.ar  209  PHE209     -0.0003
     78  CZ        -2.3100  -13.3850   26.9340 C.ar  209  PHE209     -0.0000
     79  N         -3.9660  -12.3420   18.4060 N.3   212  ASN212     -0.1240
     80  CA        -3.4140  -13.6810   18.1050 C.3   212  ASN212      0.1653
     81  C         -4.3890  -14.5280   17.3840 C.2   212  ASN212      0.2266
     82  O         -4.0900  -15.6710   17.1430 O.2   212  ASN212     -0.2867
     83  CB        -2.9250  -14.3060   19.4010 C.3   212  ASN212      0.1155
     84  CG        -1.8990  -13.4840   20.1080 C.2   212  ASN212      0.2627
     85  OD1       -0.8900  -13.0260   19.4160 O.2   212  ASN212     -0.2716
     86  ND2       -2.0700  -13.2840   21.3030 N.am  212  ASN212     -0.0877
@<TRIPOS>BOND
     1    30    31    2
     2    30    29    1
     3    28    29    1
     4    82    81    2
     5    29    32    1
     6    81    80    1
     7    80    79    1
     8    80    83    1
     9    33    32    1
    10    34    35    1
    11    38    35    1
    12    38    39    1
    13    83    84    1
    14    85    84    2
    15    35    36    1
    16    84    86   am
    17    39    40   ar
    18    39    41   ar
    19    26    27    2
    20    26    25    1
    21    71    70    1
    22    36    37    2
    23    36    44   am
    24    40    42   ar
    25    41    43   ar
    26     1     2    1
    27    25    24    1
    28    70    69    1
    29    44    45    1
    30    42    43   ar
    31     2     3    1
    32     4     3    2
    33    69    72    1
    34    69    68    1
    35    47    46    2
    36    24    19   am
    37    45    46    1
    38    45    48    1
    39     3     5   am
    40    61    60    2
    41    72    73    1
    42    20    19    2
    43    48    49    1
    44    19    18    1
    45    68    60   am
    46    60    59    1
    47     5     6    1
    48    74    73   ar
    49    74    76   ar
    50    73    75   ar
    51    59    58    1
    52    59    62    1
    53    18    17    1
    54    18    21    1
    55    17     7   am
    56     7     6    1
    57     7     8    2
    58     6     9    1
    59    76    78   ar
    60    66    67   ar
    61    66    64   ar
    62    67    65   ar
    63    64    63   ar
    64    22    21    1
    65    65    63   ar
    66    75    77   ar
    67    63    62    1
    68    21    23    1
    69    78    77   ar
    70     9    10    1
    71    10    11   ar
    72    10    12   ar
    73    11    13   ar
    74    12    14   ar
    75    13    15   ar
    76    56    54    1
    77    57    55    1
    78    54    55    1
    79    54    51    1
    80    14    15   ar
    81    52    51    1
    82    52    53    2
    83    15    16    1
    84    51    50    1
