@<TRIPOS>MOLECULE
tmp/6aitA00.pdb
 97 89 0 0 0
SMALL
GASTEIGER

@<TRIPOS>ATOM
      1  N       -102.8650  -37.8200   11.3650 N.3    25  ASP25      -0.1225
      2  CA      -103.2820  -39.0610   11.9970 C.3    25  ASP25       0.1790
      3  C       -103.9950  -39.9490   10.9750 C.2    25  ASP25       0.2439
      4  O       -104.9020  -39.4730   10.2730 O.2    25  ASP25      -0.2733
      5  CB      -104.1810  -38.7320   13.1950 C.3    25  ASP25       0.1423
      6  CG      -104.8720  -39.9460   13.7780 C.2    25  ASP25       0.3668
      7  OD1     -104.2120  -40.6540   14.5690 O.co2  25  ASP25      -0.2456
      8  OD2     -106.0500  -40.2170   13.4350 O.co2  25  ASP25      -0.2456
      9  N       -103.6150  -41.2320   10.8590 N.am   26  PRO26      -0.2729
     10  CA      -104.2100  -42.0600    9.7920 C.3    26  PRO26       0.1401
     11  C       -105.7290  -42.1140    9.8200 C.2    26  PRO26       0.2269
     12  O       -106.3600  -41.9280    8.7720 O.2    26  PRO26      -0.2865
     13  CB      -103.5760  -43.4370   10.0250 C.3    26  PRO26       0.0296
     14  CG      -102.2840  -43.1390   10.6720 C.3    26  PRO26       0.0237
     15  CD      -102.5420  -41.9470   11.5700 C.3    26  PRO26       0.0939
     16  N       -111.9280  -38.2380   18.4690 N.3   216  ARG216     -0.1245
     17  CA      -110.4760  -38.3280   18.3380 C.3   216  ARG216      0.1563
     18  C       -109.8530  -36.9580   18.0970 C.2   216  ARG216      0.2260
     19  O       -108.7720  -36.6640   18.6170 O.2   216  ARG216     -0.2867
     20  CB      -110.0960  -39.2980   17.2130 C.3   216  ARG216      0.0307
     21  CG      -108.5960  -39.3210   16.8890 C.3   216  ARG216      0.0489
     22  CD      -108.1850  -40.5620   16.0960 C.3   216  ARG216      0.2205
     23  NE      -107.7400  -41.6410   16.9760 N.pl3 216  ARG216     -0.0865
     24  CZ      -106.4910  -42.0900   17.0480 C.cat 216  ARG216      0.5346
     25  NH1     -105.5510  -41.5590   16.2820 N.pl3 216  ARG216      0.1354
     26  NH2     -106.1800  -43.0720   17.8860 N.pl3 216  ARG216      0.1354
     27  N       -107.6260  -36.3030   21.2790 N.3   220  MET220     -0.1245
     28  CA      -106.2140  -36.5790   21.0570 C.3   220  MET220      0.1570
     29  C       -105.4700  -35.3520   20.5460 C.2   220  MET220      0.2261
     30  O       -104.3060  -35.1360   20.9020 O.2   220  MET220     -0.2867
     31  CB      -106.0650  -37.7460   20.0760 C.3   220  MET220      0.0387
     32  CG      -104.6760  -37.9160   19.4970 C.3   220  MET220      0.0595
     33  SD      -104.4940  -39.4830   18.6180 S.3   220  MET220     -0.1393
     34  CE      -104.8470  -40.6630   19.9180 C.3   220  MET220      0.0692
     35  N       -107.0790  -49.5370   16.2910 N.3   283  ASP283     -0.1239
     36  CA      -106.0440  -48.5180   16.4450 C.3   283  ASP283      0.1674
     37  C       -105.7940  -48.2120   17.9160 C.2   283  ASP283      0.2266
     38  O       -104.6460  -48.1960   18.3730 O.2   283  ASP283     -0.2867
     39  CB      -106.4610  -47.2580   15.6770 C.3   283  ASP283      0.1410
     40  CG      -105.4790  -46.1050   15.8270 C.2   283  ASP283      0.3668
     41  OD1     -105.2810  -45.6110   16.9570 O.co2 283  ASP283     -0.2456
     42  OD2     -104.9250  -45.6630   14.7980 O.co2 283  ASP283     -0.2456
     43  N       -104.0610  -50.9200   19.9920 N.3   286  THR286     -0.1203
     44  CA      -102.6180  -50.9710   19.7680 C.3   286  THR286      0.1994
     45  C       -101.8870  -49.9690   20.6520 C.2   286  THR286      0.2617
     46  O       -100.8800  -50.3070   21.2850 O.2   286  THR286     -0.2717
     47  CB      -102.3060  -50.7050   18.2960 C.3   286  THR286      0.1784
     48  OG1     -103.2260  -51.4370   17.4780 O.3   286  THR286     -0.2211
     49  CG2     -100.8700  -51.1100   17.9560 C.3   286  THR286      0.0376
     50  N       -102.3720  -48.7230   20.6950 N.am  287  ASP287     -0.1973
     51  CA      -101.7470  -47.7170   21.5500 C.3   287  ASP287      0.1709
     52  C       -101.7190  -48.1730   23.0030 C.2   287  ASP287      0.2293
     53  O       -100.7220  -47.9700   23.7070 O.2   287  ASP287     -0.2864
     54  CB      -102.4850  -46.3840   21.4260 C.3   287  ASP287      0.1436
     55  CG      -102.2380  -45.6960   20.0980 C.2   287  ASP287      0.3671
     56  OD1     -101.4070  -46.1920   19.3100 O.co2 287  ASP287     -0.2456
     57  OD2     -102.8790  -44.6550   19.8400 O.co2 287  ASP287     -0.2456
     58  N        -99.0330  -51.0910   23.2910 N.3   290  LEU290     -0.1245
     59  CA       -97.6590  -50.6120   23.1960 C.3   290  LEU290      0.1561
     60  C        -97.2920  -49.7510   24.3920 C.2   290  LEU290      0.2260
     61  O        -96.1230  -49.7220   24.7940 O.2   290  LEU290     -0.2867
     62  CB       -97.4490  -49.8400   21.8920 C.3   290  LEU290      0.0270
     63  CG       -97.5880  -50.6960   20.6290 C.3   290  LEU290      0.0019
     64  CD1      -97.0580  -49.9750   19.3920 C.3   290  LEU290      0.0001
     65  CD2      -96.8920  -52.0380   20.8090 C.3   290  LEU290      0.0001
     66  N        -99.9760  -49.1650    8.8990 N.3   316  LEU316     -0.1231
     67  CA       -99.0500  -48.3460    9.6770 C.3   316  LEU316      0.1693
     68  C        -99.0490  -48.7600   11.1430 C.2   316  LEU316      0.2592
     69  O        -97.9940  -48.7850   11.7870 O.2   316  LEU316     -0.2718
     70  CB       -99.4120  -46.8680    9.5450 C.3   316  LEU316      0.0284
     71  CG       -99.1790  -46.2250    8.1840 C.3   316  LEU316      0.0019
     72  CD1      -99.4120  -44.7300    8.2730 C.3   316  LEU316      0.0001
     73  CD2      -97.7750  -46.5280    7.6830 C.3   316  LEU316      0.0001
     74  N       -100.2260  -49.0780   11.6880 N.am  317  ASN317     -0.1974
     75  CA      -100.3010  -49.5260   13.0740 C.3   317  ASN317      0.1688
     76  C        -99.4660  -50.7820   13.2920 C.2   317  ASN317      0.2292
     77  O        -98.7670  -50.9040   14.3040 O.2   317  ASN317     -0.2864
     78  CB      -101.7580  -49.7800   13.4670 C.3   317  ASN317      0.1181
     79  CG      -102.4370  -48.5540   14.0400 C.2   317  ASN317      0.2629
     80  OD1     -102.4100  -48.3320   15.2460 O.2   317  ASN317     -0.2716
     81  ND2     -103.0700  -47.7640   13.1800 N.am  317  ASN317     -0.0877
     82  N        -95.6150  -50.0740   13.0800 N.3   320  ASN320     -0.1240
     83  CA       -95.0950  -49.4760   14.3050 C.3   320  ASN320      0.1653
     84  C        -95.0160  -50.5020   15.4280 C.2   320  ASN320      0.2266
     85  O        -94.0770  -50.4790   16.2330 O.2   320  ASN320     -0.2867
     86  CB       -95.9570  -48.2860   14.7220 C.3   320  ASN320      0.1155
     87  CG       -95.3960  -47.5640   15.9230 C.2   320  ASN320      0.2627
     88  OD1      -94.2820  -47.0440   15.8800 O.2   320  ASN320     -0.2716
     89  ND2      -96.1580  -47.5340   17.0070 N.am  320  ASN320     -0.0877
     90  N        -91.8170  -43.7050    9.5080 N.3   351  LEU351     -0.1245
     91  CA       -91.6780  -45.0230   10.1160 C.3   351  LEU351      0.1561
     92  C        -90.6690  -45.8870    9.3670 C.2   351  LEU351      0.2260
     93  O        -89.9780  -46.7080    9.9820 O.2   351  LEU351     -0.2867
     94  CB       -93.0370  -45.7120   10.1760 C.3   351  LEU351      0.0270
     95  CG       -93.9490  -45.1090   11.2370 C.3   351  LEU351      0.0019
     96  CD1      -95.3440  -45.7080   11.1540 C.3   351  LEU351      0.0001
     97  CD2      -93.3340  -45.3140   12.6130 C.3   351  LEU351      0.0001
@<TRIPOS>BOND
     1    73    71    1
     2    71    72    1
     3    71    70    1
     4    12    11    2
     5    66    67    1
     6    92    93    2
     7    92    91    1
     8    90    91    1
     9    70    67    1
    10    67    68    1
    11    10    11    1
    12    10    13    1
    13    10     9    1
    14    13    14    1
    15    91    94    1
    16    94    95    1
    17     4     3    2
    18    14    15    1
    19     9     3   am
    20     9    15    1
    21     3     2    1
    22    68    74   am
    23    68    69    2
    24    96    95    1
    25    95    97    1
    26     1     2    1
    27    74    75    1
    28     2     5    1
    29    75    76    1
    30    75    78    1
    31    82    83    1
    32    81    79   am
    33     5     6    1
    34    76    77    2
    35     8     6   ar
    36    78    79    1
    37     6     7   ar
    38    79    80    2
    39    83    86    1
    40    83    84    1
    41    86    87    1
    42    42    40   ar
    43    84    85    2
    44    39    40    1
    45    39    36    1
    46    40    41   ar
    47    88    87    2
    48    87    89   am
    49    22    21    1
    50    22    23    1
    51    25    24    1
    52    35    36    1
    53    36    37    1
    54    21    20    1
    55    23    24    2
    56    24    26    1
    57    20    17    1
    58    48    47    1
    59    37    38    2
    60    49    47    1
    61    18    17    1
    62    18    19    2
    63    47    44    1
    64    17    16    1
    65    33    32    1
    66    33    34    1
    67    56    55   ar
    68    64    63    1
    69    32    31    1
    70    44    43    1
    71    44    45    1
    72    57    55   ar
    73    31    28    1
    74    55    54    1
    75    29    30    2
    76    29    28    1
    77    63    65    1
    78    63    62    1
    79    45    50   am
    80    45    46    2
    81    50    51    1
    82    28    27    1
    83    54    51    1
    84    51    52    1
    85    62    59    1
    86    52    53    2
    87    59    58    1
    88    59    60    1
    89    60    61    2
