@<TRIPOS>MOLECULE
tmp/6aiyA00.pdb
 139 131 0 0 0
SMALL
GASTEIGER

@<TRIPOS>ATOM
      1  N          5.0360   14.2390    2.1690 N.3    71  GLU71      -0.1245
      2  CA         4.0350   13.2420    2.5210 C.3    71  GLU71       0.1567
      3  C          3.1010   12.8960    1.3680 C.2    71  GLU71       0.2260
      4  O          2.3340   11.9330    1.4830 O.2    71  GLU71      -0.2867
      5  CB         3.2320   13.7280    3.7230 C.3    71  GLU71       0.0388
      6  CG         3.9960   13.6220    5.0260 C.3    71  GLU71       0.1160
      7  CD         3.2410   14.2190    6.1960 C.2    71  GLU71       0.3649
      8  OE1        3.4560   15.4170    6.4960 O.co2  71  GLU71      -0.2457
      9  OE2        2.4250   13.4910    6.8010 O.co2  71  GLU71      -0.2457
     10  N         -3.5680   20.8960    7.4190 N.3   151  ARG151     -0.1245
     11  CA        -2.9610   20.8040    8.7440 C.3   151  ARG151      0.1563
     12  C         -2.7300   22.1960    9.3260 C.2   151  ARG151      0.2260
     13  O         -2.0180   23.0000    8.7120 O.2   151  ARG151     -0.2867
     14  CB        -1.6450   20.0420    8.6350 C.3   151  ARG151      0.0307
     15  CG        -1.2880   19.1940    9.8370 C.3   151  ARG151      0.0489
     16  CD         0.0100   18.4400    9.5750 C.3   151  ARG151      0.2205
     17  NE        -0.1910   17.0280    9.2630 N.pl3 151  ARG151     -0.0865
     18  CZ         0.6660   16.2970    8.5520 C.cat 151  ARG151      0.5346
     19  NH1        1.7680   16.8540    8.0630 N.pl3 151  ARG151      0.1354
     20  NH2        0.4250   15.0120    8.3260 N.pl3 151  ARG151      0.1354
     21  N         -0.4180   22.4610   14.6020 N.3   155  LEU155     -0.1245
     22  CA        -0.1350   21.0370   14.4710 C.3   155  LEU155      0.1561
     23  C          1.1780   20.8000   13.7350 C.2   155  LEU155      0.2260
     24  O          1.9640   19.9260   14.1220 O.2   155  LEU155     -0.2867
     25  CB        -1.2910   20.3410   13.7520 C.3   155  LEU155      0.0270
     26  CG        -1.3110   18.8130   13.7770 C.3   155  LEU155      0.0019
     27  CD1       -1.2240   18.2930   15.2120 C.3   155  LEU155      0.0001
     28  CD2       -2.5650   18.2820   13.0860 C.3   155  LEU155      0.0001
     29  N          3.8180   21.4970   16.2080 N.3   158  LEU158     -0.1231
     30  CA         3.8520   20.4120   17.1850 C.3   158  LEU158      0.1693
     31  C          4.5770   19.1880   16.6270 C.2   158  LEU158      0.2591
     32  O          5.3710   18.5480   17.3310 O.2   158  LEU158     -0.2718
     33  CB         2.4280   20.0540   17.5990 C.3   158  LEU158      0.0284
     34  CG         2.2820   18.9530   18.6400 C.3   158  LEU158      0.0019
     35  CD1        3.1290   19.2850   19.8560 C.3   158  LEU158      0.0001
     36  CD2        0.8270   18.7800   19.0370 C.3   158  LEU158      0.0001
     37  N          4.3240   18.8520   15.3610 N.am  159  MET159     -0.1979
     38  CA         5.0100   17.7140   14.7570 C.3   159  MET159      0.1605
     39  C          6.5110   17.9500   14.6650 C.2   159  MET159      0.2287
     40  O          7.3030   17.0300   14.9020 O.2   159  MET159     -0.2864
     41  CB         4.4350   17.4140   13.3780 C.3   159  MET159      0.0413
     42  CG         3.1280   16.6260   13.4490 C.3   159  MET159      0.0598
     43  SD         2.1890   16.7040   11.9240 S.3   159  MET159     -0.1393
     44  CE         3.4300   16.1140   10.7700 C.3   159  MET159      0.0692
     45  N          8.3510   17.3550   18.0870 N.3   162  GLY162     -0.1210
     46  CA         8.6380   15.9680   18.4380 C.3   162  GLY162      0.1956
     47  C          9.8920   15.4410   17.7640 C.2   162  GLY162      0.2611
     48  O         10.6700   14.7010   18.3720 O.2   162  GLY162     -0.2717
     49  N         10.1090   15.8210   16.4990 N.am  163  TYR163     -0.1976
     50  CA        11.3550   15.4900   15.8110 C.3   163  TYR163      0.1639
     51  C         12.5430   16.2410   16.4060 C.2   163  TYR163      0.2290
     52  O         13.6320   15.6770   16.5400 O.2   163  TYR163     -0.2864
     53  CB        11.2220   15.7970   14.3180 C.3   163  TYR163      0.0560
     54  CG        10.4620   14.7260   13.5620 C.ar  163  TYR163     -0.0198
     55  CD1       11.0230   13.4670   13.3650 C.ar  163  TYR163     -0.0009
     56  CD2        9.1820   14.9590   13.0720 C.ar  163  TYR163     -0.0009
     57  CE1       10.3450   12.4750   12.6870 C.ar  163  TYR163      0.0417
     58  CE2        8.4850   13.9630   12.3900 C.ar  163  TYR163      0.0417
     59  CZ         9.0810   12.7250   12.2020 C.ar  163  TYR163      0.1957
     60  OH         8.4270   11.7180   11.5270 O.3   163  TYR163     -0.2866
     61  N         12.9600   17.1560   19.4610 N.3   165  PHE165     -0.1227
     62  CA        13.3360   16.5450   20.7310 C.3   165  PHE165      0.1736
     63  C         14.3880   15.4620   20.5290 C.2   165  PHE165      0.2595
     64  O         15.3090   15.3240   21.3440 O.2   165  PHE165     -0.2718
     65  CB        12.0900   15.9750   21.4170 C.3   165  PHE165      0.0547
     66  CG        12.3700   15.2410   22.7030 C.ar  165  PHE165     -0.0202
     67  CD1       12.9310   15.8960   23.7960 C.ar  165  PHE165     -0.0042
     68  CD2       12.0400   13.8930   22.8290 C.ar  165  PHE165     -0.0042
     69  CE1       13.1780   15.2180   24.9840 C.ar  165  PHE165     -0.0003
     70  CE2       12.2720   13.2130   24.0070 C.ar  165  PHE165     -0.0003
     71  CZ        12.8450   13.8730   25.1010 C.ar  165  PHE165     -0.0000
     72  N         14.2730   14.6790   19.4460 N.am  166  GLU166     -0.1979
     73  CA        15.2670   13.6380   19.1900 C.3   166  GLU166      0.1602
     74  C         16.6510   14.2330   18.9820 C.2   166  GLU166      0.2287
     75  O         17.6540   13.6310   19.3860 O.2   166  GLU166     -0.2864
     76  CB        14.8730   12.7990   17.9670 C.3   166  GLU166      0.0415
     77  CG        13.4160   12.3570   17.9540 C.3   166  GLU166      0.1163
     78  CD        13.0280   11.6030   16.6800 C.2   166  GLU166      0.3649
     79  OE1       13.8780   11.4590   15.7710 O.co2 166  GLU166     -0.2457
     80  OE2       11.8670   11.1440   16.5920 O.co2 166  GLU166     -0.2457
     81  N         14.1830    5.2680   16.9810 N.3   210  ASP210     -0.1239
     82  CA        14.6830    6.6100   17.2790 C.3   210  ASP210      0.1674
     83  C         16.1810    6.6030   17.5710 C.2   210  ASP210      0.2266
     84  O         16.9280    7.4200   17.0280 O.2   210  ASP210     -0.2867
     85  CB        13.9150    7.2220   18.4580 C.3   210  ASP210      0.1410
     86  CG        12.5010    7.6430   18.0810 C.2   210  ASP210      0.3668
     87  OD1       12.1840    7.6690   16.8710 O.co2 210  ASP210     -0.2456
     88  OD2       11.7150    7.9550   19.0010 O.co2 210  ASP210     -0.2456
     89  N         12.8660    4.3780   22.4660 N.3   227  GLU227     -0.1231
     90  CA        11.8590    5.2180   21.8250 C.3   227  GLU227      0.1699
     91  C         11.7970    6.5590   22.5490 C.2   227  GLU227      0.2592
     92  O         11.7820    6.5980   23.7810 O.2   227  GLU227     -0.2718
     93  CB        10.4890    4.5360   21.8380 C.3   227  GLU227      0.0402
     94  CG         9.3140    5.4100   21.3720 C.3   227  GLU227      0.1161
     95  CD         9.3900    5.7570   19.8870 C.2   227  GLU227      0.3649
     96  OE1        9.8210    4.8960   19.0740 O.co2 227  GLU227     -0.2457
     97  OE2        9.0120    6.8990   19.5340 O.co2 227  GLU227     -0.2457
     98  N         11.7930    7.6540   21.7880 N.am  228  LEU228     -0.1966
     99  CA        11.6780    9.0000   22.3400 C.3   228  LEU228      0.1728
    100  C         10.3130    9.5890   22.0150 C.2   228  LEU228      0.2616
    101  O          9.8260    9.4580   20.8920 O.2   228  LEU228     -0.2715
    102  CB        12.7650    9.9210   21.7800 C.3   228  LEU228      0.0311
    103  CG        14.1840    9.4240   22.0880 C.3   228  LEU228      0.0022
    104  CD1       15.1940   10.2560   21.3260 C.3   228  LEU228      0.0001
    105  CD2       14.4460    9.4960   23.5810 C.3   228  LEU228      0.0001
    106  N          9.7320   10.2880   22.9890 N.am  229  LYS229     -0.1963
    107  CA         8.3820   10.8270   22.9030 C.3   229  LYS229      0.1728
    108  C          8.3550   12.1780   23.5920 C.2   229  LYS229      0.2616
    109  O          9.1370   12.4120   24.5090 O.2   229  LYS229     -0.2715
    110  CB         7.3570    9.9130   23.6090 C.3   229  LYS229      0.0311
    111  CG         7.1510    8.5790   22.9280 C.3   229  LYS229      0.0038
    112  CD         6.4270    8.7770   21.6230 C.3   229  LYS229      0.0206
    113  CE         6.0120    7.4490   21.0650 C.3   229  LYS229      0.1093
    114  NZ         5.7520    7.5170   19.6200 N.3   229  LYS229     -0.1314
    115  N          7.4530   13.0620   23.1510 N.am  230  THR230     -0.1951
    116  CA         7.1410   14.2750   23.9060 C.3   230  THR230      0.1897
    117  C          5.6770   14.2750   24.3320 C.2   230  THR230      0.2313
    118  O          4.8160   13.6330   23.7240 O.2   230  THR230     -0.2863
    119  CB         7.4180   15.5680   23.1140 C.3   230  THR230      0.1794
    120  OG1        6.6200   15.6030   21.9290 O.3   230  THR230     -0.2208
    121  CG2        8.8640   15.6610   22.7270 C.3   230  THR230      0.0378
    122  N         -2.7240    8.3080   26.0240 N.3   247  LYS247     -0.1245
    123  CA        -1.4400    8.4030   25.3470 C.3   247  LYS247      0.1561
    124  C         -0.5830    7.1740   25.6050 C.2   247  LYS247      0.2260
    125  O          0.0350    6.6420   24.6720 O.2   247  LYS247     -0.2867
    126  CB        -0.7050    9.6760   25.7650 C.3   247  LYS247      0.0271
    127  CG         0.2300   10.1910   24.6710 C.3   247  LYS247      0.0035
    128  CD         0.1340   11.6930   24.5470 C.3   247  LYS247      0.0206
    129  CE         0.7430   12.1830   23.2440 C.3   247  LYS247      0.1093
    130  NZ         0.8640   13.6850   23.2490 N.3   247  LYS247     -0.1314
    131  N          3.0540    0.8030   20.3120 N.3   254  GLN254     -0.1245
    132  CA         4.1440    1.0410   19.3730 C.3   254  GLN254      0.1566
    133  C          5.4240    0.3250   19.7940 C.2   254  GLN254      0.2260
    134  O          6.1300   -0.2310   18.9480 O.2   254  GLN254     -0.2867
    135  CB         4.4050    2.5410   19.2390 C.3   254  GLN254      0.0367
    136  CG         5.5900    2.8590   18.3200 C.3   254  GLN254      0.0905
    137  CD         5.9660    4.3260   18.3790 C.2   254  GLN254      0.2608
    138  OE1        5.8210    4.9530   19.4130 O.2   254  GLN254     -0.2717
    139  NE2        6.4200    4.8780   17.2650 N.am  254  GLN254     -0.0878
@<TRIPOS>BOND
     1     3     4    2
     2     3     2    1
     3     1     2    1
     4     2     5    1
     5     5     6    1
     6     6     7    1
     7     7     8   ar
     8     7     9   ar
     9    10    11    1
    10    19    18    1
    11    20    18    1
    12    18    17    2
    13    14    11    1
    14    14    15    1
    15    13    12    2
    16    11    12    1
    17    17    16    1
    18    16    15    1
    19    44    43    1
    20    60    59    1
    21    43    42    1
    22    59    58   ar
    23    59    57   ar
    24    58    56   ar
    25    57    55   ar
    26    56    54   ar
    27    28    26    1
    28    55    54   ar
    29    41    42    1
    30    41    38    1
    31    54    53    1
    32    23    24    2
    33    23    22    1
    34    25    26    1
    35    25    22    1
    36    26    27    1
    37    53    50    1
    38    22    21    1
    39    39    38    1
    40    39    40    2
    41    38    37    1
    42    37    31   am
    43    79    78   ar
    44    50    51    1
    45    50    49    1
    46    29    30    1
    47    51    52    2
    48    49    47   am
    49    80    78   ar
    50    31    30    1
    51    31    32    2
    52    78    77    1
    53    87    86   ar
    54    81    82    1
    55    84    83    2
    56    30    33    1
    57   139   137   am
    58    82    83    1
    59    82    85    1
    60    33    34    1
    61    47    48    2
    62    47    46    1
    63    77    76    1
    64    76    73    1
    65    86    85    1
    66    86    88   ar
    67    45    46    1
    68   136   137    1
    69   136   135    1
    70   137   138    2
    71    34    36    1
    72    34    35    1
    73   134   133    2
    74    74    73    1
    75    74    75    2
    76    96    95   ar
    77    73    72    1
    78   135   132    1
    79   132   133    1
    80   132   131    1
    81    72    63   am
    82    61    62    1
    83    97    95   ar
    84   114   113    1
    85    95    94    1
    86    63    62    1
    87    63    64    2
    88    62    65    1
    89   101   100    2
    90   113   112    1
    91   104   103    1
    92    94    93    1
    93    65    66    1
    94   112   111    1
    95   102   103    1
    96   102    99    1
    97    98    99    1
    98    98    91   am
    99    90    93    1
   100    90    89    1
   101    90    91    1
   102   120   119    1
   103   100    99    1
   104   100   106   am
   105   103   105    1
   106    91    92    2
   107    66    68   ar
   108    66    67   ar
   109   121   119    1
   110    68    70   ar
   111   107   106    1
   112   107   108    1
   113   107   110    1
   114   111   110    1
   115   119   116    1
   116   115   108   am
   117   115   116    1
   118   129   130    1
   119   129   128    1
   120   108   109    2
   121   118   117    2
   122    67    69   ar
   123   116   117    1
   124    70    71   ar
   125   128   127    1
   126   127   126    1
   127   125   124    2
   128    69    71   ar
   129   123   124    1
   130   123   126    1
   131   123   122    1
