@<TRIPOS>MOLECULE
tmp/6ajfA03.pdb
 143 131 0 0 0
SMALL
GASTEIGER

@<TRIPOS>ATOM
      1  N          5.6020  -21.1570  -50.4220 N.3   193  ARG193     -0.1245
      2  CA         4.4900  -21.0420  -49.4870 C.3   193  ARG193      0.1563
      3  C          4.8340  -20.0490  -48.3780 C.2   193  ARG193      0.2260
      4  O          3.9690  -19.3180  -47.8980 O.2   193  ARG193     -0.2867
      5  CB         4.1320  -22.4100  -48.9000 C.3   193  ARG193      0.0307
      6  CG         2.9860  -22.3800  -47.8970 C.3   193  ARG193      0.0489
      7  CD         2.3250  -23.7480  -47.7360 C.3   193  ARG193      0.2205
      8  NE         3.2860  -24.7980  -47.4150 N.pl3 193  ARG193     -0.0865
      9  CZ         3.6990  -25.7240  -48.2750 C.cat 193  ARG193      0.5346
     10  NH1        4.5780  -26.6370  -47.8930 N.pl3 193  ARG193      0.1354
     11  NH2        3.2320  -25.7380  -49.5160 N.pl3 193  ARG193      0.1354
     12  N          2.4130  -17.0340  -47.9000 N.3   197  ALA197     -0.1245
     13  CA         1.6240  -17.0540  -46.6710 C.3   197  ALA197      0.1562
     14  C          2.3130  -16.3590  -45.4930 C.2   197  ALA197      0.2260
     15  O          1.7230  -15.4910  -44.8530 O.2   197  ALA197     -0.2867
     16  CB         1.2750  -18.4890  -46.2980 C.3   197  ALA197      0.0290
     17  N          1.6610  -12.2490  -43.2350 N.3   201  LEU201     -0.1245
     18  CA         1.2530  -12.4410  -41.8470 C.3   201  LEU201      0.1561
     19  C          2.2820  -11.8610  -40.8810 C.2   201  LEU201      0.2260
     20  O          1.9270  -11.3710  -39.8090 O.2   201  LEU201     -0.2867
     21  CB         1.0300  -13.9270  -41.5500 C.3   201  LEU201      0.0270
     22  CG        -0.3700  -14.5140  -41.7640 C.3   201  LEU201      0.0019
     23  CD1       -0.8140  -14.3900  -43.2130 C.3   201  LEU201      0.0001
     24  CD2       -0.4070  -15.9690  -41.3120 C.3   201  LEU201      0.0001
     25  N          3.2090  -37.4050  -48.8810 N.3   406  PRO406     -0.2116
     26  CA         1.8080  -37.6510  -48.5110 C.3   406  PRO406      0.1372
     27  C          1.2220  -38.8500  -49.2500 C.2   406  PRO406      0.2244
     28  O          1.7000  -39.1840  -50.3320 O.2   406  PRO406     -0.2868
     29  CB         1.0980  -36.3550  -48.9250 C.3   406  PRO406      0.0268
     30  CG         2.1770  -35.3280  -48.9870 C.3   406  PRO406      0.0207
     31  CD         3.3930  -36.0600  -49.4550 C.3   406  PRO406      0.0892
     32  N         -1.3250  -39.1620  -50.9840 N.3   408  ASP408     -0.1239
     33  CA        -1.9490  -38.8430  -52.2660 C.3   408  ASP408      0.1674
     34  C         -0.9550  -38.2580  -53.2670 C.2   408  ASP408      0.2266
     35  O         -1.3480  -37.7130  -54.2970 O.2   408  ASP408     -0.2867
     36  CB        -3.1210  -37.8790  -52.0660 C.3   408  ASP408      0.1410
     37  CG        -2.6990  -36.5650  -51.4370 C.2   408  ASP408      0.3668
     38  OD1       -1.6510  -36.5330  -50.7570 O.co2 408  ASP408     -0.2456
     39  OD2       -3.4240  -35.5630  -51.6220 O.co2 408  ASP408     -0.2456
     40  N         -5.6550  -35.2200  -40.3270 N.3   592  LEU592     -0.1231
     41  CA        -5.8880  -33.7930  -40.5110 C.3   592  LEU592      0.1693
     42  C         -4.8250  -33.1720  -41.4050 C.2   592  LEU592      0.2592
     43  O         -5.1280  -32.3530  -42.2710 O.2   592  LEU592     -0.2718
     44  CB        -5.9110  -33.0660  -39.1620 C.3   592  LEU592      0.0284
     45  CG        -6.6490  -33.7150  -37.9900 C.3   592  LEU592      0.0019
     46  CD1       -6.3530  -32.9660  -36.6970 C.3   592  LEU592      0.0001
     47  CD2       -8.1490  -33.7690  -38.2490 C.3   592  LEU592      0.0001
     48  N         -3.5770  -33.5770  -41.1930 N.am  593  MET593     -0.1965
     49  CA        -2.4460  -32.9340  -41.8450 C.3   593  MET593      0.1736
     50  C         -1.8570  -33.7530  -42.9940 C.2   593  MET593      0.2616
     51  O         -0.8120  -33.3990  -43.5380 O.2   593  MET593     -0.2715
     52  CB        -1.3660  -32.6250  -40.8080 C.3   593  MET593      0.0427
     53  CG        -1.6550  -31.3730  -39.9850 C.3   593  MET593      0.0599
     54  SD        -1.6010  -29.8920  -41.0100 S.3   593  MET593     -0.1393
     55  CE        -2.3160  -28.6770  -39.9100 C.3   593  MET593      0.0692
     56  N         -2.5310  -34.8430  -43.3550 N.am  594  ASN594     -0.1972
     57  CA        -2.1870  -35.6240  -44.5430 C.3   594  ASN594      0.1688
     58  C         -0.7530  -36.1710  -44.5540 C.2   594  ASN594      0.2292
     59  O         -0.0560  -36.0880  -45.5650 O.2   594  ASN594     -0.2864
     60  CB        -2.4190  -34.7780  -45.7970 C.3   594  ASN594      0.1181
     61  CG        -2.4720  -35.6070  -47.0610 C.2   594  ASN594      0.2629
     62  OD1       -2.7810  -36.7980  -47.0240 O.2   594  ASN594     -0.2716
     63  ND2       -2.1620  -34.9820  -48.1910 N.am  594  ASN594     -0.0877
     64  N          4.7050  -15.0800  -32.2950 N.3   657  LEU657     -0.1245
     65  CA         3.7750  -15.2060  -33.4150 C.3   657  LEU657      0.1561
     66  C          4.4830  -15.1440  -34.7650 C.2   657  LEU657      0.2260
     67  O          4.1760  -15.9260  -35.6640 O.2   657  LEU657     -0.2867
     68  CB         2.6990  -14.1190  -33.3420 C.3   657  LEU657      0.0270
     69  CG         1.6520  -14.2660  -32.2340 C.3   657  LEU657      0.0019
     70  CD1        0.7410  -13.0480  -32.1800 C.3   657  LEU657      0.0001
     71  CD2        0.8400  -15.5370  -32.4290 C.3   657  LEU657      0.0001
     72  N          6.1260  -18.2790  -35.1110 N.3   660  ALA660     -0.1231
     73  CA         5.0710  -19.2830  -35.2140 C.3   660  ALA660      0.1694
     74  C          4.4190  -19.2670  -36.5910 C.2   660  ALA660      0.2591
     75  O          4.0840  -20.3170  -37.1420 O.2   660  ALA660     -0.2718
     76  CB         4.0240  -19.0660  -34.1340 C.3   660  ALA660      0.0304
     77  N          4.2380  -18.0700  -37.1410 N.am  661  VAL661     -0.1980
     78  CA         3.6440  -17.9150  -38.4650 C.3   661  VAL661      0.1595
     79  C          4.4760  -18.6110  -39.5410 C.2   661  VAL661      0.2287
     80  O          3.9460  -19.3860  -40.3380 O.2   661  VAL661     -0.2864
     81  CB         3.4750  -16.4240  -38.8310 C.3   661  VAL661      0.0276
     82  CG1        3.4080  -16.2440  -40.3370 C.3   661  VAL661      0.0022
     83  CG2        2.2330  -15.8520  -38.1630 C.3   661  VAL661      0.0022
     84  N          4.3240  -22.2370  -39.1210 N.3   664  GLY664     -0.1210
     85  CA         3.0050  -22.6850  -39.5310 C.3   664  GLY664      0.1956
     86  C          2.8250  -22.7770  -41.0340 C.2   664  GLY664      0.2611
     87  O          1.8760  -23.3910  -41.5160 O.2   664  GLY664     -0.2717
     88  N          3.7280  -22.1540  -41.7820 N.am  665  ALA665     -0.1979
     89  CA         3.7250  -22.2900  -43.2320 C.3   665  ALA665      0.1597
     90  C          4.4000  -23.5980  -43.6180 C.2   665  ALA665      0.2287
     91  O          3.9950  -24.2640  -44.5710 O.2   665  ALA665     -0.2864
     92  CB         4.4260  -21.1130  -43.8860 C.3   665  ALA665      0.0319
     93  N          4.5380  -26.3050  -41.7870 N.3   667  VAL667     -0.1231
     94  CA         3.8400  -27.4890  -41.2990 C.3   667  VAL667      0.1692
     95  C          3.0390  -28.1420  -42.4250 C.2   667  VAL667      0.2592
     96  O          2.6450  -29.3020  -42.3180 O.2   667  VAL667     -0.2718
     97  CB         2.8920  -27.1710  -40.1150 C.3   667  VAL667      0.0266
     98  CG1        3.6410  -26.4660  -39.0000 C.3   667  VAL667      0.0020
     99  CG2        1.7000  -26.3490  -40.5750 C.3   667  VAL667      0.0020
    100  N          2.8090  -27.3970  -43.5040 N.am  668  PHE668     -0.1976
    101  CA         2.0630  -27.9080  -44.6510 C.3   668  PHE668      0.1639
    102  C          2.9830  -28.4870  -45.7240 C.2   668  PHE668      0.2290
    103  O          2.6040  -28.5950  -46.8910 O.2   668  PHE668     -0.2864
    104  CB         1.1920  -26.8040  -45.2520 C.3   668  PHE668      0.0560
    105  CG         0.0930  -26.3390  -44.3410 C.ar  668  PHE668     -0.0200
    106  CD1       -1.0820  -27.0610  -44.2310 C.ar  668  PHE668     -0.0042
    107  CD2        0.2360  -25.1830  -43.5940 C.ar  668  PHE668     -0.0042
    108  CE1       -2.0930  -26.6410  -43.3930 C.ar  668  PHE668     -0.0003
    109  CE2       -0.7700  -24.7580  -42.7520 C.ar  668  PHE668     -0.0003
    110  CZ        -1.9380  -25.4870  -42.6520 C.ar  668  PHE668     -0.0000
    111  N          5.0540  -31.2570  -47.8450 N.3   670  ASP670     -0.1239
    112  CA         4.8130  -32.6380  -48.2490 C.3   670  ASP670      0.1674
    113  C          5.8710  -33.5830  -47.6710 C.2   670  ASP670      0.2266
    114  O          5.7110  -34.8030  -47.7080 O.2   670  ASP670     -0.2867
    115  CB         4.7810  -32.7540  -49.7730 C.3   670  ASP670      0.1410
    116  CG         3.5550  -32.1070  -50.3810 C.2   670  ASP670      0.3668
    117  OD1        2.6120  -31.7880  -49.6280 O.co2 670  ASP670     -0.2456
    118  OD2        3.5300  -31.9260  -51.6160 O.co2 670  ASP670     -0.2456
    119  N          7.5950  -31.3190  -41.9400 N.3   675  LYS675     -0.1245
    120  CA         6.3920  -31.2800  -41.1080 C.3   675  LYS675      0.1561
    121  C          6.7460  -31.4740  -39.6400 C.2   675  LYS675      0.2260
    122  O          6.3850  -30.6680  -38.7800 O.2   675  LYS675     -0.2867
    123  CB         5.4000  -32.3610  -41.5350 C.3   675  LYS675      0.0271
    124  CG         4.4400  -31.9610  -42.6360 C.3   675  LYS675      0.0035
    125  CD         3.0940  -32.6500  -42.4380 C.3   675  LYS675      0.0206
    126  CE         2.2460  -32.5920  -43.6850 C.3   675  LYS675      0.1093
    127  NZ         2.2080  -31.2160  -44.2450 N.3   675  LYS675     -0.1314
    128  N          6.5220  -24.8830  -33.5400 N.3   682  LEU682     -0.1245
    129  CA         5.2150  -24.4260  -33.0800 C.3   682  LEU682      0.1561
    130  C          4.9150  -24.8700  -31.6550 C.2   682  LEU682      0.2260
    131  O          4.6280  -24.0450  -30.7880 O.2   682  LEU682     -0.2867
    132  CB         4.1150  -24.9320  -34.0140 C.3   682  LEU682      0.0270
    133  CG         3.6390  -23.9730  -35.1030 C.3   682  LEU682      0.0019
    134  CD1        2.4510  -24.5660  -35.8490 C.3   682  LEU682      0.0001
    135  CD2        3.2770  -22.6290  -34.4950 C.3   682  LEU682      0.0001
    136  N          4.8620  -22.3850  -28.5930 N.3   686  LEU686     -0.1245
    137  CA         3.5890  -22.1180  -27.9370 C.3   686  LEU686      0.1561
    138  C          3.6780  -22.4630  -26.4530 C.2   686  LEU686      0.2260
    139  O          3.1460  -21.7450  -25.6050 O.2   686  LEU686     -0.2867
    140  CB         2.4600  -22.9020  -28.6120 C.3   686  LEU686      0.0270
    141  CG         1.0260  -22.5970  -28.1680 C.3   686  LEU686      0.0019
    142  CD1        0.0950  -22.6090  -29.3670 C.3   686  LEU686      0.0001
    143  CD2        0.5530  -23.5950  -27.1210 C.3   686  LEU686      0.0001
@<TRIPOS>BOND
     1    35    34    2
     2    34    33    1
     3    33    36    1
     4    33    32    1
     5    36    37    1
     6    39    37   ar
     7   118   116   ar
     8    37    38   ar
     9     1     2    1
    10   116   115    1
    11   116   117   ar
    12    28    27    2
    13   115   112    1
    14    11     9    1
    15     2     5    1
    16     2     3    1
    17    31    30    1
    18    31    25    1
    19    27    26    1
    20    30    29    1
    21    29    26    1
    22     5     6    1
    23    25    26    1
    24     3     4    2
    25     9    10    1
    26     9     8    2
    27   112   111    1
    28   112   113    1
    29    63    61   am
    30    12    13    1
    31     6     7    1
    32     7     8    1
    33   114   113    2
    34    61    62    2
    35    61    60    1
    36   103   102    2
    37    13    16    1
    38    13    14    1
    39    60    57    1
    40   102   101    1
    41    59    58    2
    42    14    15    2
    43   104   101    1
    44   104   105    1
    45   101   100    1
    46    91    90    2
    47    58    57    1
    48    57    56    1
    49   105   106   ar
    50   105   107   ar
    51   127   126    1
    52   106   108   ar
    53    92    89    1
    54   126   125    1
    55    90    89    1
    56   107   109   ar
    57    51    50    2
    58   100    95   am
    59   108   110   ar
    60    56    50   am
    61    17    18    1
    62    89    88    1
    63    23    22    1
    64    50    49    1
    65   109   110   ar
    66   124   125    1
    67   124   123    1
    68    95    96    2
    69    95    94    1
    70    43    42    2
    71   119   120    1
    72    18    21    1
    73    18    19    1
    74    49    48    1
    75    49    52    1
    76    93    94    1
    77    88    86   am
    78    22    21    1
    79    22    24    1
    80   123   120    1
    81    87    86    2
    82    42    48   am
    83    42    41    1
    84    94    97    1
    85   120   121    1
    86    86    85    1
    87    54    53    1
    88    54    55    1
    89    19    20    2
    90    52    53    1
    91    99    97    1
    92    41    40    1
    93    41    44    1
    94    80    79    2
    95    82    81    1
    96    97    98    1
    97   121   122    2
    98    79    78    1
    99    85    84    1
   100    44    45    1
   101    81    78    1
   102    81    83    1
   103    78    77    1
   104    47    45    1
   105    45    46    1
   106    75    74    2
   107    77    74   am
   108    74    73    1
   109   134   133    1
   110    67    66    2
   111    73    72    1
   112    73    76    1
   113   133   135    1
   114   133   132    1
   115    66    65    1
   116   132   129    1
   117   128   129    1
   118    65    68    1
   119    65    64    1
   120    68    69    1
   121   129   130    1
   122    71    69    1
   123    69    70    1
   124   130   131    2
   125   142   141    1
   126   140   141    1
   127   140   137    1
   128   136   137    1
   129   141   143    1
   130   137   138    1
   131   138   139    2
