@<TRIPOS>MOLECULE
tmp/6ajfA05.pdb
 106 101 0 0 0
SMALL
GASTEIGER

@<TRIPOS>ATOM
      1  N         26.5050  -16.6990  -47.5720 N.3   233  ILE233     -0.1231
      2  CA        27.4820  -17.4190  -46.7710 C.3   233  ILE233      0.1692
      3  C         27.4000  -18.9150  -47.0630 C.2   233  ILE233      0.2591
      4  O         28.4190  -19.5640  -47.2930 O.2   233  ILE233     -0.2718
      5  CB        27.2780  -17.1700  -45.2650 C.3   233  ILE233      0.0266
      6  CG1       27.6570  -15.7320  -44.9120 C.3   233  ILE233      0.0019
      7  CG2       28.1130  -18.1400  -44.4410 C.3   233  ILE233      0.0020
      8  CD1       27.6030  -15.4380  -43.4340 C.3   233  ILE233      0.0001
      9  N         26.1840  -19.4530  -47.0720 N.am  234  MET234     -0.1979
     10  CA        25.9820  -20.8760  -47.3250 C.3   234  MET234      0.1605
     11  C         26.4670  -21.2760  -48.7130 C.2   234  MET234      0.2287
     12  O         26.9550  -22.3890  -48.9140 O.2   234  MET234     -0.2864
     13  CB        24.5090  -21.2490  -47.1500 C.3   234  MET234      0.0413
     14  CG        24.0970  -21.4580  -45.7030 C.3   234  MET234      0.0598
     15  SD        25.1330  -22.6800  -44.8690 S.3   234  MET234     -0.1393
     16  CE        26.1560  -21.6180  -43.8560 C.3   234  MET234      0.0692
     17  N         30.1370  -21.5290  -48.3660 N.3   237  VAL237     -0.1245
     18  CA        30.4250  -22.7740  -47.6650 C.3   237  VAL237      0.1561
     19  C         30.3540  -23.9650  -48.6240 C.2   237  VAL237      0.2260
     20  O         31.0960  -24.9380  -48.4810 O.2   237  VAL237     -0.2867
     21  CB        29.4440  -22.9810  -46.4810 C.3   237  VAL237      0.0252
     22  CG1       29.6300  -24.3450  -45.8360 C.3   237  VAL237      0.0019
     23  CG2       29.6240  -21.8800  -45.4460 C.3   237  VAL237      0.0019
     24  N         33.5530  -25.3590  -50.3210 N.3   240  PHE240     -0.1227
     25  CA        34.5620  -26.1050  -49.5760 C.3   240  PHE240      0.1736
     26  C         34.0200  -27.3950  -48.9620 C.2   240  PHE240      0.2596
     27  O         34.7880  -28.2910  -48.6120 O.2   240  PHE240     -0.2718
     28  CB        35.1590  -25.2200  -48.4800 C.3   240  PHE240      0.0547
     29  CG        35.6470  -23.8880  -48.9780 C.ar  240  PHE240     -0.0202
     30  CD1       36.7570  -23.8050  -49.8050 C.ar  240  PHE240     -0.0042
     31  CD2       34.9960  -22.7180  -48.6210 C.ar  240  PHE240     -0.0042
     32  CE1       37.2060  -22.5820  -50.2660 C.ar  240  PHE240     -0.0003
     33  CE2       35.4420  -21.4910  -49.0780 C.ar  240  PHE240     -0.0003
     34  CZ        36.5490  -21.4230  -49.9020 C.ar  240  PHE240     -0.0000
     35  N         32.7020  -27.4880  -48.8330 N.am  241  THR241     -0.1939
     36  CA        32.0760  -28.6630  -48.2360 C.3   241  THR241      0.2013
     37  C         30.6080  -28.7580  -48.6550 C.2   241  THR241      0.2484
     38  O         29.9440  -27.7350  -48.8300 O.2   241  THR241     -0.2729
     39  CB        32.1940  -28.6360  -46.6920 C.3   241  THR241      0.1807
     40  OG1       31.5940  -29.8100  -46.1310 O.3   241  THR241     -0.2208
     41  CG2       31.5190  -27.4020  -46.1220 C.3   241  THR241      0.0379
     42  N         30.1050  -29.9900  -48.8450 N.am  242  PRO242     -0.2726
     43  CA        28.7220  -30.2210  -49.2790 C.3   242  PRO242      0.1402
     44  C         27.6780  -29.5410  -48.3960 C.2   242  PRO242      0.2269
     45  O         27.8010  -29.5460  -47.1710 O.2   242  PRO242     -0.2865
     46  CB        28.5870  -31.7430  -49.1990 C.3   242  PRO242      0.0296
     47  CG        29.9580  -32.2400  -49.4470 C.3   242  PRO242      0.0237
     48  CD        30.8710  -31.2470  -48.7860 C.3   242  PRO242      0.0939
     49  N         25.5100  -31.3590  -40.4450 N.3   318  LYS318     -0.1245
     50  CA        26.6050  -30.4010  -40.5020 C.3   318  LYS318      0.1561
     51  C         26.2290  -29.1780  -41.3360 C.2   318  LYS318      0.2260
     52  O         26.4800  -28.0430  -40.9290 O.2   318  LYS318     -0.2867
     53  CB        27.8660  -31.0670  -41.0590 C.3   318  LYS318      0.0271
     54  CG        28.4070  -32.1780  -40.1710 C.3   318  LYS318      0.0035
     55  CD        29.6960  -32.7670  -40.7250 C.3   318  LYS318      0.0206
     56  CE        30.2570  -33.8400  -39.8000 C.3   318  LYS318      0.1093
     57  NZ        30.5720  -33.2940  -38.4480 N.3   318  LYS318     -0.1314
     58  N         25.6950  -25.2710  -39.8770 N.3   322  TYR322     -0.1241
     59  CA        26.3280  -24.1120  -40.4930 C.3   322  TYR322      0.1605
     60  C         25.2880  -23.0530  -40.8430 C.2   322  TYR322      0.2264
     61  O         25.4740  -21.8680  -40.5610 O.2   322  TYR322     -0.2867
     62  CB        27.0990  -24.5180  -41.7520 C.3   322  TYR322      0.0534
     63  CG        28.1880  -25.5450  -41.5270 C.ar  322  TYR322     -0.0201
     64  CD1       28.8410  -25.6470  -40.3030 C.ar  322  TYR322     -0.0009
     65  CD2       28.5680  -26.4110  -42.5460 C.ar  322  TYR322     -0.0009
     66  CE1       29.8360  -26.5860  -40.1000 C.ar  322  TYR322      0.0417
     67  CE2       29.5620  -27.3520  -42.3530 C.ar  322  TYR322      0.0417
     68  CZ        30.1920  -27.4370  -41.1300 C.ar  322  TYR322      0.1957
     69  OH        31.1820  -28.3770  -40.9440 O.3   322  TYR322     -0.2866
     70  N         23.9390  -21.3270  -37.6600 N.3   325  ILE325     -0.1231
     71  CA        24.9870  -20.4400  -37.1650 C.3   325  ILE325      0.1692
     72  C         25.0890  -19.1820  -38.0170 C.2   325  ILE325      0.2591
     73  O         25.0830  -18.0710  -37.4960 O.2   325  ILE325     -0.2718
     74  CB        26.3620  -21.1430  -37.1440 C.3   325  ILE325      0.0266
     75  CG1       26.3750  -22.2760  -36.1180 C.3   325  ILE325      0.0019
     76  CG2       27.4740  -20.1470  -36.8410 C.3   325  ILE325      0.0020
     77  CD1       27.6670  -23.0640  -36.1080 C.3   325  ILE325      0.0001
     78  N         25.1720  -19.3670  -39.3290 N.am  326  ALA326     -0.1980
     79  CA        25.2750  -18.2510  -40.2550 C.3   326  ALA326      0.1597
     80  C         24.0820  -17.3190  -40.1150 C.2   326  ALA326      0.2287
     81  O         24.2410  -16.1000  -40.0830 O.2   326  ALA326     -0.2864
     82  CB        25.3860  -18.7570  -41.6830 C.3   326  ALA326      0.0319
     83  N         23.7710  -15.6290  -36.3750 N.3   329  MET329     -0.1230
     84  CA        24.9090  -14.7510  -36.1250 C.3   329  MET329      0.1702
     85  C         24.7930  -13.4940  -36.9690 C.2   329  MET329      0.2592
     86  O         24.9750  -12.3860  -36.4680 O.2   329  MET329     -0.2718
     87  CB        26.2350  -15.4610  -36.4020 C.3   329  MET329      0.0401
     88  CG        26.8320  -16.0930  -35.1630 C.3   329  MET329      0.0596
     89  SD        26.9980  -14.8430  -33.8780 S.3   329  MET329     -0.1393
     90  CE        26.7380  -15.8260  -32.4120 C.3   329  MET329      0.0692
     91  N         24.4770  -13.6690  -38.2470 N.am  330  LEU330     -0.1980
     92  CA        24.2720  -12.5290  -39.1260 C.3   330  LEU330      0.1596
     93  C         23.0810  -11.7120  -38.6360 C.2   330  LEU330      0.2287
     94  O         23.0600  -10.4930  -38.7700 O.2   330  LEU330     -0.2864
     95  CB        24.0560  -12.9820  -40.5700 C.3   330  LEU330      0.0297
     96  CG        24.1350  -11.8700  -41.6150 C.3   330  LEU330      0.0022
     97  CD1       25.5320  -11.2740  -41.6600 C.3   330  LEU330      0.0001
     98  CD2       23.7310  -12.3900  -42.9780 C.3   330  LEU330      0.0001
     99  N         24.3570   -9.6630  -35.6490 N.3   333  ILE333     -0.1245
    100  CA        25.2310   -8.6170  -36.1580 C.3   333  ILE333      0.1561
    101  C         24.4060   -7.5390  -36.8500 C.2   333  ILE333      0.2260
    102  O         24.5920   -6.3520  -36.5920 O.2   333  ILE333     -0.2867
    103  CB        26.2870   -9.1800  -37.1280 C.3   333  ILE333      0.0252
    104  CG1       27.2550  -10.0970  -36.3790 C.3   333  ILE333      0.0019
    105  CG2       27.0650   -8.0570  -37.7870 C.3   333  ILE333      0.0019
    106  CD1       28.2550  -10.7860  -37.2770 C.3   333  ILE333      0.0001
@<TRIPOS>BOND
     1    24    25    1
     2    32    34   ar
     3    32    30   ar
     4    34    33   ar
     5    30    29   ar
     6    25    26    1
     7    25    28    1
     8    47    46    1
     9    47    48    1
    10    43    46    1
    11    43    42    1
    12    43    44    1
    13    33    31   ar
    14    29    31   ar
    15    29    28    1
    16    26    35   am
    17    26    27    2
    18    12    11    2
    19    42    48    1
    20    42    37   am
    21    35    36    1
    22    38    37    2
    23    11    10    1
    24    37    36    1
    25    19    20    2
    26    19    18    1
    27    44    45    2
    28    17    18    1
    29    36    39    1
    30    18    21    1
    31     1     2    1
    32    10    13    1
    33    10     9    1
    34     4     3    2
    35    13    14    1
    36     9     3   am
    37     3     2    1
    38     2     5    1
    39    39    40    1
    40    39    41    1
    41    21    22    1
    42    21    23    1
    43    14    15    1
    44     5     6    1
    45     5     7    1
    46     6     8    1
    47    15    16    1
    48    98    96    1
    49    65    67   ar
    50    65    63   ar
    51    67    68   ar
    52    62    63    1
    53    62    59    1
    54    82    79    1
    55    97    96    1
    56    96    95    1
    57    63    64   ar
    58    51    52    2
    59    51    50    1
    60    68    69    1
    61    68    66   ar
    62    53    50    1
    63    53    54    1
    64    60    61    2
    65    60    59    1
    66    55    54    1
    67    55    56    1
    68    95    92    1
    69    50    49    1
    70    59    58    1
    71    64    66   ar
    72    79    80    1
    73    79    78    1
    74    80    81    2
    75    56    57    1
    76    78    72   am
    77    92    93    1
    78    92    91    1
    79    94    93    2
    80    91    85   am
    81    72    73    2
    82    72    71    1
    83   105   103    1
    84    70    71    1
    85   106   104    1
    86    71    74    1
    87    74    76    1
    88    74    75    1
    89   103   104    1
    90   103   100    1
    91    85    86    2
    92    85    84    1
    93   101   102    2
    94   101   100    1
    95    87    84    1
    96    87    88    1
    97    83    84    1
    98   100    99    1
    99    75    77    1
   100    88    89    1
   101    89    90    1
