@<TRIPOS>MOLECULE
tmp/6ajfA00.pdb
 102 98 0 0 0
SMALL
GASTEIGER

@<TRIPOS>ATOM
      1  N         31.7360   18.4220  -15.4390 N.3   732  ASP732     -0.1239
      2  CA        31.3710   19.7640  -15.8830 C.3   732  ASP732      0.1674
      3  C         32.3920   20.8360  -15.4990 C.2   732  ASP732      0.2266
      4  O         32.6760   21.7320  -16.2920 O.2   732  ASP732     -0.2867
      5  CB        29.9920   20.1420  -15.3350 C.3   732  ASP732      0.1410
      6  CG        28.8680   19.4700  -16.0930 C.2   732  ASP732      0.3668
      7  OD1       29.1440   18.9150  -17.1790 O.co2 732  ASP732     -0.2456
      8  OD2       27.7130   19.5010  -15.6130 O.co2 732  ASP732     -0.2456
      9  N         27.1250   26.9540  -11.4630 N.3   827  GLN827     -0.1245
     10  CA        27.5700   27.6300  -12.6730 C.3   827  GLN827      0.1566
     11  C         27.1760   29.1090  -12.7350 C.2   827  GLN827      0.2260
     12  O         27.9400   29.9260  -13.2480 O.2   827  GLN827     -0.2867
     13  CB        27.0340   26.9090  -13.9070 C.3   827  GLN827      0.0367
     14  CG        27.5920   27.4450  -15.2110 C.3   827  GLN827      0.0905
     15  CD        27.0900   26.6840  -16.4140 C.2   827  GLN827      0.2608
     16  OE1       26.2870   25.7550  -16.2880 O.2   827  GLN827     -0.2717
     17  NE2       27.5510   27.0760  -17.5950 N.am  827  GLN827     -0.0878
     18  N         25.5610   29.7720  -24.5990 N.3   863  GLN863     -0.1231
     19  CA        26.9480   30.0510  -24.2480 C.3   863  GLN863      0.1698
     20  C         27.6950   28.7940  -23.8020 C.2   863  GLN863      0.2593
     21  O         28.8950   28.6630  -24.0350 O.2   863  GLN863     -0.2718
     22  CB        27.0080   31.1170  -23.1550 C.3   863  GLN863      0.0381
     23  CG        26.9300   32.5430  -23.6800 C.3   863  GLN863      0.0905
     24  CD        26.2400   33.4830  -22.7140 C.2   863  GLN863      0.2608
     25  OE1       25.7150   33.0560  -21.6860 O.2   863  GLN863     -0.2717
     26  NE2       26.2420   34.7720  -23.0360 N.am  863  GLN863     -0.0878
     27  N         26.9890   27.8710  -23.1600 N.am  864  THR864     -0.1940
     28  CA        27.5930   26.6060  -22.7530 C.3   864  THR864      0.2013
     29  C         26.6930   25.4130  -23.0670 C.2   864  THR864      0.2484
     30  O         26.1100   24.8220  -22.1590 O.2   864  THR864     -0.2729
     31  CB        27.9250   26.5890  -21.2420 C.3   864  THR864      0.1807
     32  OG1       26.7450   26.8780  -20.4830 O.3   864  THR864     -0.2208
     33  CG2       29.0080   27.6110  -20.9110 C.3   864  THR864      0.0379
     34  N         26.6170   25.0250  -24.3520 N.am  865  PRO865     -0.2715
     35  CA        25.7170   23.9530  -24.8010 C.3   865  PRO865      0.1536
     36  C         26.0030   22.5740  -24.2030 C.2   865  PRO865      0.2599
     37  O         25.0730   21.9340  -23.7170 O.2   865  PRO865     -0.2715
     38  CB        25.9310   23.9330  -26.3210 C.3   865  PRO865      0.0310
     39  CG        27.2620   24.5660  -26.5350 C.3   865  PRO865      0.0237
     40  CD        27.3780   25.6080  -25.4700 C.3   865  PRO865      0.0939
     41  N         27.2530   22.1260  -24.2400 N.am  866  ASN866     -0.1959
     42  CA        27.5850   20.7640  -23.8240 C.3   866  ASN866      0.1819
     43  C         27.2860   20.5010  -22.3520 C.2   866  ASN866      0.2621
     44  O         26.8690   19.4020  -21.9840 O.2   866  ASN866     -0.2715
     45  CB        29.0550   20.4700  -24.1100 C.3   866  ASN866      0.1195
     46  CG        29.4510   20.8400  -25.5180 C.2   866  ASN866      0.2630
     47  OD1       29.0150   20.2110  -26.4820 O.2   866  ASN866     -0.2716
     48  ND2       30.2810   21.8670  -25.6480 N.am  866  ASN866     -0.0877
     49  N         27.5050   21.5050  -21.5120 N.am  867  ARG867     -0.1977
     50  CA        27.1990   21.3640  -20.0970 C.3   867  ARG867      0.1597
     51  C         25.7030   21.5140  -19.8680 C.2   867  ARG867      0.2287
     52  O         25.1090   20.7690  -19.0890 O.2   867  ARG867     -0.2864
     53  CB        27.9630   22.3860  -19.2540 C.3   867  ARG867      0.0334
     54  CG        27.6010   22.3080  -17.7750 C.3   867  ARG867      0.0492
     55  CD        28.4350   23.2410  -16.9270 C.3   867  ARG867      0.2205
     56  NE        28.1270   23.1020  -15.5050 N.pl3 867  ARG867     -0.0865
     57  CZ        28.8180   23.6920  -14.5340 C.cat 867  ARG867      0.5346
     58  NH1       29.8610   24.4590  -14.8320 N.pl3 867  ARG867      0.1354
     59  NH2       28.4710   23.5130  -13.2650 N.pl3 867  ARG867      0.1354
     60  N         23.8770   18.5630  -21.0790 N.3   870  ARG870     -0.1245
     61  CA        24.1330   17.5230  -20.0920 C.3   870  ARG870      0.1563
     62  C         23.2070   17.6900  -18.8870 C.2   870  ARG870      0.2260
     63  O         22.5960   16.7280  -18.4180 O.2   870  ARG870     -0.2867
     64  CB        25.6000   17.5670  -19.6550 C.3   870  ARG870      0.0307
     65  CG        26.2880   16.2160  -19.5780 C.3   870  ARG870      0.0489
     66  CD        27.6800   16.2780  -20.1980 C.3   870  ARG870      0.2205
     67  NE        28.4910   17.3520  -19.6320 N.pl3 870  ARG870     -0.0865
     68  CZ        29.3890   18.0540  -20.3190 C.cat 870  ARG870      0.5346
     69  NH1       29.5950   17.8030  -21.6070 N.pl3 870  ARG870      0.1354
     70  NH2       30.0790   19.0140  -19.7200 N.pl3 870  ARG870      0.1354
     71  N         36.6200   18.7230  -20.9820 N.3   890  ILE890     -0.1231
     72  CA        36.3470   20.1430  -21.1620 C.3   890  ILE890      0.1692
     73  C         37.6190   20.9630  -20.9660 C.2   890  ILE890      0.2592
     74  O         38.5040   20.5770  -20.2030 O.2   890  ILE890     -0.2718
     75  CB        35.2350   20.6190  -20.2040 C.3   890  ILE890      0.0266
     76  CG1       35.5470   20.2210  -18.7580 C.3   890  ILE890      0.0019
     77  CG2       33.9010   20.0140  -20.6160 C.3   890  ILE890      0.0020
     78  CD1       36.2270   21.3020  -17.9400 C.3   890  ILE890      0.0001
     79  N         37.7030   22.0940  -21.6590 N.am  891  LYS891     -0.1966
     80  CA        38.9500   22.8460  -21.7430 C.3   891  LYS891      0.1728
     81  C         38.9860   24.0960  -20.8650 C.2   891  LYS891      0.2616
     82  O         39.9980   24.3730  -20.2220 O.2   891  LYS891     -0.2715
     83  CB        39.2200   23.2250  -23.2010 C.3   891  LYS891      0.0311
     84  CG        39.6340   22.0450  -24.0700 C.3   891  LYS891      0.0038
     85  CD        39.2740   22.2640  -25.5310 C.3   891  LYS891      0.0206
     86  CE        37.8140   21.9240  -25.7910 C.3   891  LYS891      0.1093
     87  NZ        37.5080   20.5070  -25.4430 N.3   891  LYS891     -0.1314
     88  N         37.8950   24.8560  -20.8400 N.am  892  ALA892     -0.1977
     89  CA        37.8670   26.0850  -20.0520 C.3   892  ALA892      0.1597
     90  C         37.2660   25.8450  -18.6710 C.2   892  ALA892      0.2287
     91  O         36.0890   25.5080  -18.5340 O.2   892  ALA892     -0.2864
     92  CB        37.1030   27.1760  -20.7860 C.3   892  ALA892      0.0319
     93  N         36.0940   27.1540  -14.9890 N.3   894  HIS894     -0.1241
     94  CA        35.6180   28.3520  -14.3130 C.3   894  HIS894      0.1621
     95  C         35.1300   28.0280  -12.9080 C.2   894  HIS894      0.2264
     96  O         34.3490   27.0970  -12.7150 O.2   894  HIS894     -0.2867
     97  CB        34.5030   29.0210  -15.1150 C.3   894  HIS894      0.0745
     98  CG        34.0850   30.3500  -14.5680 C.ar  894  HIS894      0.0817
     99  ND1       32.8680   30.5550  -13.9560 N.ar  894  HIS894     -0.2268
    100  CD2       34.7330   31.5390  -14.5270 C.ar  894  HIS894      0.1154
    101  CE1       32.7790   31.8160  -13.5690 C.ar  894  HIS894      0.1986
    102  NE2       33.8970   32.4340  -13.9040 N.ar  894  HIS894     -0.2212
@<TRIPOS>BOND
     1    39    38    1
     2    39    40    1
     3    47    46    2
     4    38    35    1
     5    86    85    1
     6    86    87    1
     7    48    46   am
     8    85    84    1
     9    46    45    1
    10    40    34    1
    11    35    34    1
    12    35    36    1
    13    18    19    1
    14    34    29   am
    15    19    20    1
    16    19    22    1
    17    41    36   am
    18    41    42    1
    19    36    37    2
    20    45    42    1
    21    84    83    1
    22    21    20    2
    23    42    43    1
    24    20    27   am
    25    23    22    1
    26    23    24    1
    27    83    80    1
    28    27    28    1
    29    29    28    1
    30    29    30    2
    31    26    24   am
    32    28    31    1
    33    24    25    2
    34    43    44    2
    35    43    49   am
    36    80    79    1
    37    80    81    1
    38    79    73   am
    39    69    68    1
    40    49    50    1
    41    31    33    1
    42    31    32    1
    43    72    71    1
    44    72    73    1
    45    72    75    1
    46    60    61    1
    47    73    74    2
    48    81    88   am
    49    81    82    2
    50    88    89    1
    51    92    89    1
    52    77    75    1
    53    68    70    1
    54    68    67    2
    55    75    76    1
    56    66    67    1
    57    66    65    1
    58    50    51    1
    59    50    53    1
    60    61    64    1
    61    61    62    1
    62    89    90    1
    63    51    52    2
    64    64    65    1
    65    53    54    1
    66    62    63    2
    67    76    78    1
    68    90    91    2
    69    54    55    1
    70    17    15   am
    71     7     6   ar
    72    55    56    1
    73    15    16    2
    74    15    14    1
    75     4     3    2
    76     6     8   ar
    77     6     5    1
    78     2     3    1
    79     2     1    1
    80     2     5    1
    81    56    57    2
    82    14    13    1
    83    97    98    1
    84    97    94    1
    85    93    94    1
    86    58    57    1
    87    98   100   ar
    88    98    99   ar
    89    57    59    1
    90   100   102   ar
    91    94    95    1
    92    99   101   ar
    93    13    10    1
    94   102   101   ar
    95    12    11    2
    96    95    96    2
    97    11    10    1
    98    10     9    1
