@<TRIPOS>MOLECULE
tmp/6ajfA04.pdb
 150 139 0 0 0
SMALL
GASTEIGER

@<TRIPOS>ATOM
      1  N         20.1350  -50.3900  -60.8250 N.3    71  THR71      -0.1203
      2  CA        18.9430  -51.1240  -61.2350 C.3    71  THR71       0.1994
      3  C         17.6720  -50.5010  -60.6690 C.2    71  THR71       0.2618
      4  O         16.5800  -50.6850  -61.2060 O.2    71  THR71      -0.2717
      5  CB        19.0100  -52.5970  -60.7890 C.3    71  THR71       0.1784
      6  OG1       18.9730  -52.6670  -59.3580 O.3    71  THR71      -0.2211
      7  CG2       20.2830  -53.2560  -61.2990 C.3    71  THR71       0.0376
      8  N         17.8270  -49.7610  -59.5790 N.am   72  SER72      -0.1951
      9  CA        16.6950  -49.1970  -58.8640 C.3    72  SER72       0.1924
     10  C         16.6130  -47.6850  -59.0540 C.2    72  SER72       0.2314
     11  O         15.8180  -47.0170  -58.4000 O.2    72  SER72      -0.2863
     12  CB        16.7950  -49.5480  -57.3760 C.3    72  SER72       0.2116
     13  OG        15.7830  -48.9130  -56.6190 O.3    72  SER72      -0.2180
     14  N         12.4560  -46.7720  -62.3710 N.3    75  VAL75      -0.1245
     15  CA        11.6180  -47.9100  -62.6900 C.3    75  VAL75       0.1561
     16  C         10.3080  -47.3670  -63.2690 C.2    75  VAL75       0.2260
     17  O          9.6780  -46.4730  -62.6930 O.2    75  VAL75      -0.2867
     18  CB        11.3930  -48.7850  -61.4380 C.3    75  VAL75       0.0252
     19  CG1        9.9240  -49.0790  -61.2190 C.3    75  VAL75       0.0019
     20  CG2       12.2160  -50.0660  -61.5340 C.3    75  VAL75       0.0019
     21  N         16.3630  -51.3980  -69.1450 N.3   114  VAL114     -0.1245
     22  CA        16.3670  -52.8420  -68.9740 C.3   114  VAL114      0.1561
     23  C         14.9720  -53.3340  -68.6270 C.2   114  VAL114      0.2260
     24  O         14.2890  -52.7360  -67.7970 O.2   114  VAL114     -0.2867
     25  CB        17.3500  -53.2700  -67.8630 C.3   114  VAL114      0.0252
     26  CG1       17.2770  -54.7730  -67.6260 C.3   114  VAL114      0.0019
     27  CG2       18.7640  -52.8410  -68.2140 C.3   114  VAL114      0.0019
     28  N         12.4660  -55.5470  -73.6860 N.3   118  LYS118     -0.1231
     29  CA        13.6360  -55.5450  -74.5570 C.3   118  LYS118      0.1693
     30  C         13.8310  -56.9080  -75.2130 C.2   118  LYS118      0.2591
     31  O         14.3270  -57.0080  -76.3360 O.2   118  LYS118     -0.2718
     32  CB        14.8860  -55.1470  -73.7730 C.3   118  LYS118      0.0285
     33  CG        15.9410  -54.4640  -74.6200 C.3   118  LYS118      0.0035
     34  CD        16.8390  -53.5880  -73.7730 C.3   118  LYS118      0.0206
     35  CE        17.4600  -52.4780  -74.6040 C.3   118  LYS118      0.1093
     36  NZ        18.2600  -51.5480  -73.7600 N.3   118  LYS118     -0.1314
     37  N         13.4400  -57.9560  -74.4960 N.am  119  ALA119     -0.1980
     38  CA        13.4500  -59.3090  -75.0340 C.3   119  ALA119      0.1597
     39  C         12.2430  -60.0660  -74.5030 C.2   119  ALA119      0.2287
     40  O         12.3730  -60.8840  -73.5940 O.2   119  ALA119     -0.2864
     41  CB        14.7380  -60.0260  -74.6700 C.3   119  ALA119      0.0319
     42  N         13.6510  -66.6190  -69.0270 N.3   124  ASP124     -0.1239
     43  CA        14.2900  -66.1550  -67.8040 C.3   124  ASP124      0.1674
     44  C         13.2070  -65.7330  -66.8180 C.2   124  ASP124      0.2266
     45  O         12.5160  -64.7400  -67.0430 O.2   124  ASP124     -0.2867
     46  CB        15.2470  -64.9950  -68.0950 C.3   124  ASP124      0.1410
     47  CG        16.2010  -64.7120  -66.9450 C.2   124  ASP124      0.3668
     48  OD1       15.7440  -64.6320  -65.7850 O.co2 124  ASP124     -0.2456
     49  OD2       17.4150  -64.5690  -67.2040 O.co2 124  ASP124     -0.2456
     50  N         13.0060  -64.3940  -63.7320 N.3   126  THR126     -0.1203
     51  CA        13.0190  -63.0740  -63.1130 C.3   126  THR126      0.1994
     52  C         12.6600  -61.9900  -64.1240 C.2   126  THR126      0.2617
     53  O         11.9210  -61.0570  -63.8090 O.2   126  THR126     -0.2717
     54  CB        14.3890  -62.7530  -62.4920 C.3   126  THR126      0.1784
     55  OG1       15.3800  -62.6910  -63.5250 O.3   126  THR126     -0.2211
     56  CG2       14.7780  -63.8220  -61.4810 C.3   126  THR126      0.0376
     57  N         13.1850  -62.1210  -65.3380 N.am  127  VAL127     -0.1979
     58  CA        12.9040  -61.1590  -66.3960 C.3   127  VAL127      0.1595
     59  C         11.4540  -61.2830  -66.8600 C.2   127  VAL127      0.2287
     60  O         10.8040  -60.2850  -67.1760 O.2   127  VAL127     -0.2864
     61  CB        13.8610  -61.3420  -67.5940 C.3   127  VAL127      0.0276
     62  CG1       13.4850  -60.4150  -68.7410 C.3   127  VAL127      0.0022
     63  CG2       15.2960  -61.0900  -67.1610 C.3   127  VAL127      0.0022
     64  N          8.7530  -59.3520  -64.9410 N.3   130  MET130     -0.1245
     65  CA         8.6580  -57.9070  -65.0970 C.3   130  MET130      0.1570
     66  C          7.3610  -57.5390  -65.8110 C.2   130  MET130      0.2261
     67  O          7.1300  -56.3830  -66.1660 O.2   130  MET130     -0.2867
     68  CB         9.8720  -57.3660  -65.8540 C.3   130  MET130      0.0387
     69  CG        11.1750  -57.5080  -65.0810 C.3   130  MET130      0.0595
     70  SD        12.4830  -56.4390  -65.7000 S.3   130  MET130     -0.1393
     71  CE        13.5260  -57.6240  -66.5340 C.3   130  MET130      0.0692
     72  N          6.9930  -53.4130  -66.4070 N.3   139  PHE139     -0.1241
     73  CA         7.8850  -52.3410  -65.9940 C.3   139  PHE139      0.1605
     74  C          9.2850  -52.5350  -66.5490 C.2   139  PHE139      0.2264
     75  O          9.7010  -53.6530  -66.8600 O.2   139  PHE139     -0.2867
     76  CB         7.9300  -52.2240  -64.4660 C.3   139  PHE139      0.0534
     77  CG         8.9820  -53.0780  -63.8150 C.ar  139  PHE139     -0.0203
     78  CD1        8.7240  -54.4030  -63.5050 C.ar  139  PHE139     -0.0042
     79  CD2       10.2260  -52.5470  -63.4920 C.ar  139  PHE139     -0.0042
     80  CE1        9.6880  -55.1890  -62.8980 C.ar  139  PHE139     -0.0003
     81  CE2       11.1930  -53.3270  -62.8890 C.ar  139  PHE139     -0.0003
     82  CZ        10.9250  -54.6500  -62.5910 C.ar  139  PHE139     -0.0000
     83  N         13.5370  -51.0640  -66.0780 N.3   141  SER141     -0.1217
     84  CA        14.4960  -50.3570  -65.2430 C.3   141  SER141      0.1889
     85  C         15.3390  -49.4410  -66.1170 C.2   141  SER141      0.2288
     86  O         15.8320  -49.8580  -67.1650 O.2   141  SER141     -0.2866
     87  CB        15.3830  -51.3350  -64.4760 C.3   141  SER141      0.2089
     88  OG        16.3150  -50.6410  -63.6660 O.3   141  SER141     -0.2183
     89  N         10.9360  -45.3710  -58.3650 N.3   175  GLY175     -0.1210
     90  CA        12.2910  -45.7000  -58.0710 C.3   175  GLY175      0.1956
     91  C         12.9360  -44.6120  -57.2830 C.2   175  GLY175      0.2611
     92  O         12.3340  -43.6310  -56.9410 O.2   175  GLY175     -0.2717
     93  N         14.2040  -44.8170  -57.0260 N.am  176  LEU176     -0.1979
     94  CA        15.0220  -43.9370  -56.2520 C.3   176  LEU176      0.1596
     95  C         15.0130  -42.4980  -56.6650 C.2   176  LEU176      0.2287
     96  O         14.9240  -41.6310  -55.8580 O.2   176  LEU176     -0.2864
     97  CB        16.4460  -44.4380  -56.3730 C.3   176  LEU176      0.0297
     98  CG        17.1490  -45.0330  -55.1780 C.3   176  LEU176      0.0022
     99  CD1       16.1740  -45.5950  -54.1800 C.3   176  LEU176      0.0001
    100  CD2       18.0810  -46.1010  -55.6730 C.3   176  LEU176      0.0001
    101  N         11.4200  -40.4970  -56.5890 N.3   179  LEU179     -0.1245
    102  CA        11.1570  -40.1490  -55.1960 C.3   179  LEU179      0.1561
    103  C         12.0980  -39.0380  -54.7240 C.2   179  LEU179      0.2260
    104  O         11.6540  -38.0630  -54.1110 O.2   179  LEU179     -0.2867
    105  CB        11.2890  -41.3780  -54.2950 C.3   179  LEU179      0.0270
    106  CG        10.1680  -42.4060  -54.4620 C.3   179  LEU179      0.0019
    107  CD1       10.4710  -43.6920  -53.6970 C.3   179  LEU179      0.0001
    108  CD2        8.8320  -41.8120  -54.0280 C.3   179  LEU179      0.0001
    109  N          5.2930  -45.7560  -56.8650 N.3   415  GLN415     -0.1245
    110  CA         6.1420  -46.6700  -56.1150 C.3   415  GLN415      0.1566
    111  C          5.3220  -47.7630  -55.4380 C.2   415  GLN415      0.2260
    112  O          5.5990  -48.9530  -55.6020 O.2   415  GLN415     -0.2867
    113  CB         6.9530  -45.9030  -55.0690 C.3   415  GLN415      0.0367
    114  CG         7.7990  -46.7960  -54.1950 C.3   415  GLN415      0.0905
    115  CD         8.7830  -47.6090  -55.0010 C.2   415  GLN415      0.2608
    116  OE1        9.5040  -47.0710  -55.8410 O.2   415  GLN415     -0.2717
    117  NE2        8.8110  -48.9150  -54.7600 N.am  415  GLN415     -0.0878
    118  N          4.1940  -50.1070  -57.8570 N.3   418  PHE418     -0.1241
    119  CA         5.2660  -50.9550  -58.3570 C.3   418  PHE418      0.1605
    120  C          5.4270  -52.1530  -57.4360 C.2   418  PHE418      0.2264
    121  O          5.5070  -53.2970  -57.8880 O.2   418  PHE418     -0.2867
    122  CB         6.5890  -50.1980  -58.4610 C.3   418  PHE418      0.0534
    123  CG         7.7610  -51.0880  -58.7570 C.ar  418  PHE418     -0.0203
    124  CD1        7.9620  -51.5850  -60.0330 C.ar  418  PHE418     -0.0042
    125  CD2        8.6440  -51.4550  -57.7520 C.ar  418  PHE418     -0.0042
    126  CE1        9.0320  -52.4160  -60.3070 C.ar  418  PHE418     -0.0003
    127  CE2        9.7130  -52.2860  -58.0220 C.ar  418  PHE418     -0.0003
    128  CZ         9.9070  -52.7660  -59.3020 C.ar  418  PHE418     -0.0000
    129  N         10.8830  -57.4050  -56.6560 N.3   425  PHE425     -0.1227
    130  CA        12.0640  -56.7150  -57.1610 C.3   425  PHE425      0.1736
    131  C         12.6790  -55.7180  -56.1820 C.2   425  PHE425      0.2595
    132  O         13.8910  -55.4930  -56.2060 O.2   425  PHE425     -0.2718
    133  CB        11.7190  -56.0170  -58.4760 C.3   425  PHE425      0.0547
    134  CG        11.3260  -56.9690  -59.5700 C.ar  425  PHE425     -0.0202
    135  CD1       10.0130  -57.3890  -59.7030 C.ar  425  PHE425     -0.0042
    136  CD2       12.2740  -57.4580  -60.4540 C.ar  425  PHE425     -0.0042
    137  CE1        9.6520  -58.2710  -60.7030 C.ar  425  PHE425     -0.0003
    138  CE2       11.9180  -58.3400  -61.4560 C.ar  425  PHE425     -0.0003
    139  CZ        10.6060  -58.7470  -61.5810 C.ar  425  PHE425     -0.0000
    140  N         11.8570  -55.1230  -55.3240 N.am  426  ARG426     -0.1980
    141  CA        12.3680  -54.1520  -54.3620 C.3   426  ARG426      0.1597
    142  C         12.9830  -54.8510  -53.1620 C.2   426  ARG426      0.2287
    143  O         12.2750  -55.3170  -52.2710 O.2   426  ARG426     -0.2864
    144  CB        11.2680  -53.2020  -53.8930 C.3   426  ARG426      0.0334
    145  CG        11.7870  -52.0940  -53.0010 C.3   426  ARG426      0.0492
    146  CD        10.6780  -51.1950  -52.5100 C.3   426  ARG426      0.2205
    147  NE        11.2060  -50.0730  -51.7420 N.pl3 426  ARG426     -0.0865
    148  CZ        10.4550  -49.1250  -51.1930 C.cat 426  ARG426      0.5346
    149  NH1        9.1370  -49.1620  -51.3280 N.pl3 426  ARG426      0.1354
    150  NH2       11.0230  -48.1380  -50.5130 N.pl3 426  ARG426      0.1354
@<TRIPOS>BOND
     1    31    30    2
     2    30    29    1
     3    30    37   am
     4    38    41    1
     5    38    39    1
     6    38    37    1
     7    33    34    1
     8    33    32    1
     9    35    34    1
    10    35    36    1
    11    29    32    1
    12    29    28    1
    13    39    40    2
    14    21    22    1
    15    42    43    1
    16    22    23    1
    17    22    25    1
    18    62    61    1
    19    23    24    2
    20    27    25    1
    21    46    43    1
    22    46    47    1
    23    25    26    1
    24    43    44    1
    25    61    63    1
    26    61    58    1
    27    49    47   ar
    28    60    59    2
    29    86    85    2
    30    45    44    2
    31    47    48   ar
    32    59    58    1
    33    75    74    2
    34    74    73    1
    35    71    70    1
    36    72    73    1
    37    58    57    1
    38    67    66    2
    39    85    84    1
    40    83    84    1
    41    73    76    1
    42    68    65    1
    43    68    69    1
    44    66    65    1
    45    70    69    1
    46    57    52   am
    47    84    87    1
    48    65    64    1
    49    87    88    1
    50    76    77    1
    51    52    53    2
    52    52    51    1
    53    77    78   ar
    54    77    79   ar
    55    50    51    1
    56    55    54    1
    57    78    80   ar
    58    79    81   ar
    59    16    17    2
    60    16    15    1
    61    51    54    1
    62    80    82   ar
    63    81    82   ar
    64    15    14    1
    65    15    18    1
    66    54    56    1
    67   139   138   ar
    68   139   137   ar
    69    20    18    1
    70   138   136   ar
    71    18    19    1
    72     7     5    1
    73     2     1    1
    74     2     5    1
    75     2     3    1
    76     4     3    2
    77     5     6    1
    78   137   135   ar
    79     3     8   am
    80   136   134   ar
    81   126   124   ar
    82   126   128   ar
    83   124   123   ar
    84   135   134   ar
    85     8     9    1
    86   134   133    1
    87   128   127   ar
    88    10     9    1
    89    10    11    2
    90     9    12    1
    91   123   122    1
    92   123   125   ar
    93   133   130    1
    94   122   119    1
    95    89    90    1
    96   119   118    1
    97   119   120    1
    98    90    91    1
    99   127   125   ar
   100   121   120    2
   101    12    13    1
   102    91    93   am
   103    91    92    2
   104   130   129    1
   105   130   131    1
   106    93    94    1
   107   109   110    1
   108    95    94    1
   109    95    96    2
   110   101   102    1
   111    97    94    1
   112    97    98    1
   113   132   131    2
   114   131   140   am
   115   110   111    1
   116   110   113    1
   117   116   115    2
   118   100    98    1
   119   112   111    2
   120   140   141    1
   121   102   103    1
   122   102   105    1
   123    98    99    1
   124   113   114    1
   125   115   117   am
   126   115   114    1
   127   103   104    2
   128   106   105    1
   129   106   108    1
   130   106   107    1
   131   141   144    1
   132   141   142    1
   133   144   145    1
   134   142   143    2
   135   145   146    1
   136   146   147    1
   137   147   148    2
   138   149   148    1
   139   148   150    1
