@<TRIPOS>MOLECULE
tmp/6ajgA07.pdb
 145 131 0 0 0
SMALL
GASTEIGER

@<TRIPOS>ATOM
      1  N        111.4110    8.7280   52.3800 N.3    30  LEU30      -0.1245
      2  CA       110.9550    8.8500   53.7580 C.3    30  LEU30       0.1561
      3  C        111.9950    9.5790   54.5970 C.2    30  LEU30       0.2260
      4  O        111.6540   10.4140   55.4350 O.2    30  LEU30      -0.2867
      5  CB       110.6560    7.4750   54.3580 C.3    30  LEU30       0.0270
      6  CG       109.4550    6.7400   53.7600 C.3    30  LEU30       0.0019
      7  CD1      109.1470    5.4790   54.5520 C.3    30  LEU30       0.0001
      8  CD2      108.2460    7.6570   53.7050 C.3    30  LEU30       0.0001
      9  N        111.7270   13.1770   53.6790 N.3    33  GLY33      -0.1225
     10  CA       110.5080   13.7400   54.2290 C.3    33  GLY33       0.1811
     11  C        110.6620   14.0890   55.6960 C.2    33  GLY33       0.2280
     12  O        110.1740   15.1220   56.1540 O.2    33  GLY33      -0.2866
     13  N        112.7240   16.9710   55.8020 N.3    36  GLY36      -0.1210
     14  CA       112.0780   18.0780   55.1210 C.3    36  GLY36       0.1956
     15  C        110.9750   18.7820   55.8900 C.2    36  GLY36       0.2611
     16  O        110.3590   19.7140   55.3740 O.2    36  GLY36      -0.2717
     17  N        110.7170   18.3470   57.1190 N.am   37  ILE37      -0.1979
     18  CA       109.6900   18.9860   57.9360 C.3    37  ILE37       0.1595
     19  C        110.2720   20.1520   58.7300 C.2    37  ILE37       0.2287
     20  O        109.5420   20.8980   59.3820 O.2    37  ILE37      -0.2864
     21  CB       109.0230   17.9920   58.9070 C.3    37  ILE37       0.0276
     22  CG1      110.0610   17.3800   59.8480 C.3    37  ILE37       0.0022
     23  CG2      108.2820   16.9090   58.1350 C.3    37  ILE37       0.0022
     24  CD1      109.5130   16.2780   60.7300 C.3    37  ILE37       0.0001
     25  N        110.1200   24.4460   57.3180 N.3    40  GLY40      -0.1210
     26  CA       109.2350   25.5120   57.7530 C.3    40  GLY40       0.1956
     27  C        109.9050   26.6260   58.5360 C.2    40  GLY40       0.2611
     28  O        109.4430   27.7660   58.5170 O.2    40  GLY40      -0.2717
     29  N        110.9930   26.3010   59.2270 N.am   41  ASN41      -0.1974
     30  CA       111.7180   27.2940   60.0130 C.3    41  ASN41       0.1688
     31  C        112.9620   27.8090   59.2990 C.2    41  ASN41       0.2292
     32  O        113.7070   28.6240   59.8440 O.2    41  ASN41      -0.2864
     33  CB       112.1060   26.7170   61.3750 C.3    41  ASN41       0.1181
     34  CG       110.9020   26.4320   62.2510 C.2    41  ASN41       0.2629
     35  OD1      109.8580   25.9960   61.7680 O.2    41  ASN41      -0.2716
     36  ND2      111.0410   26.6850   63.5470 N.am   41  ASN41      -0.0877
     37  N        112.7070   28.9100   55.9290 N.3    43  VAL43      -0.1245
     38  CA       112.2160   29.5990   54.7430 C.3    43  VAL43       0.1561
     39  C        112.2140   31.1090   54.9550 C.2    43  VAL43       0.2260
     40  O        112.1530   31.5890   56.0870 O.2    43  VAL43      -0.2867
     41  CB       110.7970   29.1380   54.3610 C.3    43  VAL43       0.0252
     42  CG1      110.8380   27.7540   53.7290 C.3    43  VAL43       0.0019
     43  CG2      109.8890   29.1560   55.5790 C.3    43  VAL43       0.0019
     44  N        101.7950   34.3250   55.7870 N.3   184  THR184     -0.1203
     45  CA       102.5480   33.0760   55.7520 C.3   184  THR184      0.1994
     46  C        101.7410   31.9480   56.3840 C.2   184  THR184      0.2618
     47  O        101.9670   30.7730   56.0970 O.2   184  THR184     -0.2717
     48  CB       103.9010   33.1970   56.4810 C.3   184  THR184      0.1784
     49  OG1      103.6800   33.5440   57.8540 O.3   184  THR184     -0.2211
     50  CG2      104.7720   34.2560   55.8210 C.3   184  THR184      0.0376
     51  N        100.7950   32.3170   57.2420 N.am  185  GLY185     -0.1956
     52  CA        99.9480   31.3480   57.9120 C.3   185  GLY185      0.1869
     53  C         98.9490   30.6910   56.9790 C.2   185  GLY185      0.2309
     54  O         98.3310   29.6850   57.3290 O.2   185  GLY185     -0.2863
     55  N         99.7000   29.2070   54.3100 N.3   187  ILE187     -0.1231
     56  CA       100.3400   27.9920   53.8150 C.3   187  ILE187      0.1692
     57  C         99.7730   26.7400   54.4740 C.2   187  ILE187      0.2592
     58  O         99.3260   25.8190   53.7910 O.2   187  ILE187     -0.2718
     59  CB       101.8610   28.0220   54.0470 C.3   187  ILE187      0.0266
     60  CG1      102.4920   29.1730   53.2670 C.3   187  ILE187      0.0019
     61  CG2      102.4880   26.7010   53.6300 C.3   187  ILE187      0.0020
     62  CD1      102.1920   29.1220   51.7960 C.3   187  ILE187      0.0001
     63  N         99.7940   26.7180   55.8030 N.am  188  GLY188     -0.1957
     64  CA        99.3090   25.5800   56.5610 C.3   188  GLY188      0.1869
     65  C         97.8510   25.2670   56.2920 C.2   188  GLY188      0.2309
     66  O         97.4590   24.1020   56.2270 O.2   188  GLY188     -0.2863
     67  N         97.6500   23.6080   52.9200 N.3   191  GLN191     -0.1245
     68  CA        98.1900   22.2610   53.0550 C.3   191  GLN191      0.1566
     69  C         97.1530   21.3330   53.6730 C.2   191  GLN191      0.2260
     70  O         96.8820   20.2520   53.1510 O.2   191  GLN191     -0.2867
     71  CB        99.4620   22.2640   53.9080 C.3   191  GLN191      0.0367
     72  CG       100.6520   22.9720   53.2790 C.3   191  GLN191      0.0905
     73  CD       101.3280   22.1490   52.1980 C.2   191  GLN191      0.2608
     74  OE1      100.9180   21.0250   51.9070 O.2   191  GLN191     -0.2717
     75  NE2      102.3740   22.7070   51.6000 N.am  191  GLN191     -0.0878
     76  N         95.2130   18.0690   52.3020 N.3   195  GLU195     -0.1245
     77  CA        95.3340   16.7790   52.9750 C.3   195  GLU195      0.1567
     78  C         93.9790   16.1660   53.3190 C.2   195  GLU195      0.2260
     79  O         93.8620   14.9480   53.4600 O.2   195  GLU195     -0.2867
     80  CB        96.1730   16.9170   54.2500 C.3   195  GLU195      0.0388
     81  CG        97.6380   17.2470   54.0020 C.3   195  GLU195      0.1160
     82  CD        98.4460   17.3360   55.2850 C.2   195  GLU195      0.3649
     83  OE1       98.0930   16.6450   56.2650 O.co2 195  GLU195     -0.2457
     84  OE2       99.4400   18.0930   55.3110 O.co2 195  GLU195     -0.2457
     85  N        100.4620    6.6980   46.4800 N.3   221  ILE221     -0.1245
     86  CA       101.6590    6.4560   47.2780 C.3   221  ILE221      0.1561
     87  C        102.8650    7.1570   46.6560 C.2   221  ILE221      0.2260
     88  O        103.7160    7.6970   47.3640 O.2   221  ILE221     -0.2867
     89  CB       101.9480    4.9450   47.4170 C.3   221  ILE221      0.0252
     90  CG1      100.7700    4.2370   48.0890 C.3   221  ILE221      0.0019
     91  CG2      103.2240    4.7080   48.2120 C.3   221  ILE221      0.0019
     92  CD1      100.9460    2.7390   48.2120 C.3   221  ILE221      0.0001
     93  N        102.8120   10.8780   47.4010 N.3   224  GLY224     -0.1210
     94  CA       103.1940   11.0960   48.7840 C.3   224  GLY224      0.1956
     95  C        104.6900   10.9660   48.9950 C.2   224  GLY224      0.2611
     96  O        105.2730   11.6680   49.8220 O.2   224  GLY224     -0.2717
     97  N        105.3130   10.0610   48.2470 N.am  225  LEU225     -0.1979
     98  CA       106.7580    9.8800   48.3090 C.3   225  LEU225      0.1596
     99  C        107.4710   11.0270   47.6030 C.2   225  LEU225      0.2287
    100  O        108.6030   11.3720   47.9430 O.2   225  LEU225     -0.2864
    101  CB       107.1630    8.5420   47.6870 C.3   225  LEU225      0.0297
    102  CG       106.8350    7.2800   48.4890 C.3   225  LEU225      0.0022
    103  CD1      107.0000    6.0410   47.6250 C.3   225  LEU225      0.0001
    104  CD2      107.7100    7.1890   49.7290 C.3   225  LEU225      0.0001
    105  N        106.2690   14.2820   47.3810 N.3   227  ILE227     -0.1231
    106  CA       106.1720   15.4450   48.2570 C.3   227  ILE227      0.1692
    107  C        107.2080   15.3700   49.3720 C.2   227  ILE227      0.2591
    108  O        107.9090   16.3440   49.6460 O.2   227  ILE227     -0.2718
    109  CB       104.7660   15.5740   48.8750 C.3   227  ILE227      0.0266
    110  CG1      103.7280   15.8480   47.7840 C.3   227  ILE227      0.0019
    111  CG2      104.7370   16.6810   49.9190 C.3   227  ILE227      0.0020
    112  CD1      102.3280   16.0630   48.3150 C.3   227  ILE227      0.0001
    113  N        107.3060   14.2040   50.0030 N.am  228  ALA228     -0.1980
    114  CA       108.2680   13.9840   51.0780 C.3   228  ALA228      0.1597
    115  C        109.6970   14.2220   50.6020 C.2   228  ALA228      0.2287
    116  O        110.4490   14.9770   51.2190 O.2   228  ALA228     -0.2864
    117  CB       108.1240   12.5750   51.6330 C.3   228  ALA228      0.0319
    118  N        110.4490   17.9940   49.4420 N.3   231  LEU231     -0.1245
    119  CA       110.6010   18.9050   50.5700 C.3   231  LEU231      0.1561
    120  C        111.9550   18.7050   51.2390 C.2   231  LEU231      0.2260
    121  O        112.5500   19.6540   51.7510 O.2   231  LEU231     -0.2867
    122  CB       109.4720   18.7060   51.5810 C.3   231  LEU231      0.0270
    123  CG       108.0830   19.1420   51.1130 C.3   231  LEU231      0.0019
    124  CD1      107.0520   18.8700   52.1900 C.3   231  LEU231      0.0001
    125  CD2      108.0810   20.6120   50.7190 C.3   231  LEU231      0.0001
    126  N        108.9760   31.0590   51.3390 N.3   245  PHE245     -0.1241
    127  CA       107.7990   30.4330   51.9420 C.3   245  PHE245      0.1605
    128  C        106.9120   29.7470   50.9080 C.2   245  PHE245      0.2264
    129  O        106.3930   28.6550   51.1390 O.2   245  PHE245     -0.2867
    130  CB       106.9650   31.4810   52.6870 C.3   245  PHE245      0.0534
    131  CG       107.3030   31.6270   54.1440 C.ar  245  PHE245     -0.0203
    132  CD1      106.7040   30.8150   55.0930 C.ar  245  PHE245     -0.0042
    133  CD2      108.1920   32.6000   54.5690 C.ar  245  PHE245     -0.0042
    134  CE1      107.0010   30.9600   56.4370 C.ar  245  PHE245     -0.0003
    135  CE2      108.4940   32.7460   55.9120 C.ar  245  PHE245     -0.0003
    136  CZ       107.8970   31.9240   56.8450 C.ar  245  PHE245     -0.0000
    137  N        106.8870   25.7660   49.3680 N.3   248  GLN248     -0.1245
    138  CA       106.2520   24.5960   49.9720 C.3   248  GLN248      0.1566
    139  C        104.8940   24.2470   49.3410 C.2   248  GLN248      0.2260
    140  O        104.6690   23.0880   48.9890 O.2   248  GLN248     -0.2867
    141  CB       106.0890   24.7940   51.4840 C.3   248  GLN248      0.0367
    142  CG       107.3490   25.2470   52.1980 C.3   248  GLN248      0.0905
    143  CD       107.0820   25.6680   53.6300 C.2   248  GLN248      0.2608
    144  OE1      107.5060   25.0040   54.5760 O.2   248  GLN248     -0.2717
    145  NE2      106.3730   26.7790   53.7960 N.am  248  GLN248     -0.0878
@<TRIPOS>BOND
     1    85    86    1
     2    87    86    1
     3    87    88    2
     4    86    89    1
     5   105   106    1
     6    93    94    1
     7    89    90    1
     8    89    91    1
     9    99   100    2
    10    99    98    1
    11   103   102    1
    12   101    98    1
    13   101   102    1
    14   110   112    1
    15   110   109    1
    16    90    92    1
    17    97    98    1
    18    97    95   am
    19   106   109    1
    20   106   107    1
    21   102   104    1
    22    94    95    1
    23   109   111    1
    24   140   139    2
    25    95    96    2
    26   139   138    1
    27   137   138    1
    28   107   108    2
    29   107   113   am
    30   118   119    1
    31   138   141    1
    32   113   114    1
    33   119   120    1
    34   119   122    1
    35   115   114    1
    36   115   116    2
    37   125   123    1
    38   128   129    2
    39   128   127    1
    40   114   117    1
    41   123   122    1
    42   123   124    1
    43   120   121    2
    44   126   127    1
    45   141   142    1
    46    75    73   am
    47    62    60    1
    48    74    73    2
    49   127   130    1
    50    73    72    1
    51   142   143    1
    52    76    77    1
    53     1     2    1
    54   130   131    1
    55    67    68    1
    56    77    78    1
    57    77    80    1
    58    68    69    1
    59    68    71    1
    60    70    69    2
    61    60    59    1
    62    72    71    1
    63    78    79    2
    64    61    59    1
    65   143   145   am
    66   143   144    2
    67     9    10    1
    68     8     6    1
    69    42    41    1
    70     2     5    1
    71     2     3    1
    72     6     5    1
    73     6     7    1
    74    58    57    2
    75    56    59    1
    76    56    55    1
    77    56    57    1
    78    81    80    1
    79    81    82    1
    80   131   133   ar
    81   131   132   ar
    82    10    11    1
    83    41    38    1
    84    41    43    1
    85    57    63   am
    86   133   135   ar
    87     3     4    2
    88    38    39    1
    89    38    37    1
    90    39    40    2
    91   132   134   ar
    92    14    13    1
    93    14    15    1
    94    82    84   ar
    95    82    83   ar
    96    16    15    2
    97    11    12    2
    98    45    44    1
    99    45    46    1
   100    45    48    1
   101    63    64    1
   102    50    48    1
   103    15    17   am
   104   135   136   ar
   105    47    46    2
   106    66    65    2
   107    65    64    1
   108    46    51   am
   109   134   136   ar
   110    48    49    1
   111    53    54    2
   112    53    52    1
   113    17    18    1
   114    51    52    1
   115    25    26    1
   116    26    27    1
   117    18    19    1
   118    18    21    1
   119    23    21    1
   120    28    27    2
   121    27    29   am
   122    19    20    2
   123    21    22    1
   124    29    30    1
   125    31    32    2
   126    31    30    1
   127    22    24    1
   128    30    33    1
   129    33    34    1
   130    35    34    2
   131    34    36   am
