@<TRIPOS>MOLECULE
tmp/6ajgA03.pdb
 176 163 0 0 0
SMALL
GASTEIGER

@<TRIPOS>ATOM
      1  N        109.4220   50.9430   64.1030 N.3    71  THR71      -0.1203
      2  CA       108.1830   51.5370   64.5930 C.3    71  THR71       0.1994
      3  C        106.9590   50.9070   63.9330 C.2    71  THR71       0.2618
      4  O        105.8280   51.1430   64.3560 O.2    71  THR71      -0.2717
      5  CB       108.1490   53.0600   64.3500 C.3    71  THR71       0.1784
      6  OG1      108.1090   53.3240   62.9410 O.3    71  THR71      -0.2211
      7  CG2      109.3750   53.7260   64.9540 C.3    71  THR71       0.0376
      8  N        107.1900   50.1050   62.8990 N.am   72  SER72      -0.1951
      9  CA       106.1000   49.4940   62.1470 C.3    72  SER72       0.1924
     10  C        105.9970   47.9910   62.3870 C.2    72  SER72       0.2314
     11  O        105.1160   47.3320   61.8320 O.2    72  SER72      -0.2863
     12  CB       106.2750   49.7660   60.6510 C.3    72  SER72       0.2116
     13  OG       106.3090   51.1580   60.3870 O.3    72  SER72      -0.2180
     14  N        101.9400   47.2780   65.7070 N.3    75  VAL75      -0.1245
     15  CA       101.0990   48.3980   66.1010 C.3    75  VAL75       0.1561
     16  C         99.8780   47.8340   66.8270 C.2    75  VAL75       0.2260
     17  O         99.2600   46.8730   66.3650 O.2    75  VAL75      -0.2867
     18  CB       100.6900   49.2570   64.8820 C.3    75  VAL75       0.0252
     19  CG1       99.2120   49.5840   64.9110 C.3    75  VAL75       0.0019
     20  CG2      101.5300   50.5270   64.8210 C.3    75  VAL75       0.0019
     21  N        106.2790   51.7080   72.8790 N.3   114  VAL114     -0.1245
     22  CA       106.3240   53.1620   72.7810 C.3   114  VAL114      0.1561
     23  C        104.9460   53.7210   72.4450 C.2   114  VAL114      0.2260
     24  O        104.2420   53.1760   71.5950 O.2   114  VAL114     -0.2867
     25  CB       107.3420   53.6160   71.7080 C.3   114  VAL114      0.0252
     26  CG1      107.2540   55.1150   71.4680 C.3   114  VAL114      0.0019
     27  CG2      108.7550   53.2160   72.1080 C.3   114  VAL114      0.0019
     28  N        103.7980   66.8490   72.7680 N.3   124  ASP124     -0.1239
     29  CA       104.1210   66.4000   71.4220 C.3   124  ASP124      0.1674
     30  C        102.8520   66.1510   70.6140 C.2   124  ASP124      0.2266
     31  O        102.0240   65.3260   70.9960 O.2   124  ASP124     -0.2867
     32  CB       104.9730   65.1330   71.4820 C.3   124  ASP124      0.1410
     33  CG       105.7370   64.8810   70.2020 C.2   124  ASP124      0.3668
     34  OD1      105.1060   64.8190   69.1250 O.co2 124  ASP124     -0.2456
     35  OD2      106.9760   64.7470   70.2720 O.co2 124  ASP124     -0.2456
     36  N        102.4270   64.7450   67.6280 N.3   126  THR126     -0.1203
     37  CA       102.3850   63.4110   67.0410 C.3   126  THR126      0.1994
     38  C        102.0380   62.3550   68.0840 C.2   126  THR126      0.2617
     39  O        101.2100   61.4770   67.8410 O.2   126  THR126     -0.2717
     40  CB       103.7270   63.0430   66.3870 C.3   126  THR126      0.1784
     41  OG1      104.7600   63.0600   67.3790 O.3   126  THR126     -0.2211
     42  CG2      104.0710   64.0330   65.2850 C.3   126  THR126      0.0376
     43  N        102.6820   62.4420   69.2440 N.am  127  VAL127     -0.1979
     44  CA       102.4170   61.5160   70.3370 C.3   127  VAL127      0.1595
     45  C        100.9830   61.6850   70.8280 C.2   127  VAL127      0.2287
     46  O        100.3050   60.7090   71.1490 O.2   127  VAL127     -0.2864
     47  CB       103.4070   61.7200   71.5030 C.3   127  VAL127      0.0276
     48  CG1      103.0260   60.8550   72.6930 C.3   127  VAL127      0.0022
     49  CG2      104.8240   61.4060   71.0500 C.3   127  VAL127      0.0022
     50  N         98.4170   59.8860   68.8560 N.3   130  MET130     -0.1245
     51  CA        98.3290   58.4410   69.0400 C.3   130  MET130      0.1570
     52  C         97.1070   58.0630   69.8700 C.2   130  MET130      0.2261
     53  O         96.9580   56.9170   70.2900 O.2   130  MET130     -0.2867
     54  CB        99.6040   57.8990   69.6890 C.3   130  MET130      0.0387
     55  CG       100.8240   57.9700   68.7810 C.3   130  MET130      0.0595
     56  SD       102.1720   56.8900   69.2990 S.3   130  MET130     -0.1393
     57  CE       103.1030   57.9950   70.3500 C.3   130  MET130      0.0692
     58  N         96.8720   53.9030   70.4060 N.3   139  PHE139     -0.1241
     59  CA        97.7240   52.8250   69.9280 C.3   139  PHE139      0.1605
     60  C         99.1600   52.9910   70.3950 C.2   139  PHE139      0.2264
     61  O         99.6230   54.1010   70.6600 O.2   139  PHE139     -0.2867
     62  CB        97.6680   52.7190   68.3980 C.3   139  PHE139      0.0534
     63  CG        98.5790   53.6760   67.6760 C.ar  139  PHE139     -0.0203
     64  CD1       98.1560   54.9580   67.3700 C.ar  139  PHE139     -0.0042
     65  CD2       99.8490   53.2820   67.2790 C.ar  139  PHE139     -0.0042
     66  CE1       98.9860   55.8350   66.6960 C.ar  139  PHE139     -0.0003
     67  CE2      100.6850   54.1560   66.6090 C.ar  139  PHE139     -0.0003
     68  CZ       100.2530   55.4330   66.3160 C.ar  139  PHE139     -0.0000
     69  N        103.3630   51.4350   69.7430 N.3   141  SER141     -0.1217
     70  CA       104.2690   50.7200   68.8610 C.3   141  SER141      0.1889
     71  C        105.1190   49.7700   69.6930 C.2   141  SER141      0.2288
     72  O        105.5810   50.1280   70.7760 O.2   141  SER141     -0.2866
     73  CB       105.1510   51.6920   68.0760 C.3   141  SER141      0.2089
     74  OG       105.9530   51.0040   67.1320 O.3   141  SER141     -0.2183
     75  N        100.0930   46.0800   61.7830 N.3   175  GLY175     -0.1210
     76  CA       101.4460   46.3950   61.3730 C.3   175  GLY175      0.1956
     77  C        102.0380   45.2980   60.5100 C.2   175  GLY175      0.2611
     78  O        101.3130   44.4660   59.9660 O.2   175  GLY175     -0.2717
     79  N        103.3620   45.2910   60.4000 N.am  176  LEU176     -0.1979
     80  CA       104.0600   44.3680   59.5110 C.3   176  LEU176      0.1596
     81  C        103.9770   42.9100   59.9560 C.2   176  LEU176      0.2287
     82  O        103.5950   42.0370   59.1770 O.2   176  LEU176     -0.2864
     83  CB       105.5280   44.7790   59.3840 C.3   176  LEU176      0.0297
     84  CG       105.8160   45.9980   58.5070 C.3   176  LEU176      0.0022
     85  CD1      107.2750   46.4050   58.6230 C.3   176  LEU176      0.0001
     86  CD2      105.4570   45.7030   57.0620 C.3   176  LEU176      0.0001
     87  N        100.5510   41.0040   60.1660 N.3   179  LEU179     -0.1245
     88  CA       100.1180   40.7600   58.7950 C.3   179  LEU179      0.1561
     89  C        100.9640   39.6880   58.1160 C.2   179  LEU179      0.2260
     90  O        100.4460   38.8750   57.3510 O.2   179  LEU179     -0.2867
     91  CB       100.1610   42.0560   57.9820 C.3   179  LEU179      0.0270
     92  CG        98.9590   42.9830   58.1690 C.3   179  LEU179      0.0019
     93  CD1       99.1610   44.2930   57.4280 C.3   179  LEU179      0.0001
     94  CD2       97.6880   42.2920   57.7010 C.3   179  LEU179      0.0001
     95  N         99.7560   36.1340   56.5640 N.3   183  LEU183     -0.1245
     96  CA        99.9960   35.8370   55.1560 C.3   183  LEU183      0.1561
     97  C        100.7560   34.5240   54.9820 C.2   183  LEU183      0.2260
     98  O        100.4060   33.7060   54.1310 O.2   183  LEU183     -0.2867
     99  CB       100.7600   36.9840   54.4900 C.3   183  LEU183      0.0270
    100  CG        99.9630   38.2640   54.2250 C.3   183  LEU183      0.0019
    101  CD1      100.8910   39.4140   53.8740 C.3   183  LEU183      0.0001
    102  CD2       98.9440   38.0440   53.1170 C.3   183  LEU183      0.0001
    103  N        102.7600   43.8790   47.9820 N.3   398  ILE398     -0.1231
    104  CA       101.9640   43.1230   48.9380 C.3   398  ILE398      0.1692
    105  C        101.3680   44.0400   50.0000 C.2   398  ILE398      0.2593
    106  O        102.0720   44.8520   50.6010 O.2   398  ILE398     -0.2718
    107  CB       102.8020   42.0270   49.6220 C.3   398  ILE398      0.0266
    108  CG1      103.2970   41.0160   48.5880 C.3   398  ILE398      0.0019
    109  CG2      101.9930   41.3230   50.7020 C.3   398  ILE398      0.0020
    110  CD1      104.1300   39.9060   49.1760 C.3   398  ILE398      0.0001
    111  N        100.0640   43.9100   50.2200 N.am  399  SER399     -0.1938
    112  CA        99.3770   44.6740   51.2530 C.3   399  SER399      0.2055
    113  C         98.4280   43.7700   52.0270 C.2   399  SER399      0.2642
    114  O         98.3880   42.5610   51.8010 O.2   399  SER399     -0.2714
    115  CB        98.6090   45.8490   50.6430 C.3   399  SER399      0.2130
    116  OG        97.5270   45.3950   49.8500 O.3   399  SER399     -0.2179
    117  N         97.6600   44.3620   52.9350 N.am  400  GLU400     -0.1976
    118  CA        96.6850   43.6080   53.7130 C.3   400  GLU400      0.1602
    119  C         95.5320   43.1300   52.8340 C.2   400  GLU400      0.2287
    120  O         94.7890   42.2230   53.2110 O.2   400  GLU400     -0.2864
    121  CB        96.1500   44.4510   54.8750 C.3   400  GLU400      0.0415
    122  CG        95.3760   45.6960   54.4570 C.3   400  GLU400      0.1163
    123  CD        96.2770   46.8720   54.1280 C.2   400  GLU400      0.3649
    124  OE1       95.7470   47.9570   53.8090 O.co2 400  GLU400     -0.2457
    125  OE2       97.5150   46.7150   54.1920 O.co2 400  GLU400     -0.2457
    126  N         94.2810   46.3980   60.7660 N.3   413  GLN413     -0.1245
    127  CA        95.1350   47.3420   60.0600 C.3   413  GLN413      0.1566
    128  C         94.3030   48.4620   59.4470 C.2   413  GLN413      0.2260
    129  O         94.6880   49.6300   59.4850 O.2   413  GLN413     -0.2867
    130  CB        95.9450   46.6320   58.9730 C.3   413  GLN413      0.0367
    131  CG        96.8810   47.5520   58.2110 C.3   413  GLN413      0.0905
    132  CD        97.8940   48.2240   59.1160 C.2   413  GLN413      0.2608
    133  OE1       98.6650   47.5570   59.8070 O.2   413  GLN413     -0.2717
    134  NE2       97.8890   49.5520   59.1260 N.am  413  GLN413     -0.0878
    135  N         93.2420   50.8040   62.1260 N.3   416  PHE416     -0.1241
    136  CA        94.3610   51.6540   62.5170 C.3   416  PHE416      0.1605
    137  C         94.5140   52.8350   61.5700 C.2   416  PHE416      0.2264
    138  O         94.6440   53.9790   62.0040 O.2   416  PHE416     -0.2867
    139  CB        95.6660   50.8570   62.5590 C.3   416  PHE416      0.0534
    140  CG        96.8850   51.7120   62.7660 C.ar  416  PHE416     -0.0203
    141  CD1       97.2140   52.1740   64.0290 C.ar  416  PHE416     -0.0042
    142  CD2       97.6960   52.0630   61.6980 C.ar  416  PHE416     -0.0042
    143  CE1       98.3310   52.9640   64.2250 C.ar  416  PHE416     -0.0003
    144  CE2       98.8130   52.8550   61.8880 C.ar  416  PHE416     -0.0003
    145  CZ        99.1310   53.3050   63.1530 C.ar  416  PHE416     -0.0000
    146  N         99.9800   58.2230   59.9620 N.3   423  PHE423     -0.1227
    147  CA       101.0560   57.4470   60.5700 C.3   423  PHE423      0.1736
    148  C        101.6350   56.4220   59.5980 C.2   423  PHE423      0.2595
    149  O        102.8270   56.1190   59.6400 O.2   423  PHE423     -0.2718
    150  CB       100.5620   56.7460   61.8370 C.3   423  PHE423      0.0547
    151  CG       100.4860   57.6470   63.0360 C.ar  423  PHE423     -0.0202
    152  CD1      101.5900   57.8270   63.8540 C.ar  423  PHE423     -0.0042
    153  CD2       99.3130   58.3160   63.3450 C.ar  423  PHE423     -0.0042
    154  CE1      101.5250   58.6560   64.9590 C.ar  423  PHE423     -0.0003
    155  CE2       99.2410   59.1470   64.4490 C.ar  423  PHE423     -0.0003
    156  CZ       100.3490   59.3170   65.2570 C.ar  423  PHE423     -0.0000
    157  N        100.7850   55.8930   58.7260 N.am  424  ARG424     -0.1980
    158  CA       101.2170   54.9130   57.7370 C.3   424  ARG424      0.1597
    159  C        101.6470   55.6020   56.4450 C.2   424  ARG424      0.2287
    160  O        100.8330   56.2250   55.7640 O.2   424  ARG424     -0.2864
    161  CB       100.1010   53.9060   57.4560 C.3   424  ARG424      0.0334
    162  CG       100.4740   52.8620   56.4270 C.3   424  ARG424      0.0492
    163  CD        99.3760   51.8380   56.2250 C.3   424  ARG424      0.2205
    164  NE        99.7660   50.8170   55.2570 N.pl3 424  ARG424     -0.0865
    165  CZ        98.9740   49.8310   54.8500 C.cat 424  ARG424      0.5346
    166  NH1       97.7400   49.7330   55.3250 N.pl3 424  ARG424      0.1354
    167  NH2       99.4140   48.9450   53.9660 N.pl3 424  ARG424      0.1354
    168  N        104.3600   55.6130   52.7710 N.3   426  GLU426     -0.1245
    169  CA       105.2430   54.9380   51.8260 C.3   426  GLU426      0.1567
    170  C        105.9550   55.9700   50.9570 C.2   426  GLU426      0.2260
    171  O        105.6320   56.1280   49.7790 O.2   426  GLU426     -0.2867
    172  CB       104.4640   53.9540   50.9540 C.3   426  GLU426      0.0388
    173  CG       103.8100   52.8190   51.7200 C.3   426  GLU426      0.1160
    174  CD       103.7960   51.5230   50.9380 C.2   426  GLU426      0.3649
    175  OE1      104.3260   51.5060   49.8090 O.co2 426  GLU426     -0.2457
    176  OE2      103.2560   50.5210   51.4500 O.co2 426  GLU426     -0.2457
@<TRIPOS>BOND
     1   103   104    1
     2   108   110    1
     3   108   107    1
     4   104   107    1
     5   104   105    1
     6   107   109    1
     7   171   170    2
     8   175   174   ar
     9   116   115    1
    10   105   111   am
    11   105   106    2
    12   111   112    1
    13   115   112    1
    14   174   176   ar
    15   174   173    1
    16   172   173    1
    17   172   169    1
    18   170   169    1
    19   112   113    1
    20   114   113    2
    21   169   168    1
    22   113   117   am
    23   119   120    2
    24   119   118    1
    25   117   118    1
    26   102   100    1
    27   118   121    1
    28   124   123   ar
    29   101   100    1
    30   167   165    1
    31   123   125   ar
    32   123   122    1
    33    98    97    2
    34   100    99    1
    35   122   121    1
    36    99    96    1
    37   165   164    2
    38   165   166    1
    39    97    96    1
    40    96    95    1
    41   164   163    1
    42   160   159    2
    43   163   162    1
    44   162   161    1
    45   159   158    1
    46    86    84    1
    47    90    89    2
    48    93    92    1
    49   161   158    1
    50    94    92    1
    51   158   157    1
    52    91    92    1
    53    91    88    1
    54    89    88    1
    55   131   130    1
    56   131   132    1
    57    84    85    1
    58    84    83    1
    59   157   148   am
    60    88    87    1
    61   130   127    1
    62   132   134   am
    63   132   133    2
    64    82    81    2
    65    83    80    1
    66   128   129    2
    67   128   127    1
    68    80    81    1
    69    80    79    1
    70   148   149    2
    71   148   147    1
    72   146   147    1
    73    78    77    2
    74   127   126    1
    75    13    12    1
    76    79    77   am
    77    77    76    1
    78   147   150    1
    79    12     9    1
    80    76    75    1
    81   137   138    2
    82   137   136    1
    83   142   144   ar
    84   142   140   ar
    85    11    10    2
    86   150   151    1
    87   144   145   ar
    88   135   136    1
    89     9    10    1
    90     9     8    1
    91   136   139    1
    92   139   140    1
    93   140   141   ar
    94     8     3   am
    95     6     5    1
    96   151   153   ar
    97   151   152   ar
    98   145   143   ar
    99   153   155   ar
   100   152   154   ar
   101     3     4    2
   102     3     2    1
   103   141   143   ar
   104     1     2    1
   105     5     2    1
   106     5     7    1
   107   155   156   ar
   108    20    18    1
   109    18    19    1
   110    18    15    1
   111   154   156   ar
   112    42    40    1
   113    14    15    1
   114    15    16    1
   115    68    67   ar
   116    68    66   ar
   117    17    16    2
   118    40    37    1
   119    40    41    1
   120    67    65   ar
   121    66    64   ar
   122    37    36    1
   123    37    38    1
   124    74    73    1
   125    65    63   ar
   126    64    63   ar
   127    63    62    1
   128    39    38    2
   129    73    70    1
   130    38    43   am
   131    62    59    1
   132    55    56    1
   133    55    54    1
   134    50    51    1
   135    70    71    1
   136    70    69    1
   137    51    54    1
   138    51    52    1
   139    34    33   ar
   140    43    44    1
   141    56    57    1
   142    71    72    2
   143    52    53    2
   144    59    60    1
   145    59    58    1
   146    33    35   ar
   147    33    32    1
   148    44    45    1
   149    44    47    1
   150    60    61    2
   151    30    31    2
   152    30    29    1
   153    45    46    2
   154    49    47    1
   155    29    32    1
   156    29    28    1
   157    26    25    1
   158    47    48    1
   159    24    23    2
   160    25    27    1
   161    25    22    1
   162    23    22    1
   163    22    21    1
