@<TRIPOS>MOLECULE
tmp/6ajgA11.pdb
 82 78 0 0 0
SMALL
GASTEIGER

@<TRIPOS>ATOM
      1  N        114.6420   17.7610   49.6030 N.3   233  ILE233     -0.1231
      2  CA       115.5700   18.3950   48.6760 C.3   233  ILE233      0.1692
      3  C        115.5740   19.9060   48.8780 C.2   233  ILE233      0.2591
      4  O        116.6330   20.5300   48.9300 O.2   233  ILE233     -0.2718
      5  CB       115.2150   18.0700   47.2100 C.3   233  ILE233      0.0266
      6  CG1      115.4070   16.5770   46.9340 C.3   233  ILE233      0.0019
      7  CG2      116.0630   18.8960   46.2540 C.3   233  ILE233      0.0020
      8  CD1      115.0400   16.1640   45.5260 C.3   233  ILE233      0.0001
      9  N        114.3840   20.4860   49.0050 N.am  234  MET234     -0.1979
     10  CA       114.2480   21.9230   49.2180 C.3   234  MET234      0.1605
     11  C        114.8460   22.3500   50.5550 C.2   234  MET234      0.2287
     12  O        115.3410   23.4680   50.6940 O.2   234  MET234     -0.2864
     13  CB       112.7770   22.3380   49.1400 C.3   234  MET234      0.0413
     14  CG       112.2440   22.4540   47.7210 C.3   234  MET234      0.0598
     15  SD       113.1070   23.7130   46.7610 S.3   234  MET234     -0.1393
     16  CE       114.0950   22.6910   45.6730 C.3   234  MET234      0.0692
     17  N        118.4470   22.4730   49.7910 N.3   237  VAL237     -0.1245
     18  CA       118.7070   23.6860   49.0240 C.3   237  VAL237      0.1561
     19  C        118.8240   24.8920   49.9560 C.2   237  VAL237      0.2260
     20  O        119.6290   25.7960   49.7240 O.2   237  VAL237     -0.2867
     21  CB       117.5970   23.9340   47.9750 C.3   237  VAL237      0.0252
     22  CG1      117.7730   25.2840   47.3010 C.3   237  VAL237      0.0019
     23  CG2      117.5960   22.8240   46.9370 C.3   237  VAL237      0.0019
     24  N        122.1420   26.2560   51.2690 N.3   240  PHE240     -0.1227
     25  CA       123.0510   26.9700   50.3790 C.3   240  PHE240      0.1736
     26  C        122.4980   28.3230   49.9400 C.2   240  PHE240      0.2596
     27  O        123.2550   29.2650   49.7050 O.2   240  PHE240     -0.2718
     28  CB       123.3590   26.1210   49.1430 C.3   240  PHE240      0.0547
     29  CG       123.8270   24.7300   49.4630 C.ar  240  PHE240     -0.0202
     30  CD1      125.1640   24.4760   49.7220 C.ar  240  PHE240     -0.0042
     31  CD2      122.9310   23.6740   49.4960 C.ar  240  PHE240     -0.0042
     32  CE1      125.5970   23.1960   50.0140 C.ar  240  PHE240     -0.0003
     33  CE2      123.3580   22.3920   49.7880 C.ar  240  PHE240     -0.0003
     34  CZ       124.6930   22.1530   50.0460 C.ar  240  PHE240     -0.0000
     35  N        121.1770   28.4130   49.8270 N.am  241  THR241     -0.1953
     36  CA       120.5310   29.6130   49.3080 C.3   241  THR241      0.1897
     37  C        119.1480   29.7840   49.9400 C.2   241  THR241      0.2313
     38  O        118.5200   28.8000   50.3340 O.2   241  THR241     -0.2863
     39  CB       120.4200   29.5530   47.7620 C.3   241  THR241      0.1794
     40  OG1      120.0640   30.8390   47.2400 O.3   241  THR241     -0.2208
     41  CG2      119.3900   28.5230   47.3280 C.3   241  THR241      0.0378
     42  N        113.2550   26.1540   41.5260 N.3   322  TYR322     -0.1241
     43  CA       113.9570   25.0310   42.1360 C.3   322  TYR322      0.1605
     44  C        112.9600   24.0010   42.6500 C.2   322  TYR322      0.2264
     45  O        113.1820   22.7960   42.5350 O.2   322  TYR322     -0.2867
     46  CB       114.8580   25.5100   43.2770 C.3   322  TYR322      0.0534
     47  CG       115.9370   26.4700   42.8370 C.ar  322  TYR322     -0.0201
     48  CD1      116.3640   26.5020   41.5170 C.ar  322  TYR322     -0.0009
     49  CD2      116.5290   27.3460   43.7390 C.ar  322  TYR322     -0.0009
     50  CE1      117.3450   27.3750   41.1050 C.ar  322  TYR322      0.0417
     51  CE2      117.5160   28.2260   43.3350 C.ar  322  TYR322      0.0417
     52  CZ       117.9180   28.2330   42.0140 C.ar  322  TYR322      0.1957
     53  OH       118.8950   29.0970   41.5870 O.3   322  TYR322     -0.2866
     54  N        111.3390   22.0980   39.5710 N.3   325  ILE325     -0.1231
     55  CA       112.3280   21.1790   39.0170 C.3   325  ILE325      0.1692
     56  C        112.5370   19.9640   39.9150 C.2   325  ILE325      0.2591
     57  O        112.5530   18.8280   39.4400 O.2   325  ILE325     -0.2718
     58  CB       113.6810   21.8870   38.7960 C.3   325  ILE325      0.0266
     59  CG1      113.5460   22.9610   37.7160 C.3   325  ILE325      0.0019
     60  CG2      114.7580   20.8840   38.4110 C.3   325  ILE325      0.0020
     61  CD1      114.7760   23.8240   37.5570 C.3   325  ILE325      0.0001
     62  N        112.6880   20.2080   41.2130 N.am  326  ALA326     -0.1980
     63  CA       112.8760   19.1310   42.1780 C.3   326  ALA326      0.1597
     64  C        111.6600   18.2110   42.2210 C.2   326  ALA326      0.2287
     65  O        111.7980   16.9920   42.3080 O.2   326  ALA326     -0.2864
     66  CB       113.1580   19.7000   43.5600 C.3   326  ALA326      0.0319
     67  N        111.1910   16.2730   38.4930 N.3   329  MET329     -0.1230
     68  CA       112.2510   15.2920   38.2780 C.3   329  MET329      0.1702
     69  C        112.0770   14.0860   39.1930 C.2   329  MET329      0.2592
     70  O        112.1550   12.9420   38.7440 O.2   329  MET329     -0.2718
     71  CB       113.6300   15.9190   38.4960 C.3   329  MET329      0.0401
     72  CG       114.0790   16.8430   37.3740 C.3   329  MET329      0.0596
     73  SD       113.8070   16.1370   35.7370 S.3   329  MET329     -0.1393
     74  CE       114.9240   14.7380   35.7740 C.3   329  MET329      0.0692
     75  N        111.8340   14.3470   40.4730 N.am  330  LEU330     -0.1980
     76  CA       111.6380   13.2780   41.4450 C.3   330  LEU330      0.1596
     77  C        110.3980   12.4580   41.1080 C.2   330  LEU330      0.2287
     78  O        110.3900   11.2380   41.2670 O.2   330  LEU330     -0.2864
     79  CB       111.5220   13.8450   42.8590 C.3   330  LEU330      0.0297
     80  CG       111.4640   12.8050   43.9790 C.3   330  LEU330      0.0022
     81  CD1      112.7040   11.9210   43.9550 C.3   330  LEU330      0.0001
     82  CD2      111.3070   13.4790   45.3300 C.3   330  LEU330      0.0001
@<TRIPOS>BOND
     1    73    74    1
     2    73    72    1
     3    72    71    1
     4    61    59    1
     5    59    58    1
     6    68    67    1
     7    68    71    1
     8    68    69    1
     9    60    58    1
    10    70    69    2
    11    58    55    1
    12    55    54    1
    13    55    56    1
    14    69    75   am
    15    57    56    2
    16    56    62   am
    17    75    76    1
    18    50    48   ar
    19    50    52   ar
    20    77    78    2
    21    77    76    1
    22    62    63    1
    23    76    79    1
    24    48    47   ar
    25    42    43    1
    26    53    52    1
    27    52    51   ar
    28    43    44    1
    29    43    46    1
    30    63    64    1
    31    63    66    1
    32    64    65    2
    33    45    44    2
    34    47    46    1
    35    47    49   ar
    36    79    80    1
    37    51    49   ar
    38    81    80    1
    39    80    82    1
    40     8     6    1
    41    16    15    1
    42     7     5    1
    43    15    14    1
    44     6     5    1
    45    23    21    1
    46     5     2    1
    47    40    39    1
    48    22    21    1
    49    41    39    1
    50    14    13    1
    51    39    36    1
    52    21    18    1
    53     2     3    1
    54     2     1    1
    55     3     4    2
    56     3     9   am
    57     9    10    1
    58    18    17    1
    59    18    19    1
    60    13    10    1
    61    28    29    1
    62    28    25    1
    63    10    11    1
    64    36    35    1
    65    36    37    1
    66    29    31   ar
    67    29    30   ar
    68    31    33   ar
    69    27    26    2
    70    30    32   ar
    71    20    19    2
    72    33    34   ar
    73    35    26   am
    74    37    38    2
    75    26    25    1
    76    32    34   ar
    77    25    24    1
    78    11    12    2
