@<TRIPOS>MOLECULE
tmp/6ajgA08.pdb
 116 108 0 0 0
SMALL
GASTEIGER

@<TRIPOS>ATOM
      1  N        118.9220    8.5420   22.2290 N.3     2  GLN2       -0.1231
      2  CA       117.7930    9.0380   21.4700 C.3     2  GLN2        0.1698
      3  C        116.9460    7.8550   21.0850 C.2     2  GLN2        0.2592
      4  O        116.3120    7.8540   20.0440 O.2     2  GLN2       -0.2718
      5  CB       118.2700    9.7430   20.2150 C.3     2  GLN2        0.0381
      6  CG       118.6190   11.1970   20.4280 C.3     2  GLN2        0.0905
      7  CD       118.4390   12.0280   19.1770 C.2     2  GLN2        0.2608
      8  OE1      118.2810   11.4980   18.0810 O.2     2  GLN2       -0.2717
      9  NE2      118.4630   13.3420   19.3390 N.am    2  GLN2       -0.0878
     10  N        116.9270    6.8420   21.9250 N.am    3  SER3       -0.1952
     11  CA       116.3070    5.6010   21.5400 C.3     3  SER3        0.1924
     12  C        115.8810    4.8760   22.7740 C.2     3  SER3        0.2314
     13  O        116.4050    5.1230   23.8480 O.2     3  SER3       -0.2863
     14  CB       117.3230    4.7570   20.8080 C.3     3  SER3        0.2116
     15  OG       118.5690    4.8530   21.4600 O.3     3  SER3       -0.2180
     16  N        116.0520    2.9110   28.0370 N.3     7  PHE7       -0.1241
     17  CA       114.7900    2.6020   28.7000 C.3     7  PHE7        0.1605
     18  C        114.5660    1.0960   28.7200 C.2     7  PHE7        0.2264
     19  O        113.9970    0.5550   29.6690 O.2     7  PHE7       -0.2867
     20  CB       113.6200    3.3060   28.0100 C.3     7  PHE7        0.0534
     21  CG       113.5910    4.7910   28.2320 C.ar    7  PHE7       -0.0203
     22  CD1      113.1400    5.3150   29.4330 C.ar    7  PHE7       -0.0042
     23  CD2      114.0080    5.6630   27.2410 C.ar    7  PHE7       -0.0042
     24  CE1      113.1120    6.6800   29.6440 C.ar    7  PHE7       -0.0003
     25  CE2      113.9810    7.0310   27.4450 C.ar    7  PHE7       -0.0003
     26  CZ       113.5320    7.5400   28.6480 C.ar    7  PHE7       -0.0000
     27  N        107.9670    2.6110   26.9130 N.3   290  THR290     -0.1218
     28  CA       106.9510    3.4400   26.2800 C.3   290  THR290      0.1862
     29  C        106.4770    4.5580   27.2030 C.2   290  THR290      0.2287
     30  O        106.7330    5.7350   26.9470 O.2   290  THR290     -0.2866
     31  CB       105.7380    2.6000   25.8410 C.3   290  THR290      0.1770
     32  OG1      105.1730    1.9370   26.9790 O.3   290  THR290     -0.2211
     33  CG2      106.1550    1.5610   24.8120 C.3   290  THR290      0.0375
     34  N        109.2870    6.3320   29.1990 N.3   293  ARG293     -0.1231
     35  CA       109.8940    7.2220   28.2200 C.3   293  ARG293      0.1694
     36  C        109.0700    8.4960   28.0500 C.2   293  ARG293      0.2592
     37  O        109.6160    9.5930   27.9350 O.2   293  ARG293     -0.2718
     38  CB       110.0370    6.4900   26.8860 C.3   293  ARG293      0.0321
     39  CG       110.5640    7.3110   25.7270 C.3   293  ARG293      0.0489
     40  CD       110.8220    6.3860   24.5500 C.3   293  ARG293      0.2205
     41  NE       111.1050    7.0920   23.3050 N.pl3 293  ARG293     -0.0865
     42  CZ       112.3130    7.1680   22.7620 C.cat 293  ARG293      0.5346
     43  NH1      112.4990    7.8190   21.6220 N.pl3 293  ARG293      0.1354
     44  NH2      113.3410    6.5990   23.3700 N.pl3 293  ARG293      0.1354
     45  N        107.7500    8.3380   28.0390 N.am  294  THR294     -0.1953
     46  CA       106.8360    9.4660   27.9080 C.3   294  THR294      0.1897
     47  C        106.8740   10.3410   29.1580 C.2   294  THR294      0.2313
     48  O        106.7690   11.5650   29.0760 O.2   294  THR294     -0.2863
     49  CB       105.3910    8.9910   27.6540 C.3   294  THR294      0.1794
     50  OG1      105.3650    8.1230   26.5140 O.3   294  THR294     -0.2208
     51  CG2      104.4650   10.1750   27.4060 C.3   294  THR294      0.0378
     52  N        110.3260   12.2820   29.2920 N.3   297  PHE297     -0.1241
     53  CA       110.2820   13.3420   28.2940 C.3   297  PHE297      0.1605
     54  C        109.3300   14.4500   28.7300 C.2   297  PHE297      0.2264
     55  O        109.5530   15.6240   28.4350 O.2   297  PHE297     -0.2867
     56  CB       109.8640   12.7830   26.9340 C.3   297  PHE297      0.0534
     57  CG       110.1350   13.7150   25.7890 C.ar  297  PHE297     -0.0203
     58  CD1      111.4330   14.0880   25.4800 C.ar  297  PHE297     -0.0042
     59  CD2      109.0970   14.2130   25.0190 C.ar  297  PHE297     -0.0042
     60  CE1      111.6910   14.9450   24.4270 C.ar  297  PHE297     -0.0003
     61  CE2      109.3490   15.0700   23.9630 C.ar  297  PHE297     -0.0003
     62  CZ       110.6470   15.4360   23.6670 C.ar  297  PHE297     -0.0000
     63  N        112.2410   20.9920   21.0600 N.3   549  LEU549     -0.1245
     64  CA       111.8970   19.6820   21.6000 C.3   549  LEU549      0.1561
     65  C        110.7710   19.0330   20.8010 C.2   549  LEU549      0.2260
     66  O        110.7110   17.8090   20.6820 O.2   549  LEU549     -0.2867
     67  CB       111.4980   19.7920   23.0730 C.3   549  LEU549      0.0270
     68  CG       112.6390   19.8900   24.0870 C.3   549  LEU549      0.0019
     69  CD1      112.0950   20.1120   25.4890 C.3   549  LEU549      0.0001
     70  CD2      113.5030   18.6390   24.0370 C.3   549  LEU549      0.0001
     71  N        111.8820   17.3780   17.6870 N.3   552  LEU552     -0.1231
     72  CA       112.4200   16.0610   17.9970 C.3   552  LEU552      0.1693
     73  C        111.3180   15.0320   18.2350 C.2   552  LEU552      0.2591
     74  O        111.4320   13.8800   17.8160 O.2   552  LEU552     -0.2718
     75  CB       113.3280   16.1450   19.2240 C.3   552  LEU552      0.0284
     76  CG       114.5100   17.1080   19.1130 C.3   552  LEU552      0.0019
     77  CD1      115.0610   17.4410   20.4890 C.3   552  LEU552      0.0001
     78  CD2      115.5940   16.5160   18.2260 C.3   552  LEU552      0.0001
     79  N        110.2540   15.4530   18.9090 N.am  553  ALA553     -0.1980
     80  CA       109.1600   14.5510   19.2510 C.3   553  ALA553      0.1597
     81  C        108.2630   14.2630   18.0510 C.2   553  ALA553      0.2287
     82  O        107.7380   13.1590   17.9120 O.2   553  ALA553     -0.2864
     83  CB       108.3390   15.1290   20.3950 C.3   553  ALA553      0.0319
     84  N        101.9910   17.5840   23.2930 N.3   619  VAL619     -0.1245
     85  CA       103.0300   16.6590   22.8600 C.3   619  VAL619      0.1561
     86  C        102.5200   15.2250   22.9470 C.2   619  VAL619      0.2260
     87  O        102.6420   14.4620   21.9940 O.2   619  VAL619     -0.2867
     88  CB       104.3210   16.8060   23.6940 C.3   619  VAL619      0.0252
     89  CG1      105.1800   15.5530   23.5840 C.3   619  VAL619      0.0019
     90  CG2      105.1050   18.0300   23.2440 C.3   619  VAL619      0.0019
     91  N        102.0440   13.3760   19.4080 N.3   623  SER623     -0.1202
     92  CA       103.1430   12.4220   19.1830 C.3   623  SER623      0.2020
     93  C        102.6680   11.0730   18.7220 C.2   623  SER623      0.2618
     94  O        103.3810   10.3130   18.0640 O.2   623  SER623     -0.2717
     95  CB       103.9600   12.2240   20.4550 C.3   623  SER623      0.2103
     96  OG       104.5380   13.4440   20.8590 O.3   623  SER623     -0.2182
     97  N        101.4280   10.7780   19.1030 N.am  624  ARG624     -0.1979
     98  CA       100.7740    9.4960   18.8830 C.3   624  ARG624      0.1597
     99  C        100.0880    9.5070   17.5480 C.2   624  ARG624      0.2287
    100  O        100.0430    8.5180   16.8320 O.2   624  ARG624     -0.2864
    101  CB        99.7030    9.2840   19.9410 C.3   624  ARG624      0.0334
    102  CG       100.0110    8.1960   20.9440 C.3   624  ARG624      0.0492
    103  CD       100.7750    8.7480   22.1350 C.3   624  ARG624      0.2205
    104  NE       102.1790    8.3560   22.1200 N.pl3 624  ARG624     -0.0865
    105  CZ       103.1620    9.0510   22.6780 C.cat 624  ARG624      0.5346
    106  NH1      102.9080   10.1850   23.3040 N.pl3 624  ARG624      0.1354
    107  NH2      104.4040    8.6050   22.6070 N.pl3 624  ARG624      0.1354
    108  N        113.4500   11.4180   11.3070 N.3   714  LYS714     -0.1245
    109  CA       113.7280   10.1280   11.9200 C.3   714  LYS714      0.1561
    110  C        113.8770    9.0090   10.8910 C.2   714  LYS714      0.2260
    111  O        113.1520    8.9280    9.9100 O.2   714  LYS714     -0.2867
    112  CB       112.6590    9.7530   12.9480 C.3   714  LYS714      0.0271
    113  CG       111.5260   10.7490   13.1220 C.3   714  LYS714      0.0035
    114  CD       110.8280   10.5240   14.4540 C.3   714  LYS714      0.0206
    115  CE       109.3610   10.1800   14.2720 C.3   714  LYS714      0.1093
    116  NZ       108.7980    9.4520   15.4430 N.3   714  LYS714     -0.1314
@<TRIPOS>BOND
     1   111   110    2
     2   110   109    1
     3   108   109    1
     4   109   112    1
     5   112   113    1
     6   113   114    1
     7   115   114    1
     8   115   116    1
     9   100    99    2
    10    99    98    1
    11    71    72    1
    12    74    73    2
    13    82    81    2
    14    72    73    1
    15    72    75    1
    16    81    80    1
    17    94    93    2
    18     8     7    2
    19    78    76    1
    20    73    79   am
    21    93    97   am
    22    93    92    1
    23    98    97    1
    24    98   101    1
    25    79    80    1
    26    76    75    1
    27    76    77    1
    28     7     9   am
    29     7     6    1
    30    92    91    1
    31    92    95    1
    32    80    83    1
    33   101   102    1
    34     4     3    2
    35     5     6    1
    36     5     2    1
    37    95    96    1
    38    66    65    2
    39    65    64    1
    40    14    15    1
    41    14    11    1
    42   102   103    1
    43    63    64    1
    44     3     2    1
    45     3    10   am
    46     2     1    1
    47    11    10    1
    48    11    12    1
    49    64    67    1
    50    43    42    1
    51    87    86    2
    52   104   103    1
    53   104   105    2
    54   107   105    1
    55   105   106    1
    56    42    41    2
    57    42    44    1
    58    12    13    2
    59    85    86    1
    60    85    84    1
    61    85    88    1
    62    67    68    1
    63    90    88    1
    64    41    40    1
    65    89    88    1
    66    62    61   ar
    67    62    60   ar
    68    61    59   ar
    69    70    68    1
    70    68    69    1
    71    60    58   ar
    72    40    39    1
    73    33    31    1
    74    59    57   ar
    75    58    57   ar
    76    39    38    1
    77    57    56    1
    78    31    28    1
    79    31    32    1
    80    28    27    1
    81    28    29    1
    82    50    49    1
    83    38    35    1
    84    56    53    1
    85    30    29    2
    86    23    25   ar
    87    23    21   ar
    88    51    49    1
    89    25    26   ar
    90    49    46    1
    91    46    45    1
    92    46    47    1
    93    37    36    2
    94    20    21    1
    95    20    17    1
    96    16    17    1
    97    45    36   am
    98    36    35    1
    99    35    34    1
   100    21    22   ar
   101    53    54    1
   102    53    52    1
   103    55    54    2
   104    26    24   ar
   105    17    18    1
   106    18    19    2
   107    48    47    2
   108    22    24   ar
