@<TRIPOS>MOLECULE
tmp/6ajgA04.pdb
 230 221 0 0 0
SMALL
GASTEIGER

@<TRIPOS>ATOM
      1  N        110.7790   35.1560   53.7190 N.3    45  GLN45      -0.1245
      2  CA       109.6510   35.8900   53.1600 C.3    45  GLN45       0.1566
      3  C        110.1400   36.8980   52.1290 C.2    45  GLN45       0.2260
      4  O        109.3450   37.5460   51.4490 O.2    45  GLN45      -0.2867
      5  CB       108.8630   36.5980   54.2640 C.3    45  GLN45       0.0367
      6  CG       109.6270   37.7160   54.9550 C.3    45  GLN45       0.0905
      7  CD       108.8250   38.3730   56.0620 C.2    45  GLN45       0.2608
      8  OE1      108.3890   37.7130   57.0050 O.2    45  GLN45      -0.2717
      9  NE2      108.6220   39.6810   55.9490 N.am   45  GLN45      -0.0878
     10  N        110.9920   39.4110   46.6850 N.3    48  PHE48      -0.1227
     11  CA       110.0350   40.0070   45.7570 C.3    48  PHE48       0.1736
     12  C        110.6130   41.2080   45.0140 C.2    48  PHE48       0.2595
     13  O        110.0020   41.7170   44.0750 O.2    48  PHE48      -0.2718
     14  CB       108.7610   40.4200   46.4980 C.3    48  PHE48       0.0547
     15  CG       107.9000   39.2610   46.9080 C.ar   48  PHE48      -0.0202
     16  CD1      107.2710   38.4810   45.9530 C.ar   48  PHE48      -0.0042
     17  CD2      107.7180   38.9520   48.2460 C.ar   48  PHE48      -0.0042
     18  CE1      106.4780   37.4120   46.3240 C.ar   48  PHE48      -0.0003
     19  CE2      106.9260   37.8840   48.6220 C.ar   48  PHE48      -0.0003
     20  CZ       106.3040   37.1140   47.6590 C.ar   48  PHE48      -0.0000
     21  N        111.7930   41.6530   45.4340 N.am   49  TYR49      -0.1976
     22  CA       112.4390   42.8020   44.8100 C.3    49  TYR49       0.1639
     23  C        113.6170   42.3820   43.9390 C.2    49  TYR49       0.2290
     24  O        113.9480   41.2000   43.8480 O.2    49  TYR49      -0.2864
     25  CB       112.9130   43.7940   45.8750 C.3    49  TYR49       0.0560
     26  CG       111.8090   44.3350   46.7540 C.ar   49  TYR49      -0.0198
     27  CD1      110.5520   44.6170   46.2330 C.ar   49  TYR49      -0.0009
     28  CD2      112.0240   44.5640   48.1070 C.ar   49  TYR49      -0.0009
     29  CE1      109.5400   45.1130   47.0370 C.ar   49  TYR49       0.0417
     30  CE2      111.0200   45.0580   48.9170 C.ar   49  TYR49       0.0417
     31  CZ       109.7810   45.3300   48.3780 C.ar   49  TYR49       0.1957
     32  OH       108.7810   45.8230   49.1850 O.3    49  TYR49      -0.2866
     33  N        113.8680   50.7530   60.3480 N.3    69  ASP69      -0.1239
     34  CA       112.6820   51.2150   61.0560 C.3    69  ASP69       0.1674
     35  C        112.0130   50.0630   61.7950 C.2    69  ASP69       0.2266
     36  O        111.7260   49.0200   61.2080 O.2    69  ASP69      -0.2867
     37  CB       111.6920   51.8650   60.0890 C.3    69  ASP69       0.1410
     38  CG       110.3980   52.2700   60.7670 C.2    69  ASP69       0.3668
     39  OD1      110.4540   52.7840   61.9040 O.co2  69  ASP69      -0.2456
     40  OD2      109.3220   52.0670   60.1660 O.co2  69  ASP69      -0.2456
     41  N        107.1900   50.1050   62.8990 N.3    72  SER72      -0.1217
     42  CA       106.1000   49.4940   62.1470 C.3    72  SER72       0.1889
     43  C        105.9970   47.9910   62.3870 C.2    72  SER72       0.2288
     44  O        105.1160   47.3320   61.8320 O.2    72  SER72      -0.2866
     45  CB       106.2750   49.7660   60.6510 C.3    72  SER72       0.2089
     46  OG       106.3090   51.1580   60.3870 O.3    72  SER72      -0.2183
     47  N        114.0670   40.2880   58.5570 N.3   149  ASP149     -0.1239
     48  CA       112.6110   40.2020   58.6690 C.3   149  ASP149      0.1674
     49  C        112.1090   38.8150   59.0690 C.2   149  ASP149      0.2266
     50  O        111.0580   38.6920   59.6980 O.2   149  ASP149     -0.2867
     51  CB       111.9560   40.6270   57.3530 C.3   149  ASP149      0.1410
     52  CG       112.1180   42.1080   57.0740 C.2   149  ASP149      0.3668
     53  OD1      112.3520   42.8720   58.0340 O.co2 149  ASP149     -0.2456
     54  OD2      112.0070   42.5100   55.8970 O.co2 149  ASP149     -0.2456
     55  N        103.3620   45.2910   60.4000 N.3   176  LEU176     -0.1245
     56  CA       104.0600   44.3680   59.5110 C.3   176  LEU176      0.1561
     57  C        103.9770   42.9100   59.9560 C.2   176  LEU176      0.2260
     58  O        103.5950   42.0370   59.1770 O.2   176  LEU176     -0.2867
     59  CB       105.5280   44.7790   59.3840 C.3   176  LEU176      0.0270
     60  CG       105.8160   45.9980   58.5070 C.3   176  LEU176      0.0019
     61  CD1      107.2750   46.4050   58.6230 C.3   176  LEU176      0.0001
     62  CD2      105.4570   45.7030   57.0620 C.3   176  LEU176      0.0001
     63  N        100.5510   41.0040   60.1660 N.3   179  LEU179     -0.1231
     64  CA       100.1180   40.7600   58.7950 C.3   179  LEU179      0.1693
     65  C        100.9640   39.6880   58.1160 C.2   179  LEU179      0.2591
     66  O        100.4460   38.8750   57.3510 O.2   179  LEU179     -0.2718
     67  CB       100.1610   42.0560   57.9820 C.3   179  LEU179      0.0284
     68  CG        98.9590   42.9830   58.1690 C.3   179  LEU179      0.0019
     69  CD1       99.1610   44.2930   57.4280 C.3   179  LEU179      0.0001
     70  CD2       97.6880   42.2920   57.7010 C.3   179  LEU179      0.0001
     71  N        102.2630   39.6890   58.3970 N.am  180  ALA180     -0.1980
     72  CA       103.1730   38.7100   57.8110 C.3   180  ALA180      0.1597
     73  C        102.8990   37.3130   58.3590 C.2   180  ALA180      0.2287
     74  O        103.0020   36.3220   57.6360 O.2   180  ALA180     -0.2864
     75  CB       104.6200   39.1080   58.0670 C.3   180  ALA180      0.0319
     76  N         99.7560   36.1340   56.5640 N.3   183  LEU183     -0.1231
     77  CA        99.9960   35.8370   55.1560 C.3   183  LEU183      0.1693
     78  C        100.7560   34.5240   54.9820 C.2   183  LEU183      0.2592
     79  O        100.4060   33.7060   54.1310 O.2   183  LEU183     -0.2718
     80  CB       100.7600   36.9840   54.4900 C.3   183  LEU183      0.0284
     81  CG        99.9630   38.2640   54.2250 C.3   183  LEU183      0.0019
     82  CD1      100.8910   39.4140   53.8740 C.3   183  LEU183      0.0001
     83  CD2       98.9440   38.0440   53.1170 C.3   183  LEU183      0.0001
     84  N        101.7950   34.3250   55.7870 N.am  184  THR184     -0.1953
     85  CA       102.5480   33.0760   55.7520 C.3   184  THR184      0.1897
     86  C        101.7410   31.9480   56.3840 C.2   184  THR184      0.2313
     87  O        101.9670   30.7730   56.0970 O.2   184  THR184     -0.2863
     88  CB       103.9010   33.1970   56.4810 C.3   184  THR184      0.1794
     89  OG1      103.6800   33.5440   57.8540 O.3   184  THR184     -0.2208
     90  CG2      104.7720   34.2560   55.8210 C.3   184  THR184      0.0378
     91  N         98.7900   31.2600   55.7880 N.3   186  THR186     -0.1203
     92  CA        97.8660   30.7160   54.8000 C.3   186  THR186      0.1994
     93  C         98.3870   29.4040   54.2250 C.2   186  THR186      0.2617
     94  O         97.6150   28.5910   53.7170 O.2   186  THR186     -0.2717
     95  CB        97.6170   31.7090   53.6480 C.3   186  THR186      0.1784
     96  OG1       98.8580   32.0190   53.0020 O.3   186  THR186     -0.2211
     97  CG2       96.9860   32.9910   54.1730 C.3   186  THR186      0.0376
     98  N         99.7000   29.2070   54.3100 N.am  187  ILE187     -0.1979
     99  CA       100.3400   27.9920   53.8150 C.3   187  ILE187      0.1595
    100  C         99.7730   26.7400   54.4740 C.2   187  ILE187      0.2287
    101  O         99.3260   25.8190   53.7910 O.2   187  ILE187     -0.2864
    102  CB       101.8610   28.0220   54.0470 C.3   187  ILE187      0.0276
    103  CG1      102.4920   29.1730   53.2670 C.3   187  ILE187      0.0022
    104  CG2      102.4880   26.7010   53.6300 C.3   187  ILE187      0.0022
    105  CD1      102.1920   29.1220   51.7960 C.3   187  ILE187      0.0001
    106  N        112.0700   30.4950   49.5380 N.3   244  HIS244     -0.1226
    107  CA       110.8930   31.2890   49.8710 C.3   244  HIS244      0.1752
    108  C        109.7780   30.4360   50.4760 C.2   244  HIS244      0.2596
    109  O        109.6590   29.2480   50.1730 O.2   244  HIS244     -0.2718
    110  CB       110.3800   32.0180   48.6280 C.3   244  HIS244      0.0759
    111  CG       109.4940   33.1850   48.9350 C.ar  244  HIS244      0.0818
    112  ND1      108.1420   33.0540   49.1630 N.ar  244  HIS244     -0.2268
    113  CD2      109.7690   34.5060   49.0510 C.ar  244  HIS244      0.1154
    114  CE1      107.6210   34.2430   49.4050 C.ar  244  HIS244      0.1986
    115  NE2      108.5870   35.1410   49.3440 N.ar  244  HIS244     -0.2212
    116  N        108.9760   31.0590   51.3390 N.am  245  PHE245     -0.1962
    117  CA       107.7990   30.4330   51.9420 C.3   245  PHE245      0.1771
    118  C        106.9120   29.7470   50.9080 C.2   245  PHE245      0.2619
    119  O        106.3930   28.6550   51.1390 O.2   245  PHE245     -0.2715
    120  CB       106.9650   31.4810   52.6870 C.3   245  PHE245      0.0574
    121  CG       107.3030   31.6270   54.1440 C.ar  245  PHE245     -0.0200
    122  CD1      106.7040   30.8150   55.0930 C.ar  245  PHE245     -0.0042
    123  CD2      108.1920   32.6000   54.5690 C.ar  245  PHE245     -0.0042
    124  CE1      107.0010   30.9600   56.4370 C.ar  245  PHE245     -0.0003
    125  CE2      108.4940   32.7460   55.9120 C.ar  245  PHE245     -0.0003
    126  CZ       107.8970   31.9240   56.8450 C.ar  245  PHE245     -0.0000
    127  N        106.7510   30.4050   49.7640 N.am  246  PHE246     -0.1974
    128  CA       105.7940   29.9930   48.7420 C.3   246  PHE246      0.1639
    129  C        106.2020   28.7180   48.0080 C.2   246  PHE246      0.2290
    130  O        105.4250   28.1700   47.2270 O.2   246  PHE246     -0.2864
    131  CB       105.6010   31.1330   47.7400 C.3   246  PHE246      0.0560
    132  CG       104.2990   31.0760   46.9980 C.ar  246  PHE246     -0.0200
    133  CD1      103.1260   31.4880   47.6070 C.ar  246  PHE246     -0.0042
    134  CD2      104.2480   30.6390   45.6840 C.ar  246  PHE246     -0.0042
    135  CE1      101.9230   31.4450   46.9310 C.ar  246  PHE246     -0.0003
    136  CE2      103.0460   30.5980   44.9990 C.ar  246  PHE246     -0.0003
    137  CZ       101.8830   31.0030   45.6240 C.ar  246  PHE246     -0.0000
    138  N        102.7600   43.8790   47.9820 N.3   398  ILE398     -0.1245
    139  CA       101.9640   43.1230   48.9380 C.3   398  ILE398      0.1561
    140  C        101.3680   44.0400   50.0000 C.2   398  ILE398      0.2260
    141  O        102.0720   44.8520   50.6010 O.2   398  ILE398     -0.2867
    142  CB       102.8020   42.0270   49.6220 C.3   398  ILE398      0.0252
    143  CG1      103.2970   41.0160   48.5880 C.3   398  ILE398      0.0019
    144  CG2      101.9930   41.3230   50.7020 C.3   398  ILE398      0.0019
    145  CD1      104.1300   39.9060   49.1760 C.3   398  ILE398      0.0001
    146  N         99.9800   58.2230   59.9620 N.3   423  PHE423     -0.1227
    147  CA       101.0560   57.4470   60.5700 C.3   423  PHE423      0.1736
    148  C        101.6350   56.4220   59.5980 C.2   423  PHE423      0.2595
    149  O        102.8270   56.1190   59.6400 O.2   423  PHE423     -0.2718
    150  CB       100.5620   56.7460   61.8370 C.3   423  PHE423      0.0547
    151  CG       100.4860   57.6470   63.0360 C.ar  423  PHE423     -0.0202
    152  CD1      101.5900   57.8270   63.8540 C.ar  423  PHE423     -0.0042
    153  CD2       99.3130   58.3160   63.3450 C.ar  423  PHE423     -0.0042
    154  CE1      101.5250   58.6560   64.9590 C.ar  423  PHE423     -0.0003
    155  CE2       99.2410   59.1470   64.4490 C.ar  423  PHE423     -0.0003
    156  CZ       100.3490   59.3170   65.2570 C.ar  423  PHE423     -0.0000
    157  N        100.7850   55.8930   58.7260 N.am  424  ARG424     -0.1966
    158  CA       101.2170   54.9130   57.7370 C.3   424  ARG424      0.1729
    159  C        101.6470   55.6020   56.4450 C.2   424  ARG424      0.2617
    160  O        100.8330   56.2250   55.7640 O.2   424  ARG424     -0.2715
    161  CB       100.1010   53.9060   57.4560 C.3   424  ARG424      0.0348
    162  CG       100.4740   52.8620   56.4270 C.3   424  ARG424      0.0492
    163  CD        99.3760   51.8380   56.2250 C.3   424  ARG424      0.2205
    164  NE        99.7660   50.8170   55.2570 N.pl3 424  ARG424     -0.0865
    165  CZ        98.9740   49.8310   54.8500 C.cat 424  ARG424      0.5346
    166  NH1       97.7400   49.7330   55.3250 N.pl3 424  ARG424      0.1354
    167  NH2       99.4140   48.9450   53.9660 N.pl3 424  ARG424      0.1354
    168  N        102.9300   55.4890   56.1140 N.am  425  THR425     -0.1937
    169  CA       103.4850   56.1830   54.9560 C.3   425  THR425      0.2028
    170  C        104.2990   55.2640   54.0520 C.2   425  THR425      0.2642
    171  O        104.8570   54.2650   54.5030 O.2   425  THR425     -0.2714
    172  CB       104.3920   57.3540   55.3850 C.3   425  THR425      0.1808
    173  OG1      105.4680   56.8560   56.1900 O.3   425  THR425     -0.2208
    174  CG2      103.6050   58.3820   56.1800 C.3   425  THR425      0.0379
    175  N        104.3600   55.6130   52.7710 N.am  426  GLU426     -0.1963
    176  CA       105.2430   54.9380   51.8260 C.3   426  GLU426      0.1718
    177  C        105.9550   55.9700   50.9570 C.2   426  GLU426      0.2458
    178  O        105.6320   56.1280   49.7790 O.2   426  GLU426     -0.2730
    179  CB       104.4640   53.9540   50.9540 C.3   426  GLU426      0.0428
    180  CG       103.8100   52.8190   51.7200 C.3   426  GLU426      0.1163
    181  CD       103.7960   51.5230   50.9380 C.2   426  GLU426      0.3649
    182  OE1      104.3260   51.5060   49.8090 O.co2 426  GLU426     -0.2457
    183  OE2      103.2560   50.5210   51.4500 O.co2 426  GLU426     -0.2457
    184  N        106.9320   56.6770   51.5420 N.am  427  PRO427     -0.2727
    185  CA       107.6180   57.7890   50.8800 C.3   427  PRO427      0.1402
    186  C        108.7380   57.3480   49.9430 C.2   427  PRO427      0.2269
    187  O        109.2950   56.2610   50.1040 O.2   427  PRO427     -0.2865
    188  CB       108.1900   58.5760   52.0560 C.3   427  PRO427      0.0296
    189  CG       108.5150   57.5150   53.0570 C.3   427  PRO427      0.0237
    190  CD       107.4440   56.4570   52.9070 C.3   427  PRO427      0.0939
    191  N        109.6000   52.0650   49.2420 N.3   520  THR520     -0.1218
    192  CA       108.7470   50.9530   48.8260 C.3   520  THR520      0.1862
    193  C        108.1570   51.1190   47.4130 C.2   520  THR520      0.2287
    194  O        108.1100   50.1450   46.6600 O.2   520  THR520     -0.2866
    195  CB       107.5930   50.7300   49.8310 C.3   520  THR520      0.1770
    196  OG1      108.1330   50.5390   51.1440 O.3   520  THR520     -0.2211
    197  CG2      106.7800   49.5030   49.4480 C.3   520  THR520      0.0375
    198  N        111.0780   50.2420   45.1290 N.3   523  LEU523     -0.1231
    199  CA       111.3680   48.8130   45.1780 C.3   523  LEU523      0.1693
    200  C        110.3970   48.0260   44.3070 C.2   523  LEU523      0.2591
    201  O        110.7990   47.1370   43.5560 O.2   523  LEU523     -0.2718
    202  CB       111.3080   48.3050   46.6200 C.3   523  LEU523      0.0284
    203  CG       112.4090   48.8030   47.5580 C.3   523  LEU523      0.0019
    204  CD1      112.0120   48.5980   49.0100 C.3   523  LEU523      0.0001
    205  CD2      113.7170   48.0910   47.2560 C.3   523  LEU523      0.0001
    206  N        109.1160   48.3680   44.4090 N.am  524  GLU524     -0.1979
    207  CA       108.0780   47.6990   43.6360 C.3   524  GLU524      0.1602
    208  C        108.2200   47.9830   42.1450 C.2   524  GLU524      0.2287
    209  O        108.2160   47.0610   41.3300 O.2   524  GLU524     -0.2864
    210  CB       106.6920   48.1270   44.1230 C.3   524  GLU524      0.0415
    211  CG       106.3660   47.6730   45.5380 C.3   524  GLU524      0.1163
    212  CD       104.9970   48.1300   45.9990 C.2   524  GLU524      0.3649
    213  OE1      104.2770   48.7610   45.1960 O.co2 524  GLU524     -0.2457
    214  OE2      104.6400   47.8600   47.1650 O.co2 524  GLU524     -0.2457
    215  N         95.1300   33.6400   50.6160 N.3   669  LEU669     -0.1245
    216  CA        96.1400   34.4260   49.9180 C.3   669  LEU669      0.1561
    217  C         95.7160   34.6270   48.4670 C.2   669  LEU669      0.2260
    218  O         95.5550   33.6590   47.7250 O.2   669  LEU669     -0.2867
    219  CB        97.5020   33.7380   49.9890 C.3   669  LEU669      0.0270
    220  CG        98.6620   34.5110   49.3630 C.3   669  LEU669      0.0019
    221  CD1       99.1010   35.6530   50.2670 C.3   669  LEU669      0.0001
    222  CD2       99.8150   33.5770   49.0630 C.3   669  LEU669      0.0001
    223  N         97.0860   35.7710   45.7360 N.3   671  MET671     -0.1245
    224  CA        97.9880   35.4210   44.6420 C.3   671  MET671      0.1570
    225  C         98.0390   33.9110   44.4760 C.2   671  MET671      0.2261
    226  O         98.4680   33.4010   43.4410 O.2   671  MET671     -0.2867
    227  CB        99.3900   35.9740   44.8940 C.3   671  MET671      0.0387
    228  CG       100.0780   35.3760   46.0990 C.3   671  MET671      0.0595
    229  SD       101.6800   36.1170   46.4070 S.3   671  MET671     -0.1393
    230  CE       102.7500   34.6990   46.4400 C.3   671  MET671      0.0692
@<TRIPOS>BOND
     1   209   208    2
     2   208   207    1
     3   226   225    2
     4   201   200    2
     5   207   210    1
     6   207   206    1
     7    24    23    2
     8    23    22    1
     9    13    12    2
    10   210   211    1
    11   200   206   am
    12   200   199    1
    13   225   224    1
    14   224   227    1
    15   224   223    1
    16    22    21    1
    17    22    25    1
    18   227   228    1
    19   136   137   ar
    20   136   134   ar
    21    12    21   am
    22    12    11    1
    23   198   199    1
    24   199   202    1
    25   213   212   ar
    26   211   212    1
    27   137   135   ar
    28   134   132   ar
    29    11    14    1
    30    11    10    1
    31    25    26    1
    32    16    18   ar
    33    16    15   ar
    34   212   214   ar
    35   228   229    1
    36    27    26   ar
    37    27    29   ar
    38    18    20   ar
    39   229   230    1
    40    14    15    1
    41   202   203    1
    42   194   193    2
    43    26    28   ar
    44    15    17   ar
    45   135   133   ar
    46   132   133   ar
    47   132   131    1
    48    29    31   ar
    49   130   129    2
    50   205   203    1
    51   193   192    1
    52   203   204    1
    53    20    19   ar
    54   218   217    2
    55   131   128    1
    56   138   139    1
    57   129   128    1
    58    28    30   ar
    59    17    19   ar
    60    31    30   ar
    61    31    32    1
    62   217   216    1
    63   143   145    1
    64   143   142    1
    65   110   111    1
    66   110   107    1
    67   128   127    1
    68   192   191    1
    69   192   195    1
    70   111   113   ar
    71   111   112   ar
    72   139   142    1
    73   139   140    1
    74   113   115   ar
    75   222   220    1
    76   112   114   ar
    77   115   114   ar
    78   220   219    1
    79   220   221    1
    80   197   195    1
    81   106   107    1
    82   142   144    1
    83   127   118   am
    84   178   177    2
    85   182   181   ar
    86   195   196    1
    87   107   108    1
    88   216   219    1
    89   216   215    1
    90   186   187    2
    91   186   185    1
    92   140   141    2
    93   109   108    2
    94   108   116   am
    95   185   184    1
    96   185   188    1
    97   118   119    2
    98   118   117    1
    99   181   183   ar
   100   181   180    1
   101   179   180    1
   102   179   176    1
   103   177   184   am
   104   177   176    1
   105   116   117    1
   106     4     3    2
   107   184   190    1
   108   105   103    1
   109   176   175    1
   110   117   120    1
   111   188   189    1
   112     3     2    1
   113   120   121    1
   114   175   170   am
   115   190   189    1
   116    96    95    1
   117    83    81    1
   118     2     1    1
   119     2     5    1
   120   103   102    1
   121   104   102    1
   122    95    97    1
   123    95    92    1
   124    94    93    2
   125   101   100    2
   126    99   102    1
   127    99    98    1
   128    99   100    1
   129    82    81    1
   130   167   165    1
   131   170   171    2
   132   170   169    1
   133    79    78    2
   134   121   123   ar
   135   121   122   ar
   136    93    98   am
   137    93    92    1
   138    81    80    1
   139     5     6    1
   140    80    77    1
   141   123   125   ar
   142    92    91    1
   143   165   164    2
   144   165   166    1
   145     6     7    1
   146   169   172    1
   147   169   168    1
   148    78    77    1
   149    78    84   am
   150   122   124   ar
   151    77    76    1
   152   164   163    1
   153   172   174    1
   154   172   173    1
   155    85    84    1
   156    85    86    1
   157    85    88    1
   158   160   159    2
   159    90    88    1
   160    54    52   ar
   161   125   126   ar
   162     9     7   am
   163     7     8    2
   164    87    86    2
   165   168   159   am
   166   163   162    1
   167   162   161    1
   168   124   126   ar
   169   159   158    1
   170    88    89    1
   171    62    60    1
   172    52    51    1
   173    52    53   ar
   174    66    65    2
   175    51    48    1
   176    69    68    1
   177   161   158    1
   178    74    73    2
   179    70    68    1
   180   158   157    1
   181    72    75    1
   182    72    73    1
   183    72    71    1
   184    67    68    1
   185    67    64    1
   186    65    71   am
   187    65    64    1
   188    60    61    1
   189    60    59    1
   190    47    48    1
   191    48    49    1
   192   157   148   am
   193    64    63    1
   194    49    50    2
   195    58    57    2
   196    59    56    1
   197    56    57    1
   198    56    55    1
   199   148   149    2
   200   148   147    1
   201   146   147    1
   202    37    38    1
   203    37    34    1
   204    40    38   ar
   205    33    34    1
   206    46    45    1
   207   147   150    1
   208    45    42    1
   209    38    39   ar
   210    34    35    1
   211    36    35    2
   212    44    43    2
   213   150   151    1
   214    42    43    1
   215    42    41    1
   216   151   153   ar
   217   151   152   ar
   218   153   155   ar
   219   152   154   ar
   220   155   156   ar
   221   154   156   ar
