@<TRIPOS>MOLECULE
tmp/6ajgA10.pdb
 89 81 0 0 0
SMALL
GASTEIGER

@<TRIPOS>ATOM
      1  N        112.4180   38.2610   48.7250 N.3    47  GLY47      -0.1225
      2  CA       112.7010   37.8280   47.3690 C.3    47  GLY47       0.1811
      3  C        111.7670   38.3950   46.3160 C.2    47  GLY47       0.2280
      4  O        111.7510   37.9230   45.1800 O.2    47  GLY47      -0.2866
      5  N        117.3950   42.5020   43.8460 N.3    51  GLU51      -0.1245
      6  CA       118.5550   42.7120   44.7120 C.3    51  GLU51       0.1567
      7  C        119.6040   43.6310   44.0860 C.2    51  GLU51       0.2260
      8  O        120.3820   44.2680   44.7950 O.2    51  GLU51      -0.2867
      9  CB       119.1990   41.3700   45.0700 C.3    51  GLU51       0.0388
     10  CG       118.3840   40.5100   46.0290 C.3    51  GLU51       0.1160
     11  CD       118.6520   40.8370   47.4880 C.2    51  GLU51       0.3649
     12  OE1      119.0780   41.9730   47.7830 O.co2  51  GLU51      -0.2457
     13  OE2      118.4390   39.9500   48.3420 O.co2  51  GLU51      -0.2457
     14  N        121.1770   28.4130   49.8270 N.3   241  THR241     -0.1204
     15  CA       120.5310   29.6130   49.3080 C.3   241  THR241      0.1979
     16  C        119.1480   29.7840   49.9400 C.2   241  THR241      0.2459
     17  O        118.5200   28.8000   50.3340 O.2   241  THR241     -0.2732
     18  CB       120.4200   29.5530   47.7620 C.3   241  THR241      0.1783
     19  OG1      120.0640   30.8390   47.2400 O.3   241  THR241     -0.2211
     20  CG2      119.3900   28.5230   47.3280 C.3   241  THR241      0.0376
     21  N        118.6810   31.0380   50.0720 N.am  242  PRO242     -0.2728
     22  CA       117.3540   31.2940   50.6450 C.3   242  PRO242      0.1401
     23  C        116.2140   30.6340   49.8710 C.2   242  PRO242      0.2269
     24  O        116.1330   30.7670   48.6490 O.2   242  PRO242     -0.2865
     25  CB       117.2340   32.8190   50.5770 C.3   242  PRO242      0.0296
     26  CG       118.6360   33.3020   50.6340 C.3   242  PRO242      0.0237
     27  CD       119.4450   32.2840   49.8830 C.3   242  PRO242      0.0939
     28  N        110.6420   20.9930   32.9340 N.3   303  VAL303     -0.1245
     29  CA       111.8850   21.6070   33.3930 C.3   303  VAL303      0.1561
     30  C        112.3240   22.7070   32.4290 C.2   303  VAL303      0.2260
     31  O        112.7100   23.7980   32.8500 O.2   303  VAL303     -0.2867
     32  CB       113.0170   20.5660   33.5420 C.3   303  VAL303      0.0252
     33  CG1      114.3670   21.2540   33.6960 C.3   303  VAL303      0.0019
     34  CG2      112.7440   19.6560   34.7280 C.3   303  VAL303      0.0019
     35  N        113.0370   26.5260   33.8260 N.3   307  VAL307     -0.1245
     36  CA       114.3740   27.1260   33.8410 C.3   307  VAL307      0.1561
     37  C        114.4410   28.6020   33.3880 C.2   307  VAL307      0.2260
     38  O        115.1600   29.3900   34.0060 O.2   307  VAL307     -0.2867
     39  CB       115.3530   26.2830   32.9780 C.3   307  VAL307      0.0252
     40  CG1      116.6500   27.0350   32.7210 C.3   307  VAL307      0.0019
     41  CG2      115.6330   24.9480   33.6510 C.3   307  VAL307      0.0019
     42  N        114.6720   31.5430   35.8040 N.3   310  LEU310     -0.1245
     43  CA       115.9220   31.8810   36.4750 C.3   310  LEU310      0.1561
     44  C        116.5540   33.1380   35.8840 C.2   310  LEU310      0.2260
     45  O        117.4810   33.7050   36.4610 O.2   310  LEU310     -0.2867
     46  CB       116.9000   30.7080   36.4020 C.3   310  LEU310      0.0270
     47  CG       116.4110   29.4360   37.0970 C.3   310  LEU310      0.0019
     48  CD1      117.4340   28.3150   36.9780 C.3   310  LEU310      0.0001
     49  CD2      116.0830   29.7220   38.5560 C.3   310  LEU310      0.0001
     50  N        115.5050   38.0340   38.4320 N.3   313  PRO313     -0.2116
     51  CA       116.3660   38.2220   39.6040 C.3   313  PRO313      0.1372
     52  C        115.6540   38.0280   40.9430 C.2   313  PRO313      0.2244
     53  O        116.3180   38.0030   41.9790 O.2   313  PRO313     -0.2868
     54  CB       116.8340   39.6710   39.4530 C.3   313  PRO313      0.0268
     55  CG       115.6970   40.3420   38.7670 C.3   313  PRO313      0.0207
     56  CD       115.1250   39.3200   37.8170 C.3   313  PRO313      0.0892
     57  N        114.2690   36.3260   44.0180 N.3   315  GLY315     -0.1225
     58  CA       114.5210   35.0830   44.7270 C.3   315  GLY315      0.1811
     59  C        113.2580   34.2590   44.8830 C.2   315  GLY315      0.2280
     60  O        113.3080   33.0310   44.9700 O.2   315  GLY315     -0.2866
     61  N        113.0880   32.1630   41.8570 N.3   318  LYS318     -0.1245
     62  CA       114.1780   31.1950   41.8330 C.3   318  LYS318      0.1561
     63  C        113.8840   30.0010   42.7340 C.2   318  LYS318      0.2260
     64  O        114.0810   28.8530   42.3330 O.2   318  LYS318     -0.2867
     65  CB       115.4950   31.8560   42.2410 C.3   318  LYS318      0.0271
     66  CG       116.0210   32.8390   41.2110 C.3   318  LYS318      0.0035
     67  CD       117.5350   32.9080   41.2310 C.3   318  LYS318      0.0206
     68  CE       118.0690   33.5290   39.9510 C.3   318  LYS318      0.1093
     69  NZ       117.4240   34.8390   39.6630 N.3   318  LYS318     -0.1314
     70  N        113.2550   26.1540   41.5260 N.3   322  TYR322     -0.1241
     71  CA       113.9570   25.0310   42.1360 C.3   322  TYR322      0.1605
     72  C        112.9600   24.0010   42.6500 C.2   322  TYR322      0.2264
     73  O        113.1820   22.7960   42.5350 O.2   322  TYR322     -0.2867
     74  CB       114.8580   25.5100   43.2770 C.3   322  TYR322      0.0534
     75  CG       115.9370   26.4700   42.8370 C.ar  322  TYR322     -0.0201
     76  CD1      116.3640   26.5020   41.5170 C.ar  322  TYR322     -0.0009
     77  CD2      116.5290   27.3460   43.7390 C.ar  322  TYR322     -0.0009
     78  CE1      117.3450   27.3750   41.1050 C.ar  322  TYR322      0.0417
     79  CE2      117.5160   28.2260   43.3350 C.ar  322  TYR322      0.0417
     80  CZ       117.9180   28.2330   42.0140 C.ar  322  TYR322      0.1957
     81  OH       118.8950   29.0970   41.5870 O.3   322  TYR322     -0.2866
     82  N        111.3390   22.0980   39.5710 N.3   325  ILE325     -0.1245
     83  CA       112.3280   21.1790   39.0170 C.3   325  ILE325      0.1561
     84  C        112.5370   19.9640   39.9150 C.2   325  ILE325      0.2260
     85  O        112.5530   18.8280   39.4400 O.2   325  ILE325     -0.2867
     86  CB       113.6810   21.8870   38.7960 C.3   325  ILE325      0.0252
     87  CG1      113.5460   22.9610   37.7160 C.3   325  ILE325      0.0019
     88  CG2      114.7580   20.8840   38.4110 C.3   325  ILE325      0.0019
     89  CD1      114.7760   23.8240   37.5570 C.3   325  ILE325      0.0001
@<TRIPOS>BOND
     1    30    31    2
     2    30    29    1
     3    40    39    1
     4    28    29    1
     5    39    41    1
     6    39    36    1
     7    37    36    1
     8    37    38    2
     9    29    32    1
    10    32    33    1
    11    32    34    1
    12    35    36    1
    13    42    43    1
    14    44    45    2
    15    44    43    1
    16    46    43    1
    17    46    47    1
    18    48    47    1
    19    47    49    1
    20    89    87    1
    21    87    86    1
    22    56    50    1
    23    56    55    1
    24    88    86    1
    25    50    51    1
    26    55    54    1
    27    86    83    1
    28    83    82    1
    29    83    84    1
    30    85    84    2
    31    54    51    1
    32    51    52    1
    33    69    68    1
    34    68    67    1
    35    52    53    2
    36    78    76   ar
    37    78    80   ar
    38    66    67    1
    39    66    65    1
    40    76    75   ar
    41    70    71    1
    42    81    80    1
    43    62    61    1
    44    62    65    1
    45    62    63    1
    46    80    79   ar
    47    71    72    1
    48    71    74    1
    49    64    63    2
    50    73    72    2
    51    75    74    1
    52    75    77   ar
    53    79    77   ar
    54     5     6    1
    55    57    58    1
    56     7     6    1
    57     7     8    2
    58     6     9    1
    59    58    59    1
    60    59    60    2
    61     9    10    1
    62     4     3    2
    63    10    11    1
    64     3     2    1
    65    19    18    1
    66    20    18    1
    67     2     1    1
    68    11    12   ar
    69    11    13   ar
    70    18    15    1
    71    24    23    2
    72    15    14    1
    73    15    16    1
    74    23    22    1
    75    27    21    1
    76    27    26    1
    77    16    21   am
    78    16    17    2
    79    21    22    1
    80    25    26    1
    81    25    22    1
