@<TRIPOS>MOLECULE
tmp/6ajgA05.pdb
 160 152 0 0 0
SMALL
GASTEIGER

@<TRIPOS>ATOM
      1  N         96.0140   45.5650   32.6910 N.3   393  LEU393     -0.1231
      2  CA        96.4880   45.1730   34.0100 C.3   393  LEU393      0.1693
      3  C         97.3370   46.1530   34.7990 C.2   393  LEU393      0.2593
      4  O         98.1120   46.9110   34.2500 O.2   393  LEU393     -0.2718
      5  CB        97.1630   43.8070   33.9650 C.3   393  LEU393      0.0284
      6  CG        98.3840   43.5750   33.0950 C.3   393  LEU393      0.0019
      7  CD1       99.0150   44.8910   32.7090 C.3   393  LEU393      0.0001
      8  CD2       99.3750   42.7120   33.8430 C.3   393  LEU393      0.0001
      9  N         97.1430   46.1220   36.1110 N.am  394  SER394     -0.1938
     10  CA        97.8680   46.9480   37.0630 C.3   394  SER394      0.2055
     11  C         98.7550   46.0610   37.9200 C.2   394  SER394      0.2642
     12  O         98.4510   44.8870   38.1290 O.2   394  SER394     -0.2714
     13  CB        96.8960   47.7430   37.9340 C.3   394  SER394      0.2130
     14  OG        95.9080   46.8880   38.4820 O.3   394  SER394     -0.2179
     15  N         99.8560   46.6210   38.4060 N.am  395  LEU395     -0.1977
     16  CA       100.8010   45.8610   39.2110 C.3   395  LEU395      0.1596
     17  C        101.1420   46.6000   40.4970 C.2   395  LEU395      0.2287
     18  O        101.4450   47.7930   40.4780 O.2   395  LEU395     -0.2864
     19  CB       102.0720   45.5790   38.4110 C.3   395  LEU395      0.0297
     20  CG       101.8560   44.8890   37.0640 C.3   395  LEU395      0.0022
     21  CD1      103.0000   45.2020   36.1240 C.3   395  LEU395      0.0001
     22  CD2      101.7030   43.3870   37.2500 C.3   395  LEU395      0.0001
     23  N        100.0600   56.2820   42.0800 N.3   495  ASN495     -0.1240
     24  CA       100.1340   55.7520   40.7250 C.3   495  ASN495      0.1653
     25  C        101.0500   56.5840   39.8290 C.2   495  ASN495      0.2266
     26  O        101.1140   56.3590   38.6230 O.2   495  ASN495     -0.2867
     27  CB        98.7370   55.6620   40.1090 C.3   495  ASN495      0.1155
     28  CG        97.9220   54.5170   40.6810 C.2   495  ASN495      0.2627
     29  OD1       96.7880   54.7060   41.1210 O.2   495  ASN495     -0.2716
     30  ND2       98.4990   53.3200   40.6770 N.am  495  ASN495     -0.0877
     31  N        106.3850   55.3120   39.0110 N.3   498  ALA498     -0.1231
     32  CA       107.3680   55.0280   37.9620 C.3   498  ALA498      0.1694
     33  C        107.9530   56.2780   37.3040 C.2   498  ALA498      0.2591
     34  O        109.1080   56.2870   36.8830 O.2   498  ALA498     -0.2718
     35  CB       106.7420   54.1380   36.8980 C.3   498  ALA498      0.0304
     36  N        107.0670   57.2480   37.0500 N.am  499  LYS499     -0.1980
     37  CA       107.4040   58.5610   36.4690 C.3   499  LYS499      0.1596
     38  C        108.1820   59.5560   37.3550 C.2   499  LYS499      0.2287
     39  O        109.1430   60.1790   36.9020 O.2   499  LYS499     -0.2864
     40  CB       106.1380   59.2370   35.9310 C.3   499  LYS499      0.0298
     41  CG       105.2350   58.3140   35.1290 C.3   499  LYS499      0.0038
     42  CD       104.3090   57.5210   36.0370 C.3   499  LYS499      0.0206
     43  CE       103.2510   56.7810   35.2360 C.3   499  LYS499      0.1093
     44  NZ       102.0600   56.4460   36.0650 N.3   499  LYS499     -0.1314
     45  N        108.3550   49.2580   41.7940 N.3   525  GLN525     -0.1245
     46  CA       108.4410   49.6590   40.3930 C.3   525  GLN525      0.1566
     47  C        109.7130   49.1520   39.7190 C.2   525  GLN525      0.2260
     48  O        109.6870   48.7720   38.5480 O.2   525  GLN525     -0.2867
     49  CB       108.3510   51.1810   40.2700 C.3   525  GLN525      0.0367
     50  CG       106.9710   51.7320   40.5790 C.3   525  GLN525      0.0905
     51  CD       105.9000   51.1300   39.6920 C.2   525  GLN525      0.2608
     52  OE1      106.1150   50.9160   38.4990 O.2   525  GLN525     -0.2717
     53  NE2      104.7400   50.8430   40.2740 N.am  525  GLN525     -0.0878
     54  N        109.0340   45.5630   39.1190 N.3   528  ILE528     -0.1231
     55  CA       108.1200   45.5110   37.9840 C.3   528  ILE528      0.1692
     56  C        108.8760   45.7390   36.6800 C.2   528  ILE528      0.2592
     57  O        108.6730   45.0250   35.6960 O.2   528  ILE528     -0.2718
     58  CB       106.9970   46.5610   38.1180 C.3   528  ILE528      0.0266
     59  CG1      106.0320   46.1720   39.2380 C.3   528  ILE528      0.0019
     60  CG2      106.2430   46.7180   36.8070 C.3   528  ILE528      0.0020
     61  CD1      105.0540   47.2650   39.6070 C.3   528  ILE528      0.0001
     62  N        109.7590   46.7330   36.6860 N.am  529  HIS529     -0.1976
     63  CA       110.5490   47.0680   35.5090 C.3   529  HIS529      0.1656
     64  C        111.5020   45.9400   35.1300 C.2   529  HIS529      0.2291
     65  O        111.6430   45.6080   33.9550 O.2   529  HIS529     -0.2864
     66  CB       111.3390   48.3570   35.7440 C.3   529  HIS529      0.0771
     67  CG       112.0950   48.8280   34.5410 C.ar  529  HIS529      0.0820
     68  ND1      111.4790   49.4290   33.4650 N.ar  529  HIS529     -0.2267
     69  CD2      113.4150   48.7820   34.2420 C.ar  529  HIS529      0.1154
     70  CE1      112.3880   49.7360   32.5550 C.ar  529  HIS529      0.1986
     71  NE2      113.5700   49.3530   33.0020 N.ar  529  HIS529     -0.2212
     72  N        109.6580   42.8160   33.2970 N.3   532  PHE532     -0.1241
     73  CA       109.1950   43.0230   31.9290 C.3   532  PHE532      0.1605
     74  C        110.3420   43.4240   31.0100 C.2   532  PHE532      0.2264
     75  O        110.2100   43.3900   29.7870 O.2   532  PHE532     -0.2867
     76  CB       108.0860   44.0750   31.8920 C.3   532  PHE532      0.0534
     77  CG       106.7610   43.5660   32.3770 C.ar  532  PHE532     -0.0203
     78  CD1      105.9700   42.7730   31.5610 C.ar  532  PHE532     -0.0042
     79  CD2      106.3110   43.8680   33.6500 C.ar  532  PHE532     -0.0042
     80  CE1      104.7510   42.2970   32.0050 C.ar  532  PHE532     -0.0003
     81  CE2      105.0940   43.3940   34.0980 C.ar  532  PHE532     -0.0003
     82  CZ       104.3120   42.6090   33.2750 C.ar  532  PHE532     -0.0000
     83  N        111.3070   39.7690   30.2370 N.3   535  LEU535     -0.1231
     84  CA       110.2410   38.8860   29.7660 C.3   535  LEU535      0.1678
     85  C        110.3750   38.4700   28.2890 C.2   535  LEU535      0.2434
     86  O        110.1110   37.3130   27.9640 O.2   535  LEU535     -0.2733
     87  CB       108.8740   39.5380   30.0050 C.3   535  LEU535      0.0284
     88  CG       107.6380   38.6590   29.7930 C.3   535  LEU535      0.0019
     89  CD1      107.8530   37.2650   30.3630 C.3   535  LEU535      0.0001
     90  CD2      106.4170   39.3050   30.4250 C.3   535  LEU535      0.0001
     91  N        110.7730   39.3980   27.3890 N.am  536  PRO536     -0.2729
     92  CA       110.9720   38.9560   26.0010 C.3   536  PRO536      0.1401
     93  C        111.9940   37.8290   25.8370 C.2   536  PRO536      0.2269
     94  O        111.6810   36.8270   25.1930 O.2   536  PRO536     -0.2865
     95  CB       111.4660   40.2250   25.3040 C.3   536  PRO536      0.0296
     96  CG       110.8290   41.3200   26.0600 C.3   536  PRO536      0.0237
     97  CD       110.8350   40.8690   27.4930 C.3   536  PRO536      0.0939
     98  N        110.7010   34.7230   27.1880 N.3   539  ALA539     -0.1245
     99  CA       109.6780   34.2180   26.2800 C.3   539  ALA539      0.1562
    100  C        110.3080   33.5650   25.0540 C.2   539  ALA539      0.2260
    101  O        109.8720   32.5000   24.6190 O.2   539  ALA539     -0.2867
    102  CB       108.7390   35.3380   25.8590 C.3   539  ALA539      0.0290
    103  N        111.9050   30.3460   26.1100 N.3   542  LEU542     -0.1231
    104  CA       110.8170   29.4190   26.4020 C.3   542  LEU542      0.1693
    105  C        110.2120   28.8360   25.1280 C.2   542  LEU542      0.2591
    106  O        110.0940   27.6190   24.9900 O.2   542  LEU542     -0.2718
    107  CB       109.7300   30.1150   27.2240 C.3   542  LEU542      0.0284
    108  CG       108.4940   29.2880   27.5800 C.3   542  LEU542      0.0019
    109  CD1      108.8940   28.0280   28.3220 C.3   542  LEU542      0.0001
    110  CD2      107.5200   30.1120   28.4080 C.3   542  LEU542      0.0001
    111  N        109.8350   29.7100   24.2000 N.am  543  ILE543     -0.1980
    112  CA       109.2130   29.2840   22.9500 C.3   543  ILE543      0.1595
    113  C        110.1640   28.4490   22.0940 C.2   543  ILE543      0.2287
    114  O        109.7800   27.4000   21.5760 O.2   543  ILE543     -0.2864
    115  CB       108.7190   30.4950   22.1300 C.3   543  ILE543      0.0276
    116  CG1      107.5630   31.1880   22.8520 C.3   543  ILE543      0.0022
    117  CG2      108.2800   30.0620   20.7400 C.3   543  ILE543      0.0022
    118  CD1      107.0260   32.4010   22.1250 C.3   543  ILE543      0.0001
    119  N        100.3040   29.9050   22.9150 N.3   568  ALA568     -0.1245
    120  CA       100.2380   31.3600   22.9650 C.3   568  ALA568      0.1562
    121  C         98.7870   31.8250   23.0000 C.2   568  ALA568      0.2260
    122  O         98.4700   32.8700   23.5680 O.2   568  ALA568     -0.2867
    123  CB       100.9630   31.9660   21.7740 C.3   568  ALA568      0.0290
    124  N         97.3230   30.7420   26.4500 N.3   571  LEU571     -0.1245
    125  CA        97.9960   31.5440   27.4670 C.3   571  LEU571      0.1561
    126  C         97.3590   32.9220   27.5840 C.2   571  LEU571      0.2260
    127  O         96.8770   33.3040   28.6510 O.2   571  LEU571     -0.2867
    128  CB        99.4850   31.6900   27.1480 C.3   571  LEU571      0.0270
    129  CG       100.2870   32.6420   28.0370 C.3   571  LEU571      0.0019
    130  CD1      100.4070   32.0960   29.4500 C.3   571  LEU571      0.0001
    131  CD2      101.6600   32.9030   27.4400 C.3   571  LEU571      0.0001
    132  N         95.6790   45.3910   41.9960 N.3   597  PRO597     -0.2116
    133  CA        96.7920   45.1500   41.0710 C.3   597  PRO597      0.1372
    134  C         97.4920   43.8200   41.3380 C.2   597  PRO597      0.2244
    135  O         97.5960   43.3950   42.4890 O.2   597  PRO597     -0.2868
    136  CB        97.7310   46.3260   41.3440 C.3   597  PRO597      0.0268
    137  CG        96.8350   47.4100   41.8120 C.3   597  PRO597      0.0207
    138  CD        95.7550   46.7320   42.6060 C.3   597  PRO597      0.0892
    139  N        103.1080   32.3780   33.3530 N.3   607  ILE607     -0.1245
    140  CA       103.4260   32.2310   31.9360 C.3   607  ILE607      0.1561
    141  C        104.1220   30.8990   31.7000 C.2   607  ILE607      0.2260
    142  O        103.7300   30.1250   30.8270 O.2   607  ILE607     -0.2867
    143  CB       104.3220   33.3760   31.4210 C.3   607  ILE607      0.0252
    144  CG1      103.5040   34.6530   31.2310 C.3   607  ILE607      0.0019
    145  CG2      104.9800   32.9920   30.1040 C.3   607  ILE607      0.0019
    146  CD1      104.3260   35.8370   30.7670 C.3   607  ILE607      0.0001
    147  N        102.3620   27.6430   29.9060 N.3   611  TRP611     -0.1241
    148  CA       103.0400   27.2260   28.6810 C.3   611  TRP611      0.1605
    149  C        103.4500   25.7560   28.7340 C.2   611  TRP611      0.2264
    150  O        103.1880   24.9970   27.8020 O.2   611  TRP611     -0.2867
    151  CB       104.2700   28.0980   28.4230 C.3   611  TRP611      0.0550
    152  CG       104.8490   27.9100   27.0570 C.ar  611  TRP611      0.0003
    153  CD1      105.8670   27.0720   26.7040 C.ar  611  TRP611      0.0946
    154  CD2      104.4410   28.5740   25.8550 C.ar  611  TRP611      0.0152
    155  NE1      106.1190   27.1750   25.3570 N.ar  611  TRP611     -0.2442
    156  CE2      105.2570   28.0900   24.8130 C.ar  611  TRP611      0.0810
    157  CE3      103.4670   29.5320   25.5590 C.ar  611  TRP611      0.0012
    158  CZ2      105.1280   28.5310   23.4980 C.ar  611  TRP611      0.0191
    159  CZ3      103.3400   29.9680   24.2530 C.ar  611  TRP611      0.0001
    160  CH2      104.1660   29.4680   23.2380 C.ar  611  TRP611      0.0015
@<TRIPOS>BOND
     1   117   115    1
     2   114   113    2
     3   123   120    1
     4   113   112    1
     5   118   116    1
     6   115   116    1
     7   115   112    1
     8   119   120    1
     9   112   111    1
    10   120   121    1
    11   121   122    2
    12   160   158   ar
    13   160   159   ar
    14   158   156   ar
    15   111   105   am
    16   159   157   ar
    17   101   100    2
    18   156   155   ar
    19   156   154   ar
    20   106   105    2
    21   100    99    1
    22   105   104    1
    23    94    93    2
    24    95    92    1
    25    95    96    1
    26   155   153   ar
    27   157   154   ar
    28    93    92    1
    29   154   152   ar
    30   102    99    1
    31    92    91    1
    32    96    97    1
    33   103   104    1
    34    99    98    1
    35   104   107    1
    36   124   125    1
    37   153   152   ar
    38   152   151    1
    39   128   125    1
    40   128   129    1
    41   107   108    1
    42    91    97    1
    43    91    85   am
    44   131   129    1
    45   125   126    1
    46   108   109    1
    47   108   110    1
    48   126   127    2
    49   150   149    2
    50    86    85    2
    51   129   130    1
    52    85    84    1
    53   151   148    1
    54   148   149    1
    55   148   147    1
    56    84    87    1
    57    84    83    1
    58    75    74    2
    59    88    87    1
    60    88    89    1
    61    88    90    1
    62   145   143    1
    63   146   144    1
    64   142   141    2
    65    74    73    1
    66   144   143    1
    67   143   140    1
    68    78    80   ar
    69    78    77   ar
    70   141   140    1
    71    76    73    1
    72    76    77    1
    73    73    72    1
    74   140   139    1
    75    80    82   ar
    76    77    79   ar
    77    70    71   ar
    78    70    68   ar
    79     1     2    1
    80     7     6    1
    81    71    69   ar
    82     6     8    1
    83     6     5    1
    84    82    81   ar
    85    68    67   ar
    86    79    81   ar
    87    65    64    2
    88     5     2    1
    89     2     3    1
    90    69    67   ar
    91     4     3    2
    92    67    66    1
    93     3     9   am
    94    41    40    1
    95    41    42    1
    96    64    63    1
    97    43    42    1
    98    43    44    1
    99    63    66    1
   100    63    62    1
   101    57    56    2
   102    40    37    1
   103     9    10    1
   104    21    20    1
   105    37    36    1
   106    37    38    1
   107    56    62   am
   108    56    55    1
   109    60    58    1
   110    34    33    2
   111    35    32    1
   112    39    38    2
   113    36    33   am
   114    10    11    1
   115    10    13    1
   116    20    22    1
   117    20    19    1
   118    33    32    1
   119    11    12    2
   120    11    15   am
   121    13    14    1
   122    32    31    1
   123    55    58    1
   124    55    54    1
   125    58    59    1
   126    15    16    1
   127    19    16    1
   128    52    51    2
   129    48    47    2
   130    26    25    2
   131    16    17    1
   132    59    61    1
   133    51    53   am
   134    51    50    1
   135    47    46    1
   136    25    24    1
   137    27    28    1
   138    27    24    1
   139    49    46    1
   140    49    50    1
   141    46    45    1
   142    18    17    2
   143    30    28   am
   144    28    29    2
   145    24    23    1
   146   133   134    1
   147   133   136    1
   148   133   132    1
   149   134   135    2
   150   136   137    1
   151   137   138    1
   152   132   138    1
