@<TRIPOS>MOLECULE
tmp/6ajgA06.pdb
 94 87 0 0 0
SMALL
GASTEIGER

@<TRIPOS>ATOM
      1  N        114.9430    3.6460   47.4910 N.3    25  MET25      -0.1245
      2  CA       114.2250    4.8620   47.1280 C.3    25  MET25       0.1570
      3  C        113.1810    5.2640   48.1670 C.2    25  MET25       0.2261
      4  O        113.0150    6.4490   48.4570 O.2    25  MET25      -0.2867
      5  CB       113.5610    4.6900   45.7630 C.3    25  MET25       0.0387
      6  CG       114.5330    4.5110   44.6110 C.3    25  MET25       0.0595
      7  SD       115.6780    5.8950   44.4590 S.3    25  MET25      -0.1393
      8  CE       114.5370    7.2430   44.1630 C.3    25  MET25       0.0692
      9  N        115.0570    6.7390   51.0230 N.3    28  LEU28      -0.1231
     10  CA       115.4900    8.1000   50.7210 C.3    28  LEU28       0.1693
     11  C        114.3310    9.0910   50.7570 C.2    28  LEU28       0.2592
     12  O        114.4730   10.2000   51.2710 O.2    28  LEU28      -0.2718
     13  CB       116.1770    8.1540   49.3550 C.3    28  LEU28       0.0284
     14  CG       117.5270    7.4420   49.2440 C.3    28  LEU28       0.0019
     15  CD1      118.1670    7.7180   47.8920 C.3    28  LEU28       0.0001
     16  CD2      118.4500    7.8650   50.3760 C.3    28  LEU28       0.0001
     17  N        113.1890    8.6900   50.2080 N.am   29  CYS29      -0.1970
     18  CA       112.0160    9.5580   50.1780 C.3    29  CYS29       0.1712
     19  C        111.4530    9.7860   51.5770 C.2    29  CYS29       0.2296
     20  O        111.0620   10.9010   51.9210 O.2    29  CYS29      -0.2864
     21  CB       110.9350    8.9730   49.2670 C.3    29  CYS29       0.0983
     22  SG       111.3070    9.1010   47.5050 S.3    29  CYS29      -0.0798
     23  N        113.2650    9.2620   54.3630 N.3    31  GLY31      -0.1210
     24  CA       114.3570    9.9250   55.0510 C.3    31  GLY31       0.1956
     25  C        114.3850   11.4090   54.7450 C.2    31  GLY31       0.2612
     26  O        114.6430   12.2300   55.6250 O.2    31  GLY31      -0.2717
     27  N        114.1110   11.7520   53.4910 N.am   32  GLY32      -0.1956
     28  CA       114.0660   13.1400   53.0710 C.3    32  GLY32       0.1869
     29  C        112.8640   13.8650   53.6410 C.2    32  GLY32       0.2309
     30  O        112.9610   15.0250   54.0400 O.2    32  GLY32      -0.2863
     31  N        113.5380   14.7600   57.0860 N.3    35  TYR35      -0.1241
     32  CA       114.4770   15.8740   57.0740 C.3    35  TYR35       0.1605
     33  C        113.8220   17.1430   56.5330 C.2    35  TYR35       0.2264
     34  O        114.2890   18.2530   56.7870 O.2    35  TYR35      -0.2867
     35  CB       115.7100   15.5040   56.2420 C.3    35  TYR35       0.0534
     36  CG       116.6910   16.6320   56.0110 C.ar   35  TYR35      -0.0201
     37  CD1      117.4160   17.1780   57.0620 C.ar   35  TYR35      -0.0009
     38  CD2      116.9040   17.1400   54.7360 C.ar   35  TYR35      -0.0009
     39  CE1      118.3190   18.2050   56.8500 C.ar   35  TYR35       0.0417
     40  CE2      117.8050   18.1630   54.5140 C.ar   35  TYR35       0.0417
     41  CZ       118.5090   18.6930   55.5740 C.ar   35  TYR35       0.1957
     42  OH       119.4050   19.7140   55.3550 O.3    35  TYR35      -0.2866
     43  N        110.0620   13.5800   49.4970 N.3   229  GLY229     -0.1225
     44  CA       111.3980   13.7040   48.9470 C.3   229  GLY229      0.1811
     45  C        111.7270   15.1010   48.4550 C.2   229  GLY229      0.2280
     46  O        112.8400   15.5870   48.6560 O.2   229  GLY229     -0.2866
     47  N        112.4350   17.4660   51.2300 N.3   232  GLY232     -0.1210
     48  CA       113.7480   17.1560   51.7620 C.3   232  GLY232      0.1956
     49  C        114.8380   17.7850   50.9180 C.2   232  GLY232      0.2611
     50  O        115.8350   18.2830   51.4410 O.2   232  GLY232     -0.2717
     51  N        114.6420   17.7610   49.6030 N.am  233  ILE233     -0.1979
     52  CA       115.5700   18.3950   48.6760 C.3   233  ILE233      0.1595
     53  C        115.5740   19.9060   48.8780 C.2   233  ILE233      0.2287
     54  O        116.6330   20.5300   48.9300 O.2   233  ILE233     -0.2864
     55  CB       115.2150   18.0700   47.2100 C.3   233  ILE233      0.0276
     56  CG1      115.4070   16.5770   46.9340 C.3   233  ILE233      0.0022
     57  CG2      116.0630   18.8960   46.2540 C.3   233  ILE233      0.0022
     58  CD1      115.0400   16.1640   45.5260 C.3   233  ILE233      0.0001
     59  N        117.4340   20.8350   51.7830 N.3   236  LEU236     -0.1245
     60  CA       118.8570   20.7770   51.4760 C.3   236  LEU236      0.1561
     61  C        119.2940   22.0230   50.7120 C.2   236  LEU236      0.2260
     62  O        120.3750   22.5610   50.9520 O.2   236  LEU236     -0.2867
     63  CB       119.1860   19.5190   50.6700 C.3   236  LEU236      0.0270
     64  CG       120.6180   19.3980   50.1440 C.3   236  LEU236      0.0019
     65  CD1      121.6240   19.4760   51.2840 C.3   236  LEU236      0.0001
     66  CD2      120.7950   18.1080   49.3580 C.3   236  LEU236      0.0001
     67  N        120.1830   25.0710   52.6830 N.3   239  GLU239     -0.1231
     68  CA       121.4980   25.1060   53.3150 C.3   239  GLU239      0.1699
     69  C        122.4970   25.9340   52.5090 C.2   239  GLU239      0.2592
     70  O        123.5700   26.2760   53.0050 O.2   239  GLU239     -0.2718
     71  CB       122.0400   23.6860   53.5040 C.3   239  GLU239      0.0402
     72  CG       121.2530   22.8270   54.4850 C.3   239  GLU239      0.1161
     73  CD       121.6420   23.0720   55.9320 C.2   239  GLU239      0.3649
     74  OE1      121.2640   22.2520   56.7950 O.co2 239  GLU239     -0.2457
     75  OE2      122.3270   24.0790   56.2090 O.co2 239  GLU239     -0.2457
     76  N        122.1420   26.2560   51.2690 N.am  240  PHE240     -0.1976
     77  CA       123.0510   26.9700   50.3790 C.3   240  PHE240      0.1639
     78  C        122.4980   28.3230   49.9400 C.2   240  PHE240      0.2290
     79  O        123.2550   29.2650   49.7050 O.2   240  PHE240     -0.2864
     80  CB       123.3590   26.1210   49.1430 C.3   240  PHE240      0.0560
     81  CG       123.8270   24.7300   49.4630 C.ar  240  PHE240     -0.0200
     82  CD1      125.1640   24.4760   49.7220 C.ar  240  PHE240     -0.0042
     83  CD2      122.9310   23.6740   49.4960 C.ar  240  PHE240     -0.0042
     84  CE1      125.5970   23.1960   50.0140 C.ar  240  PHE240     -0.0003
     85  CE2      123.3580   22.3920   49.7880 C.ar  240  PHE240     -0.0003
     86  CZ       124.6930   22.1530   50.0460 C.ar  240  PHE240     -0.0000
     87  N        111.8340   14.3470   40.4730 N.3   330  LEU330     -0.1245
     88  CA       111.6380   13.2780   41.4450 C.3   330  LEU330      0.1561
     89  C        110.3980   12.4580   41.1080 C.2   330  LEU330      0.2260
     90  O        110.3900   11.2380   41.2670 O.2   330  LEU330     -0.2867
     91  CB       111.5220   13.8450   42.8590 C.3   330  LEU330      0.0270
     92  CG       111.4640   12.8050   43.9790 C.3   330  LEU330      0.0019
     93  CD1      112.7040   11.9210   43.9550 C.3   330  LEU330      0.0001
     94  CD2      111.3070   13.4790   45.3300 C.3   330  LEU330      0.0001
@<TRIPOS>BOND
     1    87    88    1
     2    89    90    2
     3    89    88    1
     4    88    91    1
     5    91    92    1
     6    93    92    1
     7    92    94    1
     8     8     7    1
     9     7     6    1
    10     6     5    1
    11    58    56    1
    12     5     2    1
    13    57    55    1
    14    56    55    1
    15     2     1    1
    16     2     3    1
    17    55    52    1
    18    22    21    1
    19    15    14    1
    20     3     4    2
    21    45    46    2
    22    45    44    1
    23    52    53    1
    24    52    51    1
    25    53    54    2
    26    44    43    1
    27    80    81    1
    28    80    77    1
    29    14    13    1
    30    14    16    1
    31    21    18    1
    32    13    10    1
    33    66    64    1
    34    81    83   ar
    35    81    82   ar
    36    83    85   ar
    37    51    49   am
    38    79    78    2
    39    82    84   ar
    40    85    86   ar
    41    78    77    1
    42    84    86   ar
    43    64    63    1
    44    64    65    1
    45    18    17    1
    46    18    19    1
    47    17    11   am
    48    77    76    1
    49    63    60    1
    50    61    62    2
    51    61    60    1
    52    10    11    1
    53    10     9    1
    54    11    12    2
    55    49    50    2
    56    49    48    1
    57    47    48    1
    58    76    69   am
    59    60    59    1
    60    19    20    2
    61    69    70    2
    62    69    68    1
    63    67    68    1
    64    28    27    1
    65    28    29    1
    66    68    71    1
    67    27    25   am
    68    71    72    1
    69    29    30    2
    70    23    24    1
    71    72    73    1
    72    40    38   ar
    73    40    41   ar
    74    38    36   ar
    75    25    24    1
    76    25    26    2
    77    42    41    1
    78    41    39   ar
    79    73    75   ar
    80    73    74   ar
    81    36    35    1
    82    36    37   ar
    83    35    32    1
    84    33    34    2
    85    33    32    1
    86    39    37   ar
    87    32    31    1
