@<TRIPOS>MOLECULE
tmp/6ajgA02.pdb
 195 182 0 0 0
SMALL
GASTEIGER

@<TRIPOS>ATOM
      1  N        101.6150   21.6650   42.4840 N.3   254  ILE254     -0.1245
      2  CA       102.0670   21.2450   41.1630 C.3   254  ILE254      0.1561
      3  C        102.6740   19.8430   41.1810 C.2   254  ILE254      0.2260
      4  O        102.3360   19.0040   40.3470 O.2   254  ILE254     -0.2867
      5  CB       103.0940   22.2450   40.5940 C.3   254  ILE254      0.0252
      6  CG1      102.3990   23.5590   40.2300 C.3   254  ILE254      0.0019
      7  CG2      103.7970   21.6670   39.3790 C.3   254  ILE254      0.0019
      8  CD1      103.3390   24.6360   39.7460 C.3   254  ILE254      0.0001
      9  N        101.0790   16.1940   39.3450 N.3   258  ILE258     -0.1245
     10  CA       101.9180   15.6800   38.2680 C.3   258  ILE258      0.1561
     11  C        102.4380   14.2790   38.5830 C.2   258  ILE258      0.2260
     12  O        102.4280   13.3960   37.7220 O.2   258  ILE258     -0.2867
     13  CB       103.1070   16.6200   37.9940 C.3   258  ILE258      0.0252
     14  CG1      102.6150   17.9300   37.3790 C.3   258  ILE258      0.0019
     15  CG2      104.1180   15.9630   37.0700 C.3   258  ILE258      0.0019
     16  CD1      103.7250   18.8980   37.0540 C.3   258  ILE258      0.0001
     17  N         99.6480   11.8350   38.3190 N.3   261  ASP261     -0.1225
     18  CA        99.3730   11.6950   36.8910 C.3   261  ASP261      0.1805
     19  C        100.3750   10.7570   36.2240 C.2   261  ASP261      0.2597
     20  O        100.0060    9.9460   35.3740 O.2   261  ASP261     -0.2718
     21  CB        99.3960   13.0610   36.2020 C.3   261  ASP261      0.1424
     22  CG        98.0960   13.8230   36.3700 C.2   261  ASP261      0.3668
     23  OD1       97.2460   13.3850   37.1740 O.co2 261  ASP261     -0.2456
     24  OD2       97.9260   14.8620   35.6990 O.co2 261  ASP261     -0.2456
     25  N        101.6410   10.8760   36.6140 N.am  262  TYR262     -0.1976
     26  CA       102.6880    9.9950   36.1050 C.3   262  TYR262      0.1639
     27  C        102.4180    8.5480   36.4950 C.2   262  TYR262      0.2290
     28  O        102.4490    7.6510   35.6520 O.2   262  TYR262     -0.2864
     29  CB       104.0620   10.4240   36.6270 C.3   262  TYR262      0.0560
     30  CG       104.6520   11.6270   35.9280 C.ar  262  TYR262     -0.0198
     31  CD1      104.1420   12.0730   34.7150 C.ar  262  TYR262     -0.0009
     32  CD2      105.7270   12.3120   36.4780 C.ar  262  TYR262     -0.0009
     33  CE1      104.6840   13.1720   34.0720 C.ar  262  TYR262      0.0417
     34  CE2      106.2770   13.4090   35.8430 C.ar  262  TYR262      0.0417
     35  CZ       105.7520   13.8360   34.6420 C.ar  262  TYR262      0.1957
     36  OH       106.2970   14.9290   34.0080 O.3   262  TYR262     -0.2866
     37  N         99.6190    7.2060   37.4500 N.3   264  LEU264     -0.1231
     38  CA        98.3860    6.7680   36.8050 C.3   264  LEU264      0.1693
     39  C         98.6520    6.2610   35.3900 C.2   264  LEU264      0.2592
     40  O         98.1370    5.2190   34.9890 O.2   264  LEU264     -0.2718
     41  CB        97.3690    7.9140   36.7800 C.3   264  LEU264      0.0284
     42  CG        96.0470    7.7080   36.0380 C.3   264  LEU264      0.0019
     43  CD1       94.8960    8.2850   36.8400 C.3   264  LEU264      0.0001
     44  CD2       96.1000    8.3530   34.6620 C.3   264  LEU264      0.0001
     45  N         99.4640    7.0050   34.6450 N.am  265  PHE265     -0.1976
     46  CA        99.8000    6.6530   33.2690 C.3   265  PHE265      0.1639
     47  C        100.5560    5.3260   33.1930 C.2   265  PHE265      0.2290
     48  O        100.2770    4.4890   32.3340 O.2   265  PHE265     -0.2864
     49  CB       100.6330    7.7710   32.6320 C.3   265  PHE265      0.0560
     50  CG       100.9640    7.5400   31.1820 C.ar  265  PHE265     -0.0200
     51  CD1      100.0980    6.8460   30.3530 C.ar  265  PHE265     -0.0042
     52  CD2      102.1510    8.0170   30.6500 C.ar  265  PHE265     -0.0042
     53  CE1      100.4090    6.6340   29.0230 C.ar  265  PHE265     -0.0003
     54  CE2      102.4660    7.8090   29.3210 C.ar  265  PHE265     -0.0003
     55  CZ       101.5940    7.1170   28.5070 C.ar  265  PHE265     -0.0000
     56  N        107.7500    8.3380   28.0390 N.3   294  THR294     -0.1203
     57  CA       106.8360    9.4660   27.9080 C.3   294  THR294      0.1994
     58  C        106.8740   10.3410   29.1580 C.2   294  THR294      0.2617
     59  O        106.7690   11.5650   29.0760 O.2   294  THR294     -0.2717
     60  CB       105.3910    8.9910   27.6540 C.3   294  THR294      0.1784
     61  OG1      105.3650    8.1230   26.5140 O.3   294  THR294     -0.2211
     62  CG2      104.4650   10.1750   27.4060 C.3   294  THR294      0.0376
     63  N        107.0350    9.7030   30.3140 N.am  295  VAL295     -0.1979
     64  CA       107.1070   10.4170   31.5840 C.3   295  VAL295      0.1595
     65  C        108.3880   11.2420   31.6930 C.2   295  VAL295      0.2287
     66  O        108.3440   12.4240   32.0350 O.2   295  VAL295     -0.2864
     67  CB       107.0240    9.4450   32.7790 C.3   295  VAL295      0.0276
     68  CG1      107.3700   10.1590   34.0740 C.3   295  VAL295      0.0022
     69  CG2      105.6380    8.8270   32.8630 C.3   295  VAL295      0.0022
     70  N        108.2690   14.0680   29.4360 N.3   298  SER298     -0.1217
     71  CA       107.3370   15.0340   30.0050 C.3   298  SER298      0.1889
     72  C        108.0420   15.9090   31.0330 C.2   298  SER298      0.2288
     73  O        107.8310   17.1210   31.0840 O.2   298  SER298     -0.2866
     74  CB       106.1450   14.3220   30.6490 C.3   298  SER298      0.2089
     75  OG       105.3690   15.2220   31.4210 O.3   298  SER298     -0.2183
     76  N        108.6730   20.1180   31.1500 N.3   302  ILE302     -0.1245
     77  CA       108.2980   20.9600   32.2800 C.3   302  ILE302      0.1561
     78  C        109.5110   21.6890   32.8580 C.2   302  ILE302      0.2260
     79  O        109.4220   22.8620   33.2210 O.2   302  ILE302     -0.2867
     80  CB       107.6110   20.1360   33.3860 C.3   302  ILE302      0.0252
     81  CG1      106.3650   19.4440   32.8280 C.3   302  ILE302      0.0019
     82  CG2      107.2370   21.0220   34.5630 C.3   302  ILE302      0.0019
     83  CD1      105.6130   18.6160   33.8460 C.3   302  ILE302      0.0001
     84  N        110.4760   24.3980   30.6780 N.3   305  SER305     -0.1202
     85  CA       109.5050   25.4770   30.7850 C.3   305  SER305      0.2020
     86  C        109.6890   26.2620   32.0790 C.2   305  SER305      0.2619
     87  O        109.1330   27.3460   32.2380 O.2   305  SER305     -0.2717
     88  CB       108.0790   24.9270   30.7040 C.3   305  SER305      0.2103
     89  OG       107.8380   24.3090   29.4510 O.3   305  SER305     -0.2182
     90  N        110.4790   25.7140   32.9970 N.am  306  SER306     -0.1951
     91  CA       110.6690   26.3240   34.3090 C.3   306  SER306      0.1924
     92  C        111.9830   27.0960   34.4030 C.2   306  SER306      0.2314
     93  O        112.0350   28.1770   34.9870 O.2   306  SER306     -0.2863
     94  CB       110.6180   25.2540   35.4010 C.3   306  SER306      0.2116
     95  OG       109.4270   24.4930   35.3100 O.3   306  SER306     -0.2180
     96  N        109.8210   23.4710   41.5560 N.3   324  ILE324     -0.1245
     97  CA       109.1850   22.8020   40.4250 C.3   324  ILE324      0.1561
     98  C        110.0950   21.7220   39.8530 C.2   324  ILE324      0.2260
     99  O        109.6790   20.5770   39.6780 O.2   324  ILE324     -0.2867
    100  CB       108.8210   23.7980   39.3070 C.3   324  ILE324      0.0252
    101  CG1      107.8170   24.8350   39.8150 C.3   324  ILE324      0.0019
    102  CG2      108.2560   23.0630   38.1010 C.3   324  ILE324      0.0019
    103  CD1      107.6060   25.9940   38.8640 C.3   324  ILE324      0.0001
    104  N        105.1540   30.6400   32.4960 N.3   608  ALA608     -0.1231
    105  CA       105.9140   29.4010   32.4090 C.3   608  ALA608      0.1694
    106  C        105.0350   28.1880   32.7010 C.2   608  ALA608      0.2591
    107  O        105.1070   27.1750   32.0050 O.2   608  ALA608     -0.2718
    108  CB       107.0920   29.4430   33.3680 C.3   608  ALA608      0.0304
    109  N        104.2030   28.3040   33.7310 N.am  609  VAL609     -0.1980
    110  CA       103.3420   27.2060   34.1570 C.3   609  VAL609      0.1595
    111  C        102.2880   26.8590   33.1060 C.2   609  VAL609      0.2287
    112  O        102.1010   25.6880   32.7720 O.2   609  VAL609     -0.2864
    113  CB       102.6450   27.5350   35.4960 C.3   609  VAL609      0.0276
    114  CG1      101.4680   26.6000   35.7400 C.3   609  VAL609      0.0022
    115  CG2      103.6420   27.4540   36.6430 C.3   609  VAL609      0.0022
    116  N        104.0960   25.3640   29.8280 N.3   612  GLY612     -0.1210
    117  CA       104.5280   23.9900   30.0090 C.3   612  GLY612      0.1956
    118  C        103.3570   23.0320   30.0960 C.2   612  GLY612      0.2611
    119  O        103.4470   21.8850   29.6590 O.2   612  GLY612     -0.2717
    120  N        102.2550   23.5090   30.6650 N.am  613  LEU613     -0.1979
    121  CA       101.0300   22.7260   30.7700 C.3   613  LEU613      0.1596
    122  C        100.4390   22.4530   29.3910 C.2   613  LEU613      0.2287
    123  O        100.0270   21.3320   29.0890 O.2   613  LEU613     -0.2864
    124  CB       100.0100   23.4540   31.6510 C.3   613  LEU613      0.0297
    125  CG        98.5700   22.9370   31.7000 C.3   613  LEU613      0.0022
    126  CD1       98.4740   21.6440   32.4860 C.3   613  LEU613      0.0001
    127  CD2       97.6520   23.9910   32.2970 C.3   613  LEU613      0.0001
    128  N        103.0350   20.1770   27.2570 N.3   616  ASP616     -0.1225
    129  CA       103.1080   18.7890   27.7050 C.3   616  ASP616      0.1805
    130  C        101.8910   17.9820   27.2610 C.2   616  ASP616      0.2597
    131  O        102.0160   16.8230   26.8660 O.2   616  ASP616     -0.2718
    132  CB       103.2470   18.7240   29.2270 C.3   616  ASP616      0.1424
    133  CG       103.6770   17.3550   29.7140 C.2   616  ASP616      0.3668
    134  OD1      104.5960   16.7690   29.1040 O.co2 616  ASP616     -0.2456
    135  OD2      103.0970   16.8640   30.7040 O.co2 616  ASP616     -0.2456
    136  N        100.7150   18.5990   27.3230 N.am  617  TYR617     -0.1976
    137  CA        99.4810   17.9150   26.9560 C.3   617  TYR617      0.1639
    138  C         99.3440   17.7340   25.4490 C.2   617  TYR617      0.2290
    139  O         98.7580   16.7540   24.9890 O.2   617  TYR617     -0.2864
    140  CB        98.2650   18.6690   27.4980 C.3   617  TYR617      0.0560
    141  CG        97.7810   18.1520   28.8330 C.ar  617  TYR617     -0.0198
    142  CD1       97.1970   16.8970   28.9390 C.ar  617  TYR617     -0.0009
    143  CD2       97.9050   18.9170   29.9840 C.ar  617  TYR617     -0.0009
    144  CE1       96.7530   16.4160   30.1550 C.ar  617  TYR617      0.0417
    145  CE2       97.4620   18.4450   31.2050 C.ar  617  TYR617      0.0417
    146  CZ        96.8870   17.1950   31.2850 C.ar  617  TYR617      0.1957
    147  OH        96.4460   16.7210   32.4980 O.3   617  TYR617     -0.2866
    148  N        101.9240   14.8750   24.0830 N.3   620  PHE620     -0.1241
    149  CA       101.4090   13.5250   24.2940 C.3   620  PHE620      0.1605
    150  C        100.3140   13.1620   23.2920 C.2   620  PHE620      0.2264
    151  O        100.2730   12.0390   22.7870 O.2   620  PHE620     -0.2867
    152  CB       100.8780   13.3740   25.7210 C.3   620  PHE620      0.0534
    153  CG       100.2740   12.0280   26.0010 C.ar  620  PHE620     -0.0203
    154  CD1      101.0700   10.8960   26.0520 C.ar  620  PHE620     -0.0042
    155  CD2       98.9120   11.8950   26.2150 C.ar  620  PHE620     -0.0042
    156  CE1      100.5190    9.6540   26.3090 C.ar  620  PHE620     -0.0003
    157  CE2       98.3550   10.6560   26.4730 C.ar  620  PHE620     -0.0003
    158  CZ        99.1600    9.5340   26.5200 C.ar  620  PHE620     -0.0000
    159  N         92.9800    8.9790   29.3210 N.3   649  LEU649     -0.1231
    160  CA        94.1300    9.3110   30.1550 C.3   649  LEU649      0.1693
    161  C         94.2610   10.8150   30.3840 C.2   649  LEU649      0.2591
    162  O         94.4500   11.2570   31.5170 O.2   649  LEU649     -0.2718
    163  CB        95.4160    8.7660   29.5310 C.3   649  LEU649      0.0284
    164  CG        95.6870    7.2790   29.7610 C.3   649  LEU649      0.0019
    165  CD1       96.8460    6.8080   28.9020 C.3   649  LEU649      0.0001
    166  CD2       95.9670    7.0120   31.2320 C.3   649  LEU649      0.0001
    167  N         94.1640   11.5910   29.3080 N.am  650  ILE650     -0.1980
    168  CA        94.2770   13.0450   29.3950 C.3   650  ILE650      0.1595
    169  C         93.2230   13.6300   30.3320 C.2   650  ILE650      0.2287
    170  O         93.5340   14.4630   31.1840 O.2   650  ILE650     -0.2864
    171  CB        94.1510   13.7080   28.0070 C.3   650  ILE650      0.0276
    172  CG1       95.3820   13.4010   27.1540 C.3   650  ILE650      0.0022
    173  CG2       93.9810   15.2140   28.1440 C.3   650  ILE650      0.0022
    174  CD1       95.3880   14.1040   25.8110 C.3   650  ILE650      0.0001
    175  N         93.9120   12.6460   33.7680 N.3   653  ALA653     -0.1245
    176  CA        95.0620   13.3960   34.2570 C.3   653  ALA653      0.1562
    177  C         94.6860   14.8450   34.5440 C.2   653  ALA653      0.2260
    178  O         95.1140   15.4200   35.5450 O.2   653  ALA653     -0.2867
    179  CB        96.2030   13.3330   33.2540 C.3   653  ALA653      0.0290
    180  N         94.4350   16.7580   38.4130 N.3   657  LEU657     -0.1245
    181  CA        95.1340   18.0300   38.5330 C.3   657  LEU657      0.1561
    182  C         94.1630   19.1410   38.9220 C.2   657  LEU657      0.2260
    183  O         94.5000   20.0310   39.7030 O.2   657  LEU657     -0.2867
    184  CB        95.8410   18.3760   37.2210 C.3   657  LEU657      0.0270
    185  CG        96.7890   19.5760   37.2400 C.3   657  LEU657      0.0019
    186  CD1       97.9340   19.3320   38.2090 C.3   657  LEU657      0.0001
    187  CD2       97.3170   19.8610   35.8430 C.3   657  LEU657      0.0001
    188  N         95.6680   27.6500   36.6290 N.3   679  LEU679     -0.1245
    189  CA        95.7740   26.2280   36.3370 C.3   679  LEU679      0.1561
    190  C         94.4610   25.6940   35.7790 C.2   679  LEU679      0.2260
    191  O         94.4110   25.2370   34.6390 O.2   679  LEU679     -0.2867
    192  CB        96.1680   25.4470   37.5910 C.3   679  LEU679      0.0270
    193  CG        97.6630   25.2270   37.8220 C.3   679  LEU679      0.0019
    194  CD1       97.9040   24.5870   39.1790 C.3   679  LEU679      0.0001
    195  CD2       98.2480   24.3660   36.7130 C.3   679  LEU679      0.0001
@<TRIPOS>BOND
     1   151   150    2
     2   150   149    1
     3   148   149    1
     4   149   152    1
     5   139   138    2
     6   138   137    1
     7   152   153    1
     8   174   172    1
     9   153   154   ar
    10   153   155   ar
    11   154   156   ar
    12   155   157   ar
    13   156   158   ar
    14   157   158   ar
    15    61    60    1
    16   131   130    2
    17   137   136    1
    18   137   140    1
    19   172   171    1
    20   128   129    1
    21   130   136   am
    22   130   129    1
    23    62    60    1
    24   140   141    1
    25    60    57    1
    26   129   132    1
    27    57    56    1
    28    57    58    1
    29   171   173    1
    30   171   168    1
    31    55    53   ar
    32    55    54   ar
    33   141   142   ar
    34   141   143   ar
    35   165   164    1
    36   142   144   ar
    37    53    51   ar
    38    59    58    2
    39   123   122    2
    40   134   133   ar
    41    58    63   am
    42   132   133    1
    43   167   168    1
    44   167   161   am
    45    54    52   ar
    46   159   160    1
    47   122   121    1
    48   168   169    1
    49    70    71    1
    50    89    88    1
    51   163   164    1
    52   163   160    1
    53   119   118    2
    54   133   135   ar
    55   164   166    1
    56   116   117    1
    57   143   145   ar
    58    71    74    1
    59    71    72    1
    60   117   118    1
    61   118   120   am
    62   160   161    1
    63   144   146   ar
    64    63    64    1
    65   169   170    2
    66    51    50   ar
    67   161   162    2
    68    74    75    1
    69    52    50   ar
    70   120   121    1
    71    84    85    1
    72    88    85    1
    73   121   124    1
    74    85    86    1
    75    72    73    2
    76    76    77    1
    77    50    49    1
    78   145   146   ar
    79   146   147    1
    80    64    65    1
    81    64    67    1
    82   124   125    1
    83    65    66    2
    84   125   127    1
    85   125   126    1
    86   107   106    2
    87    86    87    2
    88    86    90   am
    89    77    78    1
    90    77    80    1
    91    48    47    2
    92   105   104    1
    93   105   106    1
    94   105   108    1
    95    49    46    1
    96   106   109   am
    97   112   111    2
    98    67    69    1
    99    67    68    1
   100    81    80    1
   101    81    83    1
   102    78    79    2
   103    90    91    1
   104   111   110    1
   105    47    46    1
   106   179   176    1
   107    46    45    1
   108    80    82    1
   109   109   110    1
   110   175   176    1
   111    36    35    1
   112    33    35   ar
   113    33    31   ar
   114   110   113    1
   115   176   177    1
   116    91    92    1
   117    91    94    1
   118    92    93    2
   119   177   178    2
   120   191   190    2
   121    35    34   ar
   122    45    39   am
   123    44    42    1
   124    31    30   ar
   125    40    39    2
   126    95    94    1
   127    20    19    2
   128    39    38    1
   129   113   114    1
   130   113   115    1
   131    28    27    2
   132    24    22   ar
   133   190   189    1
   134    34    32   ar
   135   187   185    1
   136    30    32   ar
   137    30    29    1
   138    42    41    1
   139    42    43    1
   140    26    27    1
   141    26    25    1
   142    26    29    1
   143    21    22    1
   144    21    18    1
   145    19    25   am
   146    19    18    1
   147   189   188    1
   148   189   192    1
   149    22    23   ar
   150   195   193    1
   151    41    38    1
   152    38    37    1
   153    18    17    1
   154    16    14    1
   155    15    13    1
   156   184   185    1
   157   184   181    1
   158   185   186    1
   159    14    13    1
   160   192   193    1
   161    12    11    2
   162   193   194    1
   163    13    10    1
   164   102   100    1
   165    10    11    1
   166    10     9    1
   167   180   181    1
   168   181   182    1
   169   103   101    1
   170   182   183    2
   171   100   101    1
   172   100    97    1
   173     7     5    1
   174    99    98    2
   175     8     6    1
   176    98    97    1
   177     6     5    1
   178     4     3    2
   179    97    96    1
   180     5     2    1
   181     2     3    1
   182     2     1    1
