@<TRIPOS>MOLECULE
tmp/6ajhA00.pdb
 170 159 0 0 0
SMALL
GASTEIGER

@<TRIPOS>ATOM
      1  N         35.8350   -6.3420  -14.6550 N.3   254  ILE254     -0.1245
      2  CA        36.3070   -5.0650  -15.1720 C.3   254  ILE254      0.1561
      3  C         36.9460   -5.2110  -16.5520 C.2   254  ILE254      0.2260
      4  O         36.6060   -4.4790  -17.4800 O.2   254  ILE254     -0.2867
      5  CB        37.3150   -4.4130  -14.2020 C.3   254  ILE254      0.0252
      6  CG1       36.5900   -3.8920  -12.9600 C.3   254  ILE254      0.0019
      7  CG2       38.0650   -3.2820  -14.8800 C.3   254  ILE254      0.0019
      8  CD1       37.4780   -3.1190  -12.0100 C.3   254  ILE254      0.0001
      9  N         35.5530   -3.4750  -20.3630 N.3   258  ILE258     -0.1245
     10  CA        36.3000   -2.3720  -20.9550 C.3   258  ILE258      0.1561
     11  C         36.8950   -2.7630  -22.3070 C.2   258  ILE258      0.2260
     12  O         36.9520   -1.9470  -23.2270 O.2   258  ILE258     -0.2867
     13  CB        37.4230   -1.8930  -20.0190 C.3   258  ILE258      0.0252
     14  CG1       36.8570   -1.5670  -18.6390 C.3   258  ILE258      0.0019
     15  CG2       38.1020   -0.6660  -20.5840 C.3   258  ILE258      0.0019
     16  CD1       37.8920   -1.0420  -17.6750 C.3   258  ILE258      0.0001
     17  N         34.0770   -2.5770  -24.6180 N.3   261  ASP261     -0.1225
     18  CA        33.7730   -1.1570  -24.7710 C.3   261  ASP261      0.1805
     19  C         34.8190   -0.4650  -25.6380 C.2   261  ASP261      0.2597
     20  O         34.4950    0.4270  -26.4210 O.2   261  ASP261     -0.2718
     21  CB        33.6820   -0.4710  -23.4060 C.3   261  ASP261      0.1424
     22  CG        32.3050   -0.5920  -22.7840 C.2   261  ASP261      0.3668
     23  OD1       31.4910   -1.3930  -23.2880 O.co2 261  ASP261     -0.2456
     24  OD2       32.0370    0.1170  -21.7910 O.co2 261  ASP261     -0.2456
     25  N         36.0740   -0.8790  -25.4910 N.am  262  TYR262     -0.1976
     26  CA        37.1450   -0.3830  -26.3470 C.3   262  TYR262      0.1639
     27  C         36.9100   -0.8140  -27.7880 C.2   262  TYR262      0.2290
     28  O         36.9940   -0.0060  -28.7120 O.2   262  TYR262     -0.2864
     29  CB        38.5090   -0.8860  -25.8670 C.3   262  TYR262      0.0560
     30  CG        39.0690   -0.1400  -24.6760 C.ar  262  TYR262     -0.0198
     31  CD1       38.5090    1.0580  -24.2530 C.ar  262  TYR262     -0.0009
     32  CD2       40.1670   -0.6320  -23.9810 C.ar  262  TYR262     -0.0009
     33  CE1       39.0230    1.7430  -23.1670 C.ar  262  TYR262      0.0417
     34  CE2       40.6890    0.0460  -22.8960 C.ar  262  TYR262      0.0417
     35  CZ        40.1140    1.2330  -22.4940 C.ar  262  TYR262      0.1957
     36  OH        40.6290    1.9100  -21.4110 O.3   262  TYR262     -0.2866
     37  N         34.0860   -1.8250  -29.1570 N.3   264  LEU264     -0.1231
     38  CA        32.8700   -1.1870  -29.6480 C.3   264  LEU264      0.1693
     39  C         33.1660    0.2090  -30.1810 C.2   264  LEU264      0.2592
     40  O         32.7370    0.5700  -31.2750 O.2   264  LEU264     -0.2718
     41  CB        31.8140   -1.1210  -28.5370 C.3   264  LEU264      0.0284
     42  CG        30.5210   -0.3350  -28.7850 C.3   264  LEU264      0.0019
     43  CD1       29.3530   -1.0310  -28.1160 C.3   264  LEU264      0.0001
     44  CD2       30.6290    1.0970  -28.2730 C.3   264  LEU264      0.0001
     45  N         33.9120    0.9820  -29.4000 N.am  265  PHE265     -0.1976
     46  CA        34.1730    2.3810  -29.7130 C.3   265  PHE265      0.1639
     47  C         35.1280    2.5570  -30.8940 C.2   265  PHE265      0.2290
     48  O         35.1100    3.5890  -31.5660 O.2   265  PHE265     -0.2864
     49  CB        34.7250    3.0910  -28.4730 C.3   265  PHE265      0.0560
     50  CG        35.1700    4.5010  -28.7270 C.ar  265  PHE265     -0.0200
     51  CD1       34.2540    5.4780  -29.0770 C.ar  265  PHE265     -0.0042
     52  CD2       36.5040    4.8520  -28.6050 C.ar  265  PHE265     -0.0042
     53  CE1       34.6610    6.7770  -29.3110 C.ar  265  PHE265     -0.0003
     54  CE2       36.9170    6.1500  -28.8340 C.ar  265  PHE265     -0.0003
     55  CZ        35.9940    7.1140  -29.1880 C.ar  265  PHE265     -0.0000
     56  N         42.0040    8.0050  -27.7530 N.3   294  THR294     -0.1203
     57  CA        40.9790    8.0750  -26.7200 C.3   294  THR294      0.1994
     58  C         41.0370    6.8300  -25.8390 C.2   294  THR294      0.2617
     59  O         40.8810    6.9090  -24.6200 O.2   294  THR294     -0.2717
     60  CB        39.5700    8.2160  -27.3300 C.3   294  THR294      0.1784
     61  OG1       39.4840    9.4480  -28.0570 O.3   294  THR294     -0.2211
     62  CG2       38.5070    8.2000  -26.2420 C.3   294  THR294      0.0376
     63  N         41.2770    5.6830  -26.4660 N.am  295  VAL295     -0.1979
     64  CA        41.3770    4.4190  -25.7470 C.3   295  VAL295      0.1595
     65  C         42.6230    4.3710  -24.8650 C.2   295  VAL295      0.2287
     66  O         42.5450    4.0200  -23.6870 O.2   295  VAL295     -0.2864
     67  CB        41.3970    3.2220  -26.7180 C.3   295  VAL295      0.0276
     68  CG1       41.7040    1.9330  -25.9720 C.3   295  VAL295      0.0022
     69  CG2       40.0700    3.1140  -27.4490 C.3   295  VAL295      0.0022
     70  N         42.3010    6.6270  -21.9870 N.3   298  SER298     -0.1217
     71  CA        41.3660    5.9990  -21.0620 C.3   298  SER298      0.1889
     72  C         42.0840    4.9720  -20.1940 C.2   298  SER298      0.2288
     73  O         41.8240    4.8630  -18.9960 O.2   298  SER298     -0.2866
     74  CB        40.2170    5.3350  -21.8230 C.3   298  SER298      0.2089
     75  OG        39.5250    4.4120  -21.0000 O.3   298  SER298     -0.2183
     76  N         42.5840    5.0400  -16.0010 N.3   302  ILE302     -0.1245
     77  CA        42.2600    3.9170  -15.1270 C.3   302  ILE302      0.1561
     78  C         43.4680    3.4730  -14.3050 C.2   302  ILE302      0.2260
     79  O         43.3580    3.2560  -13.0970 O.2   302  ILE302     -0.2867
     80  CB        41.7230    2.7220  -15.9380 C.3   302  ILE302      0.0252
     81  CG1       40.3320    3.0460  -16.4850 C.3   302  ILE302      0.0019
     82  CG2       41.6690    1.4690  -15.0790 C.3   302  ILE302      0.0019
     83  CD1       39.8140    2.0350  -17.4780 C.3   302  ILE302      0.0001
     84  N         37.9070    2.3680   -8.1390 N.3   609  VAL609     -0.1245
     85  CA        37.1340    1.9040   -9.2870 C.3   609  VAL609      0.1561
     86  C         36.0180    2.8780   -9.6670 C.2   609  VAL609      0.2260
     87  O         35.8610    3.2210  -10.8400 O.2   609  VAL609     -0.2867
     88  CB        36.5290    0.5100   -9.0190 C.3   609  VAL609      0.0252
     89  CG1       35.4710    0.1760  -10.0530 C.3   609  VAL609      0.0019
     90  CG2       37.6220   -0.5480   -9.0120 C.3   609  VAL609      0.0019
     91  N         37.5800    6.1980  -10.9780 N.3   612  GLY612     -0.1210
     92  CA        38.1140    6.0050  -12.3130 C.3   612  GLY612      0.1956
     93  C         37.0210    5.9280  -13.3610 C.2   612  GLY612      0.2611
     94  O         37.1470    6.5030  -14.4420 O.2   612  GLY612     -0.2717
     95  N         35.9480    5.2130  -13.0370 N.am  613  LEU613     -0.1979
     96  CA        34.7960    5.0980  -13.9250 C.3   613  LEU613      0.1596
     97  C         34.1650    6.4640  -14.1710 C.2   613  LEU613      0.2287
     98  O         33.8560    6.8220  -15.3080 O.2   613  LEU613     -0.2864
     99  CB        33.7580    4.1400  -13.3370 C.3   613  LEU613      0.0297
    100  CG        32.4550    3.9760  -14.1230 C.3   613  LEU613      0.0022
    101  CD1       32.6390    3.0030  -15.2740 C.3   613  LEU613      0.0001
    102  CD2       31.3220    3.5270  -13.2130 C.3   613  LEU613      0.0001
    103  N         36.6120    8.6510  -16.2480 N.3   616  ASP616     -0.1225
    104  CA        36.7650    8.1950  -17.6260 C.3   616  ASP616      0.1805
    105  C         35.5720    8.5980  -18.4910 C.2   616  ASP616      0.2597
    106  O         35.7430    9.0320  -19.6300 O.2   616  ASP616     -0.2718
    107  CB        36.9570    6.6770  -17.6690 C.3   616  ASP616      0.1424
    108  CG        37.7060    6.2200  -18.9050 C.2   616  ASP616      0.3668
    109  OD1       38.4110    7.0520  -19.5160 O.co2 616  ASP616     -0.2456
    110  OD2       37.5960    5.0290  -19.2640 O.co2 616  ASP616     -0.2456
    111  N         34.3670    8.4550  -17.9470 N.am  617  TYR617     -0.1976
    112  CA        33.1530    8.8120  -18.6760 C.3   617  TYR617      0.1639
    113  C         33.0340   10.3220  -18.8700 C.2   617  TYR617      0.2290
    114  O         32.4380   10.7860  -19.8420 O.2   617  TYR617     -0.2864
    115  CB        31.9170    8.2740  -17.9520 C.3   617  TYR617      0.0560
    116  CG        31.4600    6.9230  -18.4560 C.ar  617  TYR617     -0.0198
    117  CD1       32.2180    5.7820  -18.2290 C.ar  617  TYR617     -0.0009
    118  CD2       30.2700    6.7900  -19.1600 C.ar  617  TYR617     -0.0009
    119  CE1       31.8050    4.5460  -18.6900 C.ar  617  TYR617      0.0417
    120  CE2       29.8490    5.5580  -19.6240 C.ar  617  TYR617      0.0417
    121  CZ        30.6200    4.4400  -19.3870 C.ar  617  TYR617      0.1957
    122  OH        30.2060    3.2110  -19.8470 O.3   617  TYR617     -0.2866
    123  N         35.6870   11.6050  -21.7230 N.3   620  PHE620     -0.1241
    124  CA        35.2040   11.2950  -23.0630 C.3   620  PHE620      0.1605
    125  C         34.1130   12.2640  -23.5130 C.2   620  PHE620      0.2264
    126  O         34.1530   12.7790  -24.6300 O.2   620  PHE620     -0.2867
    127  CB        34.6810    9.8600  -23.1300 C.3   620  PHE620      0.0534
    128  CG        34.0770    9.5020  -24.4550 C.ar  620  PHE620     -0.0203
    129  CD1       34.8720    9.3920  -25.5840 C.ar  620  PHE620     -0.0042
    130  CD2       32.7170    9.2770  -24.5760 C.ar  620  PHE620     -0.0042
    131  CE1       34.3220    9.0660  -26.8070 C.ar  620  PHE620     -0.0003
    132  CE2       32.1610    8.9470  -25.7970 C.ar  620  PHE620     -0.0003
    133  CZ        32.9650    8.8430  -26.9150 C.ar  620  PHE620     -0.0000
    134  N         26.7830    6.0350  -28.3200 N.3   649  LEU649     -0.1231
    135  CA        27.9360    5.2060  -27.9810 C.3   649  LEU649      0.1693
    136  C         28.0050    4.9280  -26.4850 C.2   649  LEU649      0.2591
    137  O         28.1680    3.7820  -26.0650 O.2   649  LEU649     -0.2718
    138  CB        29.2340    5.8700  -28.4420 C.3   649  LEU649      0.0284
    139  CG        29.6430    5.6510  -29.8980 C.3   649  LEU649      0.0019
    140  CD1       30.9730    6.3260  -30.1820 C.3   649  LEU649      0.0001
    141  CD2       29.7170    4.1650  -30.2090 C.3   649  LEU649      0.0001
    142  N         27.8810    5.9870  -25.6910 N.am  650  ILE650     -0.1980
    143  CA        27.9900    5.8860  -24.2400 C.3   650  ILE650      0.1595
    144  C         26.9530    4.9310  -23.6550 C.2   650  ILE650      0.2287
    145  O         27.2780    4.1070  -22.8020 O.2   650  ILE650     -0.2864
    146  CB        27.8480    7.2680  -23.5730 C.3   650  ILE650      0.0276
    147  CG1       28.9970    8.1820  -24.0020 C.3   650  ILE650      0.0022
    148  CG2       27.8190    7.1350  -22.0590 C.3   650  ILE650      0.0022
    149  CD1       29.0150    9.5190  -23.2950 C.3   650  ILE650      0.0001
    150  N         27.8960    1.4330  -24.6600 N.3   653  ALA653     -0.1245
    151  CA        29.0620    1.0280  -23.8850 C.3   653  ALA653      0.1562
    152  C         28.6810    0.7390  -22.4360 C.2   653  ALA653      0.2260
    153  O         29.0680   -0.2880  -21.8780 O.2   653  ALA653     -0.2867
    154  CB        30.1380    2.0990  -23.9470 C.3   653  ALA653      0.0290
    155  N         28.6450   -2.8080  -20.1880 N.3   657  LEU657     -0.1245
    156  CA        29.3010   -2.9020  -18.8910 C.3   657  LEU657      0.1561
    157  C         28.2960   -3.2760  -17.8050 C.2   657  LEU657      0.2260
    158  O         28.6080   -4.0500  -16.8990 O.2   657  LEU657     -0.2867
    159  CB        29.9950   -1.5830  -18.5440 C.3   657  LEU657      0.0270
    160  CG        30.9090   -1.5920  -17.3180 C.3   657  LEU657      0.0019
    161  CD1       31.9650   -2.6790  -17.4440 C.3   657  LEU657      0.0001
    162  CD2       31.5580   -0.2300  -17.1280 C.3   657  LEU657      0.0001
    163  N         29.4760   -0.8340   -9.1550 N.3   679  LEU679     -0.1245
    164  CA        29.6560   -0.5340  -10.5690 C.3   679  LEU679      0.1561
    165  C         28.3470   -0.0850  -11.2020 C.2   679  LEU679      0.2260
    166  O         28.2720    1.0050  -11.7660 O.2   679  LEU679     -0.2867
    167  CB        30.2060   -1.7510  -11.3160 C.3   679  LEU679      0.0270
    168  CG        31.7240   -1.8240  -11.4850 C.3   679  LEU679      0.0019
    169  CD1       32.0840   -2.7070  -12.6690 C.3   679  LEU679      0.0001
    170  CD2       32.3050   -0.4320  -11.6570 C.3   679  LEU679      0.0001
@<TRIPOS>BOND
     1    48    47    2
     2    40    39    2
     3    47    46    1
     4   141   139    1
     5   140   139    1
     6    39    38    1
     7    39    45   am
     8   139   138    1
     9    46    45    1
    10    46    49    1
    11    38    37    1
    12    38    41    1
    13    53    55   ar
    14    53    51   ar
    15    55    54   ar
    16    51    50   ar
    17    54    52   ar
    18    42    41    1
    19    42    44    1
    20    42    43    1
    21    50    52   ar
    22    50    49    1
    23    28    27    2
    24   138   135    1
    25   134   135    1
    26    61    60    1
    27   135   136    1
    28    27    26    1
    29    56    57    1
    30    69    67    1
    31    60    57    1
    32    60    62    1
    33   133   131   ar
    34   133   132   ar
    35   131   129   ar
    36    57    58    1
    37    67    68    1
    38    67    64    1
    39   136   137    2
    40   136   142   am
    41    63    58   am
    42    63    64    1
    43    20    19    2
    44    26    29    1
    45    26    25    1
    46    29    30    1
    47    58    59    2
    48   132   130   ar
    49    64    65    1
    50   142   143    1
    51    19    25   am
    52    19    18    1
    53   129   128   ar
    54    65    66    2
    55    18    17    1
    56    18    21    1
    57    30    31   ar
    58    30    32   ar
    59   150   151    1
    60   126   125    2
    61   130   128   ar
    62   128   127    1
    63    31    33   ar
    64   143   144    1
    65   143   146    1
    66   147   146    1
    67   147   149    1
    68    32    34   ar
    69   154   151    1
    70   151   152    1
    71   144   145    2
    72   146   148    1
    73   125   124    1
    74    21    22    1
    75    23    22   ar
    76    12    11    2
    77    33    35   ar
    78   127   124    1
    79   124   123    1
    80    34    35   ar
    81    22    24   ar
    82    35    36    1
    83   152   153    2
    84    11    10    1
    85    70    71    1
    86    74    71    1
    87    74    75    1
    88    71    72    1
    89    10     9    1
    90    10    13    1
    91    15    13    1
    92    72    73    2
    93   155   156    1
    94    13    14    1
    95   122   121    1
    96   114   113    2
    97   106   105    2
    98   120   121   ar
    99   120   118   ar
   100   109   108   ar
   101   121   119   ar
   102   110   108   ar
   103   118   116   ar
   104   108   107    1
   105   156   159    1
   106   156   157    1
   107   113   112    1
   108   119   117   ar
   109   112   115    1
   110   112   111    1
   111    14    16    1
   112   159   160    1
   113   105   111   am
   114   105   104    1
   115   116   117   ar
   116   116   115    1
   117   157   158    2
   118   107   104    1
   119   104   103    1
   120     4     3    2
   121    83    81    1
   122   161   160    1
   123   160   162    1
   124     3     2    1
   125    81    80    1
   126    76    77    1
   127    80    77    1
   128    80    82    1
   129    98    97    2
   130   101   100    1
   131     2     1    1
   132     2     5    1
   133    77    78    1
   134     7     5    1
   135    94    93    2
   136    78    79    2
   137     5     6    1
   138    97    96    1
   139   100    99    1
   140   100   102    1
   141    96    99    1
   142    96    95    1
   143    93    95   am
   144    93    92    1
   145     6     8    1
   146   169   168    1
   147    92    91    1
   148   166   165    2
   149   170   168    1
   150   168   167    1
   151   167   164    1
   152   165   164    1
   153    87    86    2
   154   164   163    1
   155    89    88    1
   156    86    85    1
   157    85    88    1
   158    85    84    1
   159    88    90    1
