@<TRIPOS>MOLECULE
tmp/6ajhA03.pdb
 144 138 0 0 0
SMALL
GASTEIGER

@<TRIPOS>ATOM
      1  N         52.0510   19.8220  -24.8080 N.3     1  PHE1       -0.1227
      2  CA        52.9470   18.8740  -25.4770 C.3     1  PHE1        0.1736
      3  C         52.2890   17.5140  -25.6690 C.2     1  PHE1        0.2595
      4  O         51.6660   16.9780  -24.7470 O.2     1  PHE1       -0.2718
      5  CB        54.2480   18.7010  -24.6840 C.3     1  PHE1        0.0547
      6  CG        55.4140   18.2250  -25.5140 C.ar    1  PHE1       -0.0202
      7  CD1       55.8320   18.9600  -26.6110 C.ar    1  PHE1       -0.0042
      8  CD2       56.0900   17.0530  -25.2040 C.ar    1  PHE1       -0.0042
      9  CE1       56.9050   18.5470  -27.3820 C.ar    1  PHE1       -0.0003
     10  CE2       57.1690   16.6310  -25.9760 C.ar    1  PHE1       -0.0003
     11  CZ        57.5750   17.3810  -27.0660 C.ar    1  PHE1       -0.0000
     12  N         52.3890   16.9820  -26.8820 N.am    2  GLN2       -0.1965
     13  CA        51.8440   15.6720  -27.2120 C.3     2  GLN2        0.1733
     14  C         52.4720   15.1190  -28.4850 C.2     2  GLN2        0.2617
     15  O         53.1500   15.8210  -29.2170 O.2     2  GLN2       -0.2715
     16  CB        50.3260   15.7010  -27.3490 C.3     2  GLN2        0.0408
     17  CG        49.6630   16.9380  -26.7850 C.3     2  GLN2        0.0908
     18  CD        48.3250   17.2070  -27.4340 C.2     2  GLN2        0.2608
     19  OE1       47.4680   17.8730  -26.8580 O.2     2  GLN2       -0.2717
     20  NE2       48.1370   16.6860  -28.6370 N.am    2  GLN2       -0.0878
     21  N         52.2330   13.8480  -28.7370 N.am    3  SER3       -0.1950
     22  CA        52.7560   13.1670  -29.9160 C.3     3  SER3        0.1924
     23  C         51.6690   12.3210  -30.5690 C.2     3  SER3        0.2314
     24  O         51.2720   11.2930  -30.0230 O.2     3  SER3       -0.2863
     25  CB        53.9410   12.2670  -29.5590 C.3     3  SER3        0.2116
     26  OG        54.9020   12.9170  -28.7530 O.3     3  SER3       -0.2180
     27  N         51.0540    7.9120  -33.1010 N.3     7  PHE7       -0.1241
     28  CA        49.8300    7.2220  -33.4910 C.3     7  PHE7        0.1605
     29  C         49.6240    7.2460  -35.0010 C.2     7  PHE7        0.2264
     30  O         49.1070    6.2880  -35.5770 O.2     7  PHE7       -0.2867
     31  CB        48.6240    7.8360  -32.7800 C.3     7  PHE7        0.0534
     32  CG        48.5510    7.4950  -31.3200 C.ar    7  PHE7       -0.0203
     33  CD1       49.2950    8.2040  -30.3910 C.ar    7  PHE7       -0.0042
     34  CD2       47.7440    6.4590  -30.8780 C.ar    7  PHE7       -0.0042
     35  CE1       49.2310    7.8890  -29.0460 C.ar    7  PHE7       -0.0003
     36  CE2       47.6760    6.1400  -29.5340 C.ar    7  PHE7       -0.0003
     37  CZ        48.4210    6.8560  -28.6170 C.ar    7  PHE7       -0.0000
     38  N         42.6990    8.9840  -33.7280 N.3   290  THR290     -0.1218
     39  CA        41.6320    9.6430  -32.9850 C.3   290  THR290      0.1862
     40  C         41.0960    8.7660  -31.8600 C.2   290  THR290      0.2287
     41  O         41.4250    8.9710  -30.6910 O.2   290  THR290     -0.2866
     42  CB        40.4660   10.0430  -33.9120 C.3   290  THR290      0.1770
     43  OG1       39.8890    8.8690  -34.4960 O.3   290  THR290     -0.2211
     44  CG2       40.9570   10.9690  -35.0150 C.3   290  THR290      0.0375
     45  N         43.6870    7.0150  -29.6520 N.3   293  ARG293     -0.1231
     46  CA        44.2620    7.8720  -28.6210 C.3   293  ARG293      0.1694
     47  C         43.2980    8.0470  -27.4550 C.2   293  ARG293      0.2592
     48  O         43.7190    8.2170  -26.3110 O.2   293  ARG293     -0.2718
     49  CB        44.6430    9.2330  -29.2060 C.3   293  ARG293      0.0321
     50  CG        46.0840    9.3020  -29.6730 C.3   293  ARG293      0.0489
     51  CD        46.3330   10.4680  -30.6100 C.3   293  ARG293      0.2205
     52  NE        46.1380   11.7590  -29.9600 N.pl3 293  ARG293     -0.0865
     53  CZ        45.9540   12.9000  -30.6150 C.cat 293  ARG293      0.5346
     54  NH1       45.7850   14.0320  -29.9460 N.pl3 293  ARG293      0.1354
     55  NH2       45.9340   12.9080  -31.9410 N.pl3 293  ARG293      0.1354
     56  N         42.0040    8.0050  -27.7530 N.am  294  THR294     -0.1953
     57  CA        40.9790    8.0750  -26.7200 C.3   294  THR294      0.1897
     58  C         41.0370    6.8300  -25.8390 C.2   294  THR294      0.2313
     59  O         40.8810    6.9090  -24.6200 O.2   294  THR294     -0.2863
     60  CB        39.5700    8.2160  -27.3300 C.3   294  THR294      0.1794
     61  OG1       39.4840    9.4480  -28.0570 O.3   294  THR294     -0.2208
     62  CG2       38.5070    8.2000  -26.2420 C.3   294  THR294      0.0378
     63  N         43.7680    4.7280  -25.4410 N.3   296  VAL296     -0.1231
     64  CA        45.0320    4.7240  -24.7110 C.3   296  VAL296      0.1692
     65  C         44.9770    5.6640  -23.5100 C.2   296  VAL296      0.2592
     66  O         45.4160    5.3110  -22.4150 O.2   296  VAL296     -0.2718
     67  CB        46.2110    5.1240  -25.6230 C.3   296  VAL296      0.0266
     68  CG1       47.4730    5.3570  -24.8040 C.3   296  VAL296      0.0020
     69  CG2       46.4460    4.0570  -26.6820 C.3   296  VAL296      0.0020
     70  N         44.4250    6.8550  -23.7170 N.am  297  PHE297     -0.1976
     71  CA        44.3020    7.8310  -22.6400 C.3   297  PHE297      0.1639
     72  C         43.3500    7.3260  -21.5620 C.2   297  PHE297      0.2290
     73  O         43.5620    7.5650  -20.3730 O.2   297  PHE297     -0.2864
     74  CB        43.8230    9.1780  -23.1820 C.3   297  PHE297      0.0560
     75  CG        44.0130   10.3170  -22.2220 C.ar  297  PHE297     -0.0200
     76  CD1       45.2830   10.7800  -21.9230 C.ar  297  PHE297     -0.0042
     77  CD2       42.9240   10.9250  -21.6210 C.ar  297  PHE297     -0.0042
     78  CE1       45.4650   11.8280  -21.0410 C.ar  297  PHE297     -0.0003
     79  CE2       43.0990   11.9740  -20.7380 C.ar  297  PHE297     -0.0003
     80  CZ        44.3720   12.4250  -20.4470 C.ar  297  PHE297     -0.0000
     81  N         45.2560    5.0760  -19.4820 N.3   300  VAL300     -0.1245
     82  CA        46.1090    5.8680  -18.6020 C.3   300  VAL300      0.1561
     83  C         45.3260    6.3530  -17.3840 C.2   300  VAL300      0.2260
     84  O         45.8140    6.2870  -16.2540 O.2   300  VAL300     -0.2867
     85  CB        46.7130    7.0790  -19.3460 C.3   300  VAL300      0.0252
     86  CG1       47.4120    8.0170  -18.3730 C.3   300  VAL300      0.0019
     87  CG2       47.6740    6.6120  -20.4290 C.3   300  VAL300      0.0019
     88  N         45.4710   18.3540  -18.9480 N.3   552  LEU552     -0.1231
     89  CA        46.0580   18.0130  -20.2390 C.3   552  LEU552      0.1693
     90  C         45.0070   17.7280  -21.3090 C.2   552  LEU552      0.2591
     91  O         45.2300   17.9900  -22.4910 O.2   552  LEU552     -0.2718
     92  CB        46.9790   16.8000  -20.0920 C.3   552  LEU552      0.0284
     93  CG        48.1500   16.9310  -19.1170 C.3   552  LEU552      0.0019
     94  CD1       48.9630   15.6450  -19.0810 C.3   552  LEU552      0.0001
     95  CD2       49.0280   18.1150  -19.4890 C.3   552  LEU552      0.0001
     96  N         43.8650   17.1890  -20.8940 N.am  553  ALA553     -0.1980
     97  CA        42.8410   16.7580  -21.8410 C.3   553  ALA553      0.1597
     98  C         41.9200   17.8960  -22.2690 C.2   553  ALA553      0.2287
     99  O         41.5770   18.0180  -23.4440 O.2   553  ALA553     -0.2864
    100  CB        42.0240   15.6210  -21.2440 C.3   553  ALA553      0.0319
    101  N         35.7660   12.5470  -19.0850 N.3   619  VAL619     -0.1231
    102  CA        36.7950   12.9610  -20.0330 C.3   619  VAL619      0.1692
    103  C         36.3540   12.7280  -21.4770 C.2   619  VAL619      0.2592
    104  O         36.5950   13.5630  -22.3490 O.2   619  VAL619     -0.2718
    105  CB        38.1250   12.2200  -19.7630 C.3   619  VAL619      0.0266
    106  CG1       39.0890   12.3790  -20.9310 C.3   619  VAL619      0.0020
    107  CG2       38.7550   12.7260  -18.4740 C.3   619  VAL619      0.0020
    108  N         35.6870   11.6050  -21.7230 N.am  620  PHE620     -0.1976
    109  CA        35.2040   11.2950  -23.0630 C.3   620  PHE620      0.1639
    110  C         34.1130   12.2640  -23.5130 C.2   620  PHE620      0.2290
    111  O         34.1530   12.7790  -24.6300 O.2   620  PHE620     -0.2864
    112  CB        34.6810    9.8600  -23.1300 C.3   620  PHE620      0.0560
    113  CG        34.0770    9.5020  -24.4550 C.ar  620  PHE620     -0.0200
    114  CD1       34.8720    9.3920  -25.5840 C.ar  620  PHE620     -0.0042
    115  CD2       32.7170    9.2770  -24.5760 C.ar  620  PHE620     -0.0042
    116  CE1       34.3220    9.0660  -26.8070 C.ar  620  PHE620     -0.0003
    117  CE2       32.1610    8.9470  -25.7970 C.ar  620  PHE620     -0.0003
    118  CZ        32.9650    8.8430  -26.9150 C.ar  620  PHE620     -0.0000
    119  N         35.6010   16.2980  -23.5540 N.3   623  SER623     -0.1202
    120  CA        36.6530   16.6330  -24.5110 C.3   623  SER623      0.2020
    121  C         36.1370   16.7200  -25.9480 C.2   623  SER623      0.2618
    122  O         36.8370   17.2120  -26.8340 O.2   623  SER623     -0.2717
    123  CB        37.7910   15.6150  -24.4290 C.3   623  SER623      0.2103
    124  OG        38.4230   15.6600  -23.1620 O.3   623  SER623     -0.2182
    125  N         34.9190   16.2410  -26.1790 N.am  624  ARG624     -0.1979
    126  CA        34.2910   16.3840  -27.4880 C.3   624  ARG624      0.1597
    127  C         33.5830   17.7300  -27.5670 C.2   624  ARG624      0.2287
    128  O         33.3960   18.2860  -28.6490 O.2   624  ARG624     -0.2864
    129  CB        33.3070   15.2430  -27.7590 C.3   624  ARG624      0.0334
    130  CG        33.9420   13.8610  -27.8830 C.3   624  ARG624      0.0492
    131  CD        35.3740   13.9290  -28.3870 C.3   624  ARG624      0.2205
    132  NE        36.0440   12.6360  -28.2910 N.pl3 624  ARG624     -0.0865
    133  CZ        36.8860   12.3090  -27.3180 C.cat 624  ARG624      0.5346
    134  NH1       37.1490   13.1790  -26.3560 N.pl3 624  ARG624      0.1354
    135  NH2       37.4540   11.1120  -27.2980 N.pl3 624  ARG624      0.1354
    136  N         36.0540   20.2790  -28.3050 N.3   627  GLU627     -0.1245
    137  CA        36.2910   20.3100  -29.7420 C.3   627  GLU627      0.1567
    138  C         35.4870   21.4310  -30.3840 C.2   627  GLU627      0.2260
    139  O         35.9620   22.0880  -31.3110 O.2   627  GLU627     -0.2867
    140  CB        35.9230   18.9670  -30.3760 C.3   627  GLU627      0.0388
    141  CG        37.1140   18.0640  -30.6510 C.3   627  GLU627      0.1160
    142  CD        36.7030   16.6450  -30.9920 C.2   627  GLU627      0.3649
    143  OE1       35.7050   16.4730  -31.7230 O.co2 627  GLU627     -0.2457
    144  OE2       37.3780   15.7010  -30.5280 O.co2 627  GLU627     -0.2457
@<TRIPOS>BOND
     1    30    29    2
     2    44    42    1
     3    29    28    1
     4    43    42    1
     5    42    39    1
     6    38    39    1
     7    28    27    1
     8    28    31    1
     9    39    40    1
    10    31    32    1
    11    55    53    1
    12    40    41    2
    13   143   142   ar
    14    32    34   ar
    15    32    33   ar
    16   139   138    2
    17   142   141    1
    18   142   144   ar
    19    34    36   ar
    20   141   140    1
    21    53    52    2
    22    53    54    1
    23    51    52    1
    24    51    50    1
    25    23    24    2
    26    23    22    1
    27    33    35   ar
    28   138   137    1
    29   140   137    1
    30    22    25    1
    31    22    21    1
    32   137   136    1
    33    50    49    1
    34    45    46    1
    35    25    26    1
    36    36    37   ar
    37    15    14    2
    38    49    46    1
    39    35    37   ar
    40    21    14   am
    41   128   127    2
    42    20    18   am
    43    46    47    1
    44    14    13    1
    45   131   132    1
    46   131   130    1
    47   132   133    2
    48    61    60    1
    49   130   129    1
    50   129   126    1
    51    56    47   am
    52    56    57    1
    53   127   126    1
    54   126   125    1
    55    47    48    2
    56    18    19    2
    57    18    17    1
    58     9    11   ar
    59     9     7   ar
    60    16    13    1
    61    16    17    1
    62    60    57    1
    63    60    62    1
    64   133   135    1
    65   133   134    1
    66    13    12    1
    67    11    10   ar
    68   118   116   ar
    69   118   117   ar
    70    12     3   am
    71   122   121    2
    72   116   114   ar
    73    57    58    1
    74    69    67    1
    75     7     6   ar
    76   125   121   am
    77    10     8   ar
    78   121   120    1
    79    58    59    2
    80   117   115   ar
    81     3     2    1
    82     3     4    2
    83    67    68    1
    84    67    64    1
    85   114   113   ar
    86     6     8   ar
    87     6     5    1
    88     2     1    1
    89     2     5    1
    90    63    64    1
    91    64    65    1
    92   111   110    2
    93   115   113   ar
    94   120   123    1
    95   120   119    1
    96   113   112    1
    97   123   124    1
    98    70    65   am
    99    70    71    1
   100   110   109    1
   101    65    66    2
   102    99    98    2
   103    74    71    1
   104    74    75    1
   105   112   109    1
   106   109   108    1
   107    71    72    1
   108    91    90    2
   109   104   103    2
   110    98    97    1
   111    75    76   ar
   112    75    77   ar
   113    76    78   ar
   114    97   100    1
   115    97    96    1
   116   108   103   am
   117    77    79   ar
   118    72    73    2
   119   103   102    1
   120    90    96   am
   121    90    89    1
   122    78    80   ar
   123   106   105    1
   124    79    80   ar
   125    87    85    1
   126    89    92    1
   127    89    88    1
   128    92    93    1
   129   102   105    1
   130   102   101    1
   131   105   107    1
   132    95    93    1
   133    81    82    1
   134    85    82    1
   135    85    86    1
   136    93    94    1
   137    82    83    1
   138    83    84    2
