@<TRIPOS>MOLECULE
tmp/6ajhA04.pdb
 101 99 0 0 0
SMALL
GASTEIGER

@<TRIPOS>ATOM
      1  N         23.6000    1.7890    2.4970 N.3   580  TRP580     -0.1227
      2  CA        22.1680    1.6560    2.7220 C.3   580  TRP580      0.1737
      3  C         21.6850    0.2480    2.3770 C.2   580  TRP580      0.2595
      4  O         20.7240   -0.2480    2.9620 O.2   580  TRP580     -0.2718
      5  CB        21.4160    2.7000    1.8950 C.3   580  TRP580      0.0564
      6  CG        19.9430    2.7540    2.1430 C.ar  580  TRP580      0.0003
      7  CD1       19.3130    3.2630    3.2410 C.ar  580  TRP580      0.0946
      8  CD2       18.9090    2.3050    1.2610 C.ar  580  TRP580      0.0152
      9  NE1       17.9520    3.1480    3.1030 N.ar  580  TRP580     -0.2442
     10  CE2       17.6770    2.5620    1.8920 C.ar  580  TRP580      0.0810
     11  CE3       18.9050    1.7030   -0.0020 C.ar  580  TRP580      0.0012
     12  CZ2       16.4540    2.2410    1.3090 C.ar  580  TRP580      0.0191
     13  CZ3       17.6900    1.3840   -0.5820 C.ar  580  TRP580      0.0001
     14  CH2       16.4820    1.6540    0.0730 C.ar  580  TRP580      0.0015
     15  N         22.3670   -0.3950    1.4350 N.am  581  MET581     -0.1979
     16  CA        21.9700   -1.7200    0.9680 C.3   581  MET581      0.1605
     17  C         22.5680   -2.8640    1.7840 C.2   581  MET581      0.2287
     18  O         21.8890   -3.8530    2.0610 O.2   581  MET581     -0.2864
     19  CB        22.3580   -1.9020   -0.5020 C.3   581  MET581      0.0413
     20  CG        21.4470   -1.1990   -1.4900 C.3   581  MET581      0.0598
     21  SD        21.9280   -1.5290   -3.1970 S.3   581  MET581     -0.1393
     22  CE        21.9620   -3.3200   -3.1990 C.3   581  MET581      0.0692
     23  N         20.8650   -2.7410    5.2520 N.3   585  GLY585     -0.1210
     24  CA        20.2460   -4.0000    4.8720 C.3   585  GLY585      0.1956
     25  C         19.1570   -3.9500    3.8170 C.2   585  GLY585      0.2612
     26  O         18.4540   -4.9370    3.6050 O.2   585  GLY585     -0.2717
     27  N         19.0150   -2.8460    3.1180 N.am  586  HIS586     -0.1961
     28  CA        17.9340   -2.7610    2.1620 C.3   586  HIS586      0.1787
     29  C         18.2500   -3.3760    0.8610 C.2   586  HIS586      0.2620
     30  O         19.0370   -2.8960    0.0990 O.2   586  HIS586     -0.2715
     31  CB        17.5470   -1.3240    1.9470 C.3   586  HIS586      0.0785
     32  CG        16.9940   -0.6830    3.1680 C.ar  586  HIS586      0.0821
     33  ND1       15.6990   -0.8710    3.5730 N.ar  586  HIS586     -0.2267
     34  CD2       17.5700    0.1110    4.0920 C.ar  586  HIS586      0.1154
     35  CE1       15.4950   -0.2040    4.6890 C.ar  586  HIS586      0.1986
     36  NE2       16.6170    0.4000    5.0250 N.ar  586  HIS586     -0.2212
     37  N         17.5200   -4.4180    0.5820 N.am  587  GLY587     -0.1954
     38  CA        17.7090   -5.1970   -0.6300 C.3   587  GLY587      0.1869
     39  C         18.2040   -6.5990   -0.3310 C.2   587  GLY587      0.2309
     40  O         18.3330   -7.4290   -1.2310 O.2   587  GLY587     -0.2863
     41  N         16.8320   -9.1200    1.3740 N.3   589  GLY589     -0.1210
     42  CA        15.8570  -10.1880    1.2360 C.3   589  GLY589      0.1956
     43  C         15.7420  -10.7210   -0.1790 C.2   589  GLY589      0.2612
     44  O         15.8000  -11.9300   -0.4030 O.2   589  GLY589     -0.2717
     45  N         15.5750   -9.8130   -1.1350 N.am  590  LEU590     -0.1965
     46  CA        15.4660  -10.1760   -2.5440 C.3   590  LEU590      0.1728
     47  C         16.7540  -10.8110   -3.0550 C.2   590  LEU590      0.2616
     48  O         16.7250  -11.7260   -3.8780 O.2   590  LEU590     -0.2715
     49  CB        15.1240   -8.9410   -3.3810 C.3   590  LEU590      0.0311
     50  CG        15.2510   -8.9870   -4.9050 C.3   590  LEU590      0.0022
     51  CD1       14.3250  -10.0340   -5.5010 C.3   590  LEU590      0.0001
     52  CD2       14.9630   -7.6140   -5.4940 C.3   590  LEU590      0.0001
     53  N         17.8530  -10.2430   -2.6030 N.am  591  MET591     -0.1977
     54  CA        19.1740  -10.6230   -3.0170 C.3   591  MET591      0.1605
     55  C         19.8480  -11.7380   -2.2610 C.2   591  MET591      0.2287
     56  O         20.9190  -12.1340   -2.6610 O.2   591  MET591     -0.2864
     57  CB        20.0510   -9.3980   -2.9870 C.3   591  MET591      0.0413
     58  CG        19.6810   -8.3890   -4.0350 C.3   591  MET591      0.0598
     59  SD        20.0950   -9.0680   -5.6170 S.3   591  MET591     -0.1393
     60  CE        18.5600   -8.9100   -6.4790 C.3   591  MET591      0.0692
     61  N         26.1240   -6.8400  -13.9870 N.3   662  GLY662     -0.1225
     62  CA        24.8500   -7.3610  -13.5250 C.3   662  GLY662      0.1811
     63  C         24.8290   -8.8610  -13.3020 C.2   662  GLY662      0.2280
     64  O         23.9090   -9.3860  -12.6760 O.2   662  GLY662     -0.2866
     65  N         26.3690   -9.5430   -9.5220 N.3   665  VAL665     -0.1231
     66  CA        25.5740   -9.1310   -8.3700 C.3   665  VAL665      0.1692
     67  C         24.8560  -10.3260   -7.7490 C.2   665  VAL665      0.2592
     68  O         24.2870  -10.2220   -6.6630 O.2   665  VAL665     -0.2718
     69  CB        24.5310   -8.0570   -8.7430 C.3   665  VAL665      0.0266
     70  CG1       25.1980   -6.8830   -9.4420 C.3   665  VAL665      0.0020
     71  CG2       23.4390   -8.6520   -9.6150 C.3   665  VAL665      0.0020
     72  N         24.8880  -11.4600   -8.4430 N.am  666  PHE666     -0.1976
     73  CA        24.2400  -12.6760   -7.9650 C.3   666  PHE666      0.1639
     74  C         25.2220  -13.6110   -7.2690 C.2   666  PHE666      0.2290
     75  O         24.8730  -14.7380   -6.9180 O.2   666  PHE666     -0.2864
     76  CB        23.5610  -13.4120   -9.1220 C.3   666  PHE666      0.0560
     77  CG        22.3550  -12.7040   -9.6660 C.ar  666  PHE666     -0.0200
     78  CD1       21.1570  -12.7200   -8.9720 C.ar  666  PHE666     -0.0042
     79  CD2       22.4160  -12.0280  -10.8730 C.ar  666  PHE666     -0.0042
     80  CE1       20.0430  -12.0720   -9.4680 C.ar  666  PHE666     -0.0003
     81  CE2       21.3050  -11.3780  -11.3750 C.ar  666  PHE666     -0.0003
     82  CZ        20.1170  -11.4000  -10.6720 C.ar  666  PHE666     -0.0000
     83  N         27.5660   -4.2180   -7.5060 N.3   677  PHE677     -0.1241
     84  CA        26.5040   -3.2260   -7.3660 C.3   677  PHE677      0.1605
     85  C         27.0690   -1.8110   -7.4040 C.2   677  PHE677      0.2264
     86  O         26.4340   -0.8970   -7.9320 O.2   677  PHE677     -0.2867
     87  CB        25.7230   -3.4410   -6.0680 C.3   677  PHE677      0.0534
     88  CG        24.4600   -4.2330   -6.2450 C.ar  677  PHE677     -0.0203
     89  CD1       23.3740   -3.6870   -6.9090 C.ar  677  PHE677     -0.0042
     90  CD2       24.3560   -5.5190   -5.7420 C.ar  677  PHE677     -0.0042
     91  CE1       22.2070   -4.4110   -7.0730 C.ar  677  PHE677     -0.0003
     92  CE2       23.1920   -6.2480   -5.9030 C.ar  677  PHE677     -0.0003
     93  CZ        22.1170   -5.6930   -6.5690 C.ar  677  PHE677     -0.0000
     94  N         27.3250   -0.9320  -11.0990 N.3   680  LEU680     -0.1245
     95  CA        26.0100   -0.6640  -11.6810 C.3   680  LEU680      0.1561
     96  C         25.4660    0.7060  -11.2980 C.2   680  LEU680      0.2260
     97  O         25.0090    1.4610  -12.1540 O.2   680  LEU680     -0.2867
     98  CB        25.0110   -1.7430  -11.2580 C.3   680  LEU680      0.0270
     99  CG        25.0470   -3.0610  -12.0300 C.3   680  LEU680      0.0019
    100  CD1       23.9960   -4.0180  -11.4960 C.3   680  LEU680      0.0001
    101  CD2       24.8360   -2.8050  -13.5110 C.3   680  LEU680      0.0001
@<TRIPOS>BOND
     1    61    62    1
     2    62    63    1
     3   101    99    1
     4    63    64    2
     5    97    96    2
     6    99   100    1
     7    99    98    1
     8    95    96    1
     9    95    98    1
    10    95    94    1
    11    81    79   ar
    12    81    82   ar
    13    79    77   ar
    14    82    80   ar
    15    77    76    1
    16    77    78   ar
    17    71    69    1
    18    65    66    1
    19    80    78   ar
    20    70    69    1
    21    76    73    1
    22    69    66    1
    23    72    73    1
    24    72    67   am
    25    66    67    1
    26    73    74    1
    27    86    85    2
    28    67    68    2
    29    83    84    1
    30    85    84    1
    31    84    87    1
    32    74    75    2
    33    91    89   ar
    34    91    93   ar
    35    89    88   ar
    36    93    92   ar
    37    60    59    1
    38    88    87    1
    39    88    90   ar
    40    92    90   ar
    41    59    58    1
    42    51    50    1
    43    52    50    1
    44    50    49    1
    45    58    57    1
    46    48    47    2
    47    49    46    1
    48    22    21    1
    49    21    20    1
    50    47    53   am
    51    47    46    1
    52    54    57    1
    53    54    53    1
    54    54    55    1
    55    56    55    2
    56    46    45    1
    57    20    19    1
    58    40    39    2
    59    45    43   am
    60    38    39    1
    61    38    37    1
    62    13    11   ar
    63    13    14   ar
    64    19    16    1
    65    44    43    2
    66    43    42    1
    67    11     8   ar
    68    14    12   ar
    69    30    29    2
    70    37    29   am
    71    29    28    1
    72    16    15    1
    73    16    17    1
    74    42    41    1
    75     8    10   ar
    76     8     6   ar
    77    12    10   ar
    78    15     3   am
    79    17    18    2
    80    10     9   ar
    81     5     6    1
    82     5     2    1
    83    31    28    1
    84    31    32    1
    85     6     7   ar
    86    28    27    1
    87     3     2    1
    88     3     4    2
    89     1     2    1
    90     9     7   ar
    91    27    25   am
    92    32    33   ar
    93    32    34   ar
    94    33    35   ar
    95    26    25    2
    96    25    24    1
    97    34    36   ar
    98    35    36   ar
    99    24    23    1
