@<TRIPOS>MOLECULE
tmp/6ajiA00.pdb
 197 182 0 0 0
SMALL
GASTEIGER

@<TRIPOS>ATOM
      1  N         38.7140   -8.4420  -11.1370 N.3   248  VAL248     -0.1245
      2  CA        39.1860   -7.1410  -11.6050 C.3   248  VAL248      0.1561
      3  C         39.5650   -7.1970  -13.0770 C.2   248  VAL248      0.2260
      4  O         39.2800   -6.2620  -13.8380 O.2   248  VAL248     -0.2867
      5  CB        40.3550   -6.6620  -10.7230 C.3   248  VAL248      0.0252
      6  CG1       41.0900   -5.4750  -11.3550 C.3   248  VAL248      0.0019
      7  CG2       39.8260   -6.2900   -9.3430 C.3   248  VAL248      0.0019
      8  N         36.2210   -7.1920  -15.1210 N.3   251  LEU251     -0.1231
      9  CA        35.6140   -5.9040  -15.0890 C.3   251  LEU251      0.1693
     10  C         36.1890   -5.0070  -16.1020 C.2   251  LEU251      0.2591
     11  O         35.5080   -4.4820  -16.9210 O.2   251  LEU251     -0.2718
     12  CB        35.9400   -5.2720  -13.7810 C.3   251  LEU251      0.0284
     13  CG        35.0740   -5.8100  -12.6910 C.3   251  LEU251      0.0019
     14  CD1       35.6340   -5.3690  -11.3760 C.3   251  LEU251      0.0001
     15  CD2       33.7120   -5.2130  -12.8800 C.3   251  LEU251      0.0001
     16  N         37.4720   -4.7860  -16.0020 N.am  252  ILE252     -0.1980
     17  CA        38.1750   -3.8940  -16.9200 C.3   252  ILE252      0.1595
     18  C         38.0760   -4.4060  -18.3550 C.2   252  ILE252      0.2287
     19  O         37.8690   -3.6300  -19.3040 O.2   252  ILE252     -0.2864
     20  CB        39.6430   -3.7010  -16.4990 C.3   252  ILE252      0.0276
     21  CG1       39.7220   -2.9350  -15.1570 C.3   252  ILE252      0.0022
     22  CG2       40.4090   -2.9280  -17.5270 C.3   252  ILE252      0.0022
     23  CD1       41.1430   -2.7850  -14.6360 C.3   252  ILE252      0.0001
     24  N         34.5080   -4.0990  -19.4490 N.3   255  GLY255     -0.1210
     25  CA        34.0760   -2.7290  -19.2650 C.3   255  GLY255      0.1956
     26  C         34.9220   -1.7010  -19.9820 C.2   255  GLY255      0.2611
     27  O         34.4480   -1.0410  -20.9100 O.2   255  GLY255     -0.2717
     28  N         36.1790   -1.5520  -19.5670 N.am  256  ILE256     -0.1979
     29  CA        36.9970   -0.4730  -20.1080 C.3   256  ILE256      0.1595
     30  C         37.5050   -0.8090  -21.5040 C.2   256  ILE256      0.2287
     31  O         37.4510    0.0330  -22.4070 O.2   256  ILE256     -0.2864
     32  CB        38.1480   -0.1490  -19.1430 C.3   256  ILE256      0.0276
     33  CG1       37.6010    0.5720  -17.9110 C.3   256  ILE256      0.0022
     34  CG2       39.1950    0.7090  -19.8280 C.3   256  ILE256      0.0022
     35  CD1       38.6880    1.0880  -16.9940 C.3   256  ILE256      0.0001
     36  N         34.7700   -0.3860  -23.8450 N.3   259  ASP259     -0.1225
     37  CA        34.4980    1.0460  -23.9680 C.3   259  ASP259      0.1805
     38  C         35.5940    1.7740  -24.7410 C.2   259  ASP259      0.2597
     39  O         35.3130    2.7510  -25.4450 O.2   259  ASP259     -0.2718
     40  CB        34.3380    1.6740  -22.5860 C.3   259  ASP259      0.1424
     41  CG        32.9000    1.7390  -22.1450 C.2   259  ASP259      0.3668
     42  OD1       32.0180    1.4090  -22.9650 O.co2 259  ASP259     -0.2456
     43  OD2       32.6510    2.1220  -20.9840 O.co2 259  ASP259     -0.2456
     44  N         36.8440    1.3360  -24.6050 N.am  260  TYR260     -0.1976
     45  CA        37.9120    1.9320  -25.3970 C.3   260  TYR260      0.1639
     46  C         37.6410    1.7450  -26.8860 C.2   260  TYR260      0.2290
     47  O         37.7260    2.6960  -27.6700 O.2   260  TYR260     -0.2864
     48  CB        39.2620    1.3240  -25.0050 C.3   260  TYR260      0.0560
     49  CG        39.9200    1.9690  -23.7970 C.ar  260  TYR260     -0.0198
     50  CD1       39.4620    3.1840  -23.2930 C.ar  260  TYR260     -0.0009
     51  CD2       40.9990    1.3600  -23.1570 C.ar  260  TYR260     -0.0009
     52  CE1       40.0650    3.7750  -22.1890 C.ar  260  TYR260      0.0417
     53  CE2       41.6080    1.9460  -22.0550 C.ar  260  TYR260      0.0417
     54  CZ        41.1370    3.1500  -21.5780 C.ar  260  TYR260      0.1957
     55  OH        41.7450    3.7300  -20.4890 O.3   260  TYR260     -0.2866
     56  N         34.9110    3.9390  -28.4540 N.3   263  PHE263     -0.1241
     57  CA        35.2870    5.3090  -28.7780 C.3   263  PHE263      0.1605
     58  C         36.0690    5.3760  -30.0770 C.2   263  PHE263      0.2264
     59  O         35.9790    6.3750  -30.8030 O.2   263  PHE263     -0.2867
     60  CB        36.1030    5.9180  -27.6390 C.3   263  PHE263      0.0534
     61  CG        35.2660    6.5150  -26.5510 C.ar  263  PHE263     -0.0203
     62  CD1       34.6560    7.7520  -26.7260 C.ar  263  PHE263     -0.0042
     63  CD2       35.0760    5.8410  -25.3580 C.ar  263  PHE263     -0.0042
     64  CE1       33.8710    8.3050  -25.7270 C.ar  263  PHE263     -0.0003
     65  CE2       34.2940    6.3860  -24.3540 C.ar  263  PHE263     -0.0003
     66  CZ        33.6910    7.6200  -24.5380 C.ar  263  PHE263     -0.0000
     67  N         44.4570    6.1910  -15.3630 N.3   300  ILE300     -0.1245
     68  CA        43.9940    5.1210  -14.4870 C.3   300  ILE300      0.1561
     69  C         45.1740    4.4610  -13.7910 C.2   300  ILE300      0.2260
     70  O         45.1200    4.1610  -12.5910 O.2   300  ILE300     -0.2867
     71  CB        43.1630    4.1050  -15.2880 C.3   300  ILE300      0.0252
     72  CG1       41.8410    4.7380  -15.7150 C.3   300  ILE300      0.0019
     73  CG2       42.9290    2.8460  -14.4770 C.3   300  ILE300      0.0019
     74  CD1       41.1020    3.9400  -16.7540 C.3   300  ILE300      0.0001
     75  N         44.7380   -4.1040  -12.2990 N.3   322  ILE322     -0.1245
     76  CA        44.2980   -2.8810  -12.9650 C.3   322  ILE322      0.1561
     77  C         45.3260   -2.4430  -14.0010 C.2   322  ILE322      0.2260
     78  O         44.9920   -2.1590  -15.1590 O.2   322  ILE322     -0.2867
     79  CB        44.0520   -1.7630  -11.9390 C.3   322  ILE322      0.0252
     80  CG1       42.7780   -2.0180  -11.1450 C.3   322  ILE322      0.0019
     81  CG2       43.9750   -0.4270  -12.6490 C.3   322  ILE322      0.0019
     82  CD1       42.8040   -1.3730   -9.7840 C.3   322  ILE322      0.0001
     83  N         40.9980    0.8730   -1.9440 N.3   586  LEU586     -0.1245
     84  CA        40.6700    0.4810   -3.3070 C.3   586  LEU586      0.1561
     85  C         39.5540    1.3500   -3.8610 C.2   586  LEU586      0.2260
     86  O         39.6820    1.9140   -4.9510 O.2   586  LEU586     -0.2867
     87  CB        40.2780   -0.9950   -3.3430 C.3   586  LEU586      0.0270
     88  CG        39.7230   -1.5420   -4.6510 C.3   586  LEU586      0.0019
     89  CD1       40.7460   -1.3680   -5.7470 C.3   586  LEU586      0.0001
     90  CD2       39.3510   -3.0010   -4.4780 C.3   586  LEU586      0.0001
     91  N         39.8590    3.7980   -7.4270 N.3   590  VAL590     -0.1245
     92  CA        39.1170    3.4460   -8.6360 C.3   590  VAL590      0.1561
     93  C         38.0090    4.4610   -8.9150 C.2   590  VAL590      0.2260
     94  O         37.7560    4.8120  -10.0730 O.2   590  VAL590     -0.2867
     95  CB        38.5630    2.0120   -8.5400 C.3   590  VAL590      0.0252
     96  CG1       37.8500    1.7890   -7.2370 C.3   590  VAL590      0.0019
     97  CG2       37.6010    1.7590   -9.6630 C.3   590  VAL590      0.0019
     98  N         39.7610    7.5940  -10.2300 N.3   593  GLY593     -0.1210
     99  CA        40.1490    7.3550  -11.6070 C.3   593  GLY593      0.1956
    100  C         38.9770    7.3740  -12.5700 C.2   593  GLY593      0.2611
    101  O         39.1230    7.7940  -13.7230 O.2   593  GLY593     -0.2717
    102  N         37.7990    6.9320  -12.1180 N.am  594  LEU594     -0.1979
    103  CA        36.6430    6.9490  -13.0060 C.3   594  LEU594      0.1596
    104  C         36.1340    8.3660  -13.2260 C.2   594  LEU594      0.2287
    105  O         35.7490    8.7270  -14.3480 O.2   594  LEU594     -0.2864
    106  CB        35.5230    6.0730  -12.4580 C.3   594  LEU594      0.0297
    107  CG        34.3610    6.0210  -13.4600 C.3   594  LEU594      0.0022
    108  CD1       33.8920    4.6130  -13.6220 C.3   594  LEU594      0.0001
    109  CD2       33.1840    6.9270  -13.0620 C.3   594  LEU594      0.0001
    110  N         38.3710   10.0900  -15.6320 N.3   597  ASP597     -0.1225
    111  CA        38.2780    9.5520  -16.9850 C.3   597  ASP597      0.1805
    112  C         37.0720   10.1250  -17.7210 C.2   597  ASP597      0.2597
    113  O         37.1360   10.3720  -18.9320 O.2   597  ASP597     -0.2718
    114  CB        38.2140    8.0260  -16.9490 C.3   597  ASP597      0.1424
    115  CG        38.9570    7.3880  -18.1060 C.2   597  ASP597      0.3668
    116  OD1       39.4970    8.1370  -18.9440 O.co2 597  ASP597     -0.2456
    117  OD2       39.0010    6.1420  -18.1850 O.co2 597  ASP597     -0.2456
    118  N         35.9640   10.3410  -17.0070 N.am  598  TYR598     -0.1976
    119  CA        34.8190   11.0170  -17.6090 C.3   598  TYR598      0.1639
    120  C         35.1850   12.4270  -18.0390 C.2   598  TYR598      0.2290
    121  O         34.8450   12.8550  -19.1490 O.2   598  TYR598     -0.2864
    122  CB        33.6510   11.0460  -16.6310 C.3   598  TYR598      0.0560
    123  CG        32.6430    9.9740  -16.9120 C.ar  598  TYR598     -0.0198
    124  CD1       32.9240    8.6540  -16.6190 C.ar  598  TYR598     -0.0009
    125  CD2       31.4190   10.2750  -17.4890 C.ar  598  TYR598     -0.0009
    126  CE1       32.0130    7.6590  -16.8750 C.ar  598  TYR598      0.0417
    127  CE2       30.4960    9.2860  -17.7510 C.ar  598  TYR598      0.0417
    128  CZ        30.8000    7.9750  -17.4410 C.ar  598  TYR598      0.1957
    129  OH        29.8890    6.9740  -17.6920 O.3   598  TYR598     -0.2866
    130  N         37.0510   12.2280  -21.6400 N.3   601  PHE601     -0.1241
    131  CA        36.3880   11.8540  -22.8870 C.3   601  PHE601      0.1605
    132  C         35.4110   12.9240  -23.3460 C.2   601  PHE601      0.2264
    133  O         35.1200   13.0100  -24.5410 O.2   601  PHE601     -0.2867
    134  CB        35.7060   10.5040  -22.7410 C.3   601  PHE601      0.0534
    135  CG        36.6430    9.3610  -22.9710 C.ar  601  PHE601     -0.0203
    136  CD1       36.9000    8.9130  -24.2540 C.ar  601  PHE601     -0.0042
    137  CD2       37.2900    8.7550  -21.9080 C.ar  601  PHE601     -0.0042
    138  CE1       37.7700    7.8710  -24.4750 C.ar  601  PHE601     -0.0003
    139  CE2       38.1650    7.7110  -22.1170 C.ar  601  PHE601     -0.0003
    140  CZ        38.4040    7.2640  -23.4030 C.ar  601  PHE601     -0.0000
    141  N         29.0930    8.6700  -24.7080 N.3   631  ILE631     -0.1245
    142  CA        29.3980    8.5190  -23.2910 C.3   631  ILE631      0.1561
    143  C         28.2640    7.7980  -22.5740 C.2   631  ILE631      0.2260
    144  O         28.5090    6.9770  -21.6830 O.2   631  ILE631     -0.2867
    145  CB        29.7120    9.8810  -22.6470 C.3   631  ILE631      0.0252
    146  CG1       31.1290   10.3200  -23.0220 C.3   631  ILE631      0.0019
    147  CG2       29.5900    9.7940  -21.1360 C.3   631  ILE631      0.0019
    148  CD1       31.6700   11.4570  -22.1720 C.3   631  ILE631      0.0001
    149  N         28.7370    4.2600  -23.5630 N.3   634  ALA634     -0.1245
    150  CA        29.8350    3.7640  -22.7480 C.3   634  ALA634      0.1562
    151  C         29.4180    3.6380  -21.2850 C.2   634  ALA634      0.2260
    152  O         29.8180    2.6910  -20.5950 O.2   634  ALA634     -0.2867
    153  CB        31.0500    4.6810  -22.8980 C.3   634  ALA634      0.0290
    154  N         29.3810   -0.0270  -18.8580 N.3   638  LEU638     -0.1245
    155  CA        29.9390   -0.1840  -17.5180 C.3   638  LEU638      0.1561
    156  C         28.8400   -0.5230  -16.5170 C.2   638  LEU638      0.2260
    157  O         28.9760   -1.4580  -15.7180 O.2   638  LEU638     -0.2867
    158  CB        30.6800    1.0860  -17.1010 C.3   638  LEU638      0.0270
    159  CG        31.8580    1.5690  -17.9550 C.3   638  LEU638      0.0019
    160  CD1       32.4700    2.8520  -17.3890 C.3   638  LEU638      0.0001
    161  CD2       32.9230    0.4870  -18.1120 C.3   638  LEU638      0.0001
    162  N         27.7640   -4.2190  -16.7580 N.3   641  VAL641     -0.1231
    163  CA        28.6900   -5.2040  -16.2060 C.3   641  VAL641      0.1692
    164  C         28.7510   -5.0830  -14.6860 C.2   641  VAL641      0.2591
    165  O         28.7060   -6.0890  -13.9650 O.2   641  VAL641     -0.2718
    166  CB        30.0890   -5.0610  -16.8390 C.3   641  VAL641      0.0266
    167  CG1       30.9690   -6.2280  -16.4350 C.3   641  VAL641      0.0020
    168  CG2       30.0150   -4.9850  -18.3380 C.3   641  VAL641      0.0020
    169  N         28.8490   -3.8500  -14.1760 N.am  642  ALA642     -0.1980
    170  CA        28.8480   -3.6450  -12.7300 C.3   642  ALA642      0.1597
    171  C         27.5400   -4.1210  -12.1100 C.2   642  ALA642      0.2287
    172  O         27.5320   -4.6550  -10.9920 O.2   642  ALA642     -0.2864
    173  CB        29.0870   -2.1720  -12.4010 C.3   642  ALA642      0.0319
    174  N         31.7580   -2.8130   -3.6410 N.3   656  LEU656     -0.1245
    175  CA        32.5090   -2.2080   -4.7350 C.3   656  LEU656      0.1561
    176  C         31.6480   -2.0510   -5.9850 C.2   656  LEU656      0.2260
    177  O         31.6780   -0.9950   -6.6260 O.2   656  LEU656     -0.2867
    178  CB        33.7640   -3.0300   -5.0410 C.3   656  LEU656      0.0270
    179  CG        34.4590   -2.7470   -6.3810 C.3   656  LEU656      0.0019
    180  CD1       35.3640   -1.5190   -6.3210 C.3   656  LEU656      0.0001
    181  CD2       35.2490   -3.9590   -6.8500 C.3   656  LEU656      0.0001
    182  N         30.6210    1.8420   -7.9410 N.3   660  LEU660     -0.1245
    183  CA        30.7640    2.2540   -9.3360 C.3   660  LEU660      0.1561
    184  C         29.4330    2.6110   -9.9730 C.2   660  LEU660      0.2260
    185  O         29.3490    3.5700  -10.7440 O.2   660  LEU660     -0.2867
    186  CB        31.4800    1.1640  -10.1440 C.3   660  LEU660      0.0270
    187  CG        32.7210    0.6540   -9.4290 C.3   660  LEU660      0.0019
    188  CD1       33.2890   -0.5570  -10.1470 C.3   660  LEU660      0.0001
    189  CD2       33.7650    1.7780   -9.2660 C.3   660  LEU660      0.0001
    190  N         29.2490    6.1520  -11.5930 N.3   664  LEU664     -0.1245
    191  CA        29.1560    6.4060  -13.0280 C.3   664  LEU664      0.1561
    192  C         27.7960    6.9780  -13.4100 C.2   664  LEU664      0.2260
    193  O         27.6870    7.6810  -14.4190 O.2   664  LEU664     -0.2867
    194  CB        29.4520    5.1370  -13.8250 C.3   664  LEU664      0.0270
    195  CG        28.3280    4.2150  -14.2870 C.3   664  LEU664      0.0019
    196  CD1       28.9190    3.2490  -15.2480 C.3   664  LEU664      0.0001
    197  CD2       27.6960    3.4630  -13.1500 C.3   664  LEU664      0.0001
@<TRIPOS>BOND
     1    59    58    2
     2    58    57    1
     3    57    56    1
     4    57    60    1
     5    47    46    2
     6    60    61    1
     7    46    45    1
     8    62    61   ar
     9    62    64   ar
    10    61    63   ar
    11    64    66   ar
    12    39    38    2
    13    45    48    1
    14    45    44    1
    15    63    65   ar
    16    48    49    1
    17    38    44   am
    18    38    37    1
    19   141   142    1
    20   133   132    2
    21    66    65   ar
    22   138   136   ar
    23   138   140   ar
    24   136   135   ar
    25    37    36    1
    26    37    40    1
    27    49    50   ar
    28    49    51   ar
    29   149   150    1
    30   140   139   ar
    31   132   131    1
    32    50    52   ar
    33   142   145    1
    34   142   143    1
    35    51    53   ar
    36   146   145    1
    37   146   148    1
    38   135   134    1
    39   135   137   ar
    40    42    41   ar
    41   153   150    1
    42   131   134    1
    43   131   130    1
    44   150   151    1
    45   145   147    1
    46    40    41    1
    47   143   144    2
    48    31    30    2
    49    52    54   ar
    50    41    43   ar
    51   139   137   ar
    52    53    54   ar
    53    54    55    1
    54    30    29    1
    55   151   152    2
    56    27    26    2
    57    29    28    1
    58    29    32    1
    59    26    28   am
    60    26    25    1
    61    34    32    1
    62    24    25    1
    63    19    18    2
    64   121   120    2
    65    32    33    1
    66   116   115   ar
    67   113   112    2
    68   154   155    1
    69    18    17    1
    70   168   166    1
    71   117   115   ar
    72   161   159    1
    73   115   114    1
    74   120   119    1
    75   159   160    1
    76   159   158    1
    77    33    35    1
    78   127   125   ar
    79   127   128   ar
    80   112   118   am
    81   112   111    1
    82   129   128    1
    83   119   118    1
    84   119   122    1
    85    22    20    1
    86   155   158    1
    87   155   156    1
    88   125   123   ar
    89   128   126   ar
    90   111   114    1
    91   111   110    1
    92    11    10    2
    93    17    20    1
    94    17    16    1
    95   123   122    1
    96   123   124   ar
    97   126   124   ar
    98   166   167    1
    99   166   163    1
   100   162   163    1
   101    74    72    1
   102   156   157    2
   103    20    21    1
   104   163   164    1
   105    10    16   am
   106    10     9    1
   107    72    71    1
   108    67    68    1
   109    71    68    1
   110    71    73    1
   111   196   195    1
   112    78    77    2
   113    21    23    1
   114     8     9    1
   115     9    12    1
   116   164   169   am
   117   164   165    2
   118    68    69    1
   119   193   192    2
   120   105   104    2
   121   195   194    1
   122   195   197    1
   123   169   170    1
   124    77    76    1
   125     4     3    2
   126   194   191    1
   127    69    70    2
   128    12    13    1
   129   101   100    2
   130   108   107    1
   131   107   109    1
   132   107   106    1
   133   192   191    1
   134   104   103    1
   135     3     2    1
   136   191   190    1
   137   103   106    1
   138   103   102    1
   139    76    75    1
   140    76    79    1
   141    15    13    1
   142   170   173    1
   143   170   171    1
   144    13    14    1
   145    81    79    1
   146   100   102   am
   147   100    99    1
   148   171   172    2
   149    79    80    1
   150    99    98    1
   151     2     1    1
   152     2     5    1
   153     6     5    1
   154    80    82    1
   155   185   184    2
   156     5     7    1
   157   188   187    1
   158   186   187    1
   159   186   183    1
   160    94    93    2
   161   184   183    1
   162    97    95    1
   163   187   189    1
   164   183   182    1
   165    93    92    1
   166    92    95    1
   167    92    91    1
   168    95    96    1
   169   181   179    1
   170   177   176    2
   171   179   180    1
   172   179   178    1
   173   176   175    1
   174    89    88    1
   175   178   175    1
   176    86    85    2
   177   175   174    1
   178    88    90    1
   179    88    87    1
   180    85    84    1
   181    87    84    1
   182    84    83    1
