@<TRIPOS>MOLECULE
tmp/6ajiA03.pdb
 140 125 0 0 0
SMALL
GASTEIGER

@<TRIPOS>ATOM
      1  N         46.8430  -18.3030  -19.1800 N.3    34  GLY34      -0.1210
      2  CA        46.1560  -17.6330  -18.0910 C.3    34  GLY34       0.1956
      3  C         44.9800  -18.3880  -17.5070 C.2    34  GLY34       0.2611
      4  O         44.5530  -18.0650  -16.3960 O.2    34  GLY34      -0.2717
      5  N         44.4430  -19.3830  -18.2220 N.am   35  ILE35      -0.1979
      6  CA        43.2870  -20.1160  -17.7040 C.3    35  ILE35       0.1595
      7  C         43.6180  -20.7950  -16.3810 C.2    35  ILE35       0.2287
      8  O         42.7350  -20.9840  -15.5340 O.2    35  ILE35      -0.2864
      9  CB        42.7720  -21.1330  -18.7450 C.3    35  ILE35       0.0276
     10  CG1       42.2460  -20.4130  -19.9820 C.3    35  ILE35       0.0022
     11  CG2       41.6450  -21.9770  -18.1750 C.3    35  ILE35       0.0022
     12  CD1       41.0740  -19.4990  -19.7000 C.3    35  ILE35       0.0001
     13  N         44.9980  -19.5840  -13.8890 N.3    37  LEU37      -0.1231
     14  CA        45.2560  -18.5970  -12.8400 C.3    37  LEU37       0.1693
     15  C         44.5340  -18.9470  -11.5450 C.2    37  LEU37       0.2592
     16  O         45.0640  -18.7140  -10.4510 O.2    37  LEU37      -0.2718
     17  CB        44.8520  -17.1970  -13.3080 C.3    37  LEU37       0.0284
     18  CG        45.0990  -16.0940  -12.2710 C.3    37  LEU37       0.0019
     19  CD1       46.5590  -16.0800  -11.9060 C.3    37  LEU37       0.0001
     20  CD2       44.6680  -14.7160  -12.7410 C.3    37  LEU37       0.0001
     21  N         43.3320  -19.5180  -11.6480 N.am   38  GLY38      -0.1957
     22  CA        42.5310  -19.7760  -10.4640 C.3    38  GLY38       0.1869
     23  C         43.1400  -20.7840   -9.5150 C.2    38  GLY38       0.2309
     24  O         42.7880  -20.7940   -8.3310 O.2    38  GLY38      -0.2863
     25  N         34.1200  -17.3130   -8.2570 N.3   186  GLY186     -0.1225
     26  CA        33.7620  -18.0970   -9.4260 C.3   186  GLY186      0.1811
     27  C         32.3160  -17.9380   -9.8520 C.2   186  GLY186      0.2280
     28  O         32.0060  -18.0260  -11.0450 O.2   186  GLY186     -0.2866
     29  N         31.7780  -14.6860  -11.6850 N.3   189  GLN189     -0.1231
     30  CA        32.3160  -14.7570  -13.0400 C.3   189  GLN189      0.1698
     31  C         31.2900  -15.3090  -14.0160 C.2   189  GLN189      0.2592
     32  O         31.1070  -14.7560  -15.1050 O.2   189  GLN189     -0.2718
     33  CB        33.5760  -15.6130  -13.0740 C.3   189  GLN189      0.0381
     34  CG        34.1940  -15.7180  -14.4630 C.3   189  GLN189      0.0905
     35  CD        34.7590  -14.3900  -14.9530 C.2   189  GLN189      0.2608
     36  OE1       35.1830  -13.5480  -14.1530 O.2   189  GLN189     -0.2717
     37  NE2       34.7770  -14.2020  -16.2710 N.am  189  GLN189     -0.0878
     38  N         30.6120  -16.4020  -13.6480 N.am  190  LYS190     -0.1980
     39  CA        29.6720  -17.0250  -14.5690 C.3   190  LYS190      0.1596
     40  C         28.4130  -16.1830  -14.7390 C.2   190  LYS190      0.2287
     41  O         27.7710  -16.2530  -15.7950 O.2   190  LYS190     -0.2864
     42  CB        29.3250  -18.4450  -14.1030 C.3   190  LYS190      0.0298
     43  CG        28.1740  -19.0850  -14.8750 C.3   190  LYS190      0.0038
     44  CD        28.2740  -20.5980  -14.9580 C.3   190  LYS190      0.0206
     45  CE        26.8890  -21.2470  -14.8810 C.3   190  LYS190      0.1093
     46  NZ        26.8750  -22.4680  -14.0230 N.3   190  LYS190     -0.1314
     47  N         29.3340  -13.7020  -17.3840 N.3   193  GLU193     -0.1245
     48  CA        29.2910  -14.3540  -18.6900 C.3   193  GLU193      0.1567
     49  C         27.8680  -14.4560  -19.2240 C.2   193  GLU193      0.2260
     50  O         27.6290  -14.2610  -20.4220 O.2   193  GLU193     -0.2867
     51  CB        29.9190  -15.7460  -18.6080 C.3   193  GLU193      0.0388
     52  CG        31.4200  -15.7660  -18.3790 C.3   193  GLU193      0.1160
     53  CD        31.9680  -17.1800  -18.2560 C.2   193  GLU193      0.3649
     54  OE1       31.2850  -18.1290  -18.7080 O.co2 193  GLU193     -0.2457
     55  OE2       33.0770  -17.3390  -17.6980 O.co2 193  GLU193     -0.2457
     56  N         27.3590  -10.1330  -20.7600 N.3   197  ILE197     -0.1245
     57  CA        27.8140  -10.2390  -22.1510 C.3   197  ILE197      0.1561
     58  C         26.6790   -9.9910  -23.1510 C.2   197  ILE197      0.2260
     59  O         26.8250   -9.1090  -24.0080 O.2   197  ILE197     -0.2867
     60  CB        28.5270  -11.5700  -22.3830 C.3   197  ILE197      0.0252
     61  CG1       29.8480  -11.6300  -21.6130 C.3   197  ILE197      0.0019
     62  CG2       28.7820  -11.7910  -23.8680 C.3   197  ILE197      0.0019
     63  CD1       30.5940  -12.9390  -21.7970 C.3   197  ILE197      0.0001
     64  N         25.6500   -6.3450  -22.9380 N.3   200  VAL200     -0.1231
     65  CA        26.6690   -5.4970  -23.5590 C.3   200  VAL200      0.1692
     66  C         26.4910   -5.4850  -25.0700 C.2   200  VAL200      0.2591
     67  O         26.4710   -4.4210  -25.7060 O.2   200  VAL200     -0.2718
     68  CB        28.0790   -5.9720  -23.1610 C.3   200  VAL200      0.0266
     69  CG1       29.1160   -5.4490  -24.1450 C.3   200  VAL200      0.0020
     70  CG2       28.4140   -5.5350  -21.7270 C.3   200  VAL200      0.0020
     71  N         26.3290   -6.6750  -25.6610 N.am  201  ALA201     -0.1980
     72  CA        26.1160   -6.7900  -27.1010 C.3   201  ALA201      0.1597
     73  C         24.9610   -5.9130  -27.5640 C.2   201  ALA201      0.2287
     74  O         25.0790   -5.1870  -28.5570 O.2   201  ALA201     -0.2864
     75  CB        25.8630   -8.2510  -27.4790 C.3   201  ALA201      0.0319
     76  N         33.6280   -5.8050  -28.7400 N.3   218  ALA218     -0.1231
     77  CA        33.4720   -7.0310  -27.9690 C.3   218  ALA218      0.1694
     78  C         34.6820   -7.9430  -28.1370 C.2   218  ALA218      0.2591
     79  O         35.1630   -8.5320  -27.1620 O.2   218  ALA218     -0.2718
     80  CB        32.1880   -7.7480  -28.3790 C.3   218  ALA218      0.0304
     81  N         35.2010   -8.0610  -29.3610 N.am  219  ILE219     -0.1980
     82  CA        36.3670   -8.9130  -29.5840 C.3   219  ILE219      0.1595
     83  C         37.5990   -8.3300  -28.8980 C.2   219  ILE219      0.2287
     84  O         38.4590   -9.0700  -28.4000 O.2   219  ILE219     -0.2864
     85  CB        36.6030   -9.1230  -31.0910 C.3   219  ILE219      0.0276
     86  CG1       35.3750   -9.7660  -31.7380 C.3   219  ILE219      0.0022
     87  CG2       37.8200   -9.9970  -31.3190 C.3   219  ILE219      0.0022
     88  CD1       35.4570   -9.8600  -33.2540 C.3   219  ILE219      0.0001
     89  N         37.2870   -9.2060  -25.2070 N.3   222  GLY222     -0.1225
     90  CA        37.6700  -10.5960  -25.0290 C.3   222  GLY222      0.1811
     91  C         39.1730  -10.8040  -25.0790 C.2   222  GLY222      0.2280
     92  O         39.7350  -11.5400  -24.2640 O.2   222  GLY222     -0.2866
     93  N         40.9410   -9.5490  -21.8290 N.3   225  ILE225     -0.1245
     94  CA        40.7670  -10.4970  -20.7340 C.3   225  ILE225      0.1561
     95  C         41.7310  -11.6660  -20.8960 C.2   225  ILE225      0.2260
     96  O         42.4450  -12.0390  -19.9580 O.2   225  ILE225     -0.2867
     97  CB        39.3020  -10.9700  -20.6660 C.3   225  ILE225      0.0252
     98  CG1       38.4150   -9.8730  -20.0700 C.3   225  ILE225      0.0019
     99  CG2       39.1800  -12.2550  -19.8610 C.3   225  ILE225      0.0019
    100  CD1       36.9340  -10.1420  -20.1950 C.3   225  ILE225      0.0001
    101  N         44.8200  -12.2010  -18.2640 N.3   229  LEU229     -0.1245
    102  CA        44.9090  -13.4250  -17.4700 C.3   229  LEU229      0.1561
    103  C         46.2710  -14.0870  -17.6270 C.2   229  LEU229      0.2260
    104  O         46.8040  -14.6600  -16.6700 O.2   229  LEU229     -0.2867
    105  CB        43.8020  -14.4020  -17.8640 C.3   229  LEU229      0.0270
    106  CG        42.4290  -14.0030  -17.3280 C.3   229  LEU229      0.0019
    107  CD1       41.3980  -15.1090  -17.5570 C.3   229  LEU229      0.0001
    108  CD2       42.5390  -13.6160  -15.8510 C.3   229  LEU229      0.0001
    109  N         41.2000  -11.7740  -10.0720 N.3   246  GLN246     -0.1245
    110  CA        40.4880  -12.2890  -11.2420 C.3   246  GLN246      0.1566
    111  C         39.2280  -11.5030  -11.5960 C.2   246  GLN246      0.2260
    112  O         39.0320  -11.2020  -12.7890 O.2   246  GLN246     -0.2867
    113  CB        40.1590  -13.7690  -11.0320 C.3   246  GLN246      0.0367
    114  CG        41.2600  -14.5550  -10.3620 C.3   246  GLN246      0.0905
    115  CD        40.7480  -15.8530   -9.7820 C.2   246  GLN246      0.2608
    116  OE1       40.2660  -15.8900   -8.6490 O.2   246  GLN246     -0.2717
    117  NE2       40.8300  -16.9270  -10.5670 N.am  246  GLN246     -0.0878
    118  N         38.1440   -9.1800  -15.2490 N.3   250  THR250     -0.1218
    119  CA        36.9090   -9.3030  -16.0310 C.3   250  THR250      0.1862
    120  C         36.2020   -7.9590  -16.1820 C.2   250  THR250      0.2287
    121  O         35.6740   -7.6450  -17.2580 O.2   250  THR250     -0.2866
    122  CB        35.9590  -10.3280  -15.3970 C.3   250  THR250      0.1770
    123  OG1       36.5350  -11.6390  -15.4740 O.3   250  THR250     -0.2211
    124  CG2       34.6450  -10.3400  -16.1390 C.3   250  THR250      0.0375
    125  N         35.6230   -6.5660  -19.8330 N.3   254  LEU254     -0.1245
    126  CA        34.2840   -6.3490  -20.3720 C.3   254  LEU254      0.1561
    127  C         33.8970   -4.8790  -20.3360 C.2   254  LEU254      0.2260
    128  O         33.0470   -4.4420  -21.1200 O.2   254  LEU254     -0.2867
    129  CB        33.2520   -7.1770  -19.6040 C.3   254  LEU254      0.0270
    130  CG        33.3720   -8.6920  -19.7630 C.3   254  LEU254      0.0019
    131  CD1       32.3090   -9.3900  -18.9410 C.3   254  LEU254      0.0001
    132  CD2       33.2820   -9.1050  -21.2230 C.3   254  LEU254      0.0001
    133  N         36.1770   -2.7820  -23.7790 N.3   258  ILE258     -0.1245
    134  CA        35.0660   -2.6560  -24.7150 C.3   258  ILE258      0.1561
    135  C         34.6980   -1.1890  -24.9140 C.2   258  ILE258      0.2260
    136  O         34.3790   -0.7610  -26.0320 O.2   258  ILE258     -0.2867
    137  CB        33.8740   -3.4970  -24.2260 C.3   258  ILE258      0.0252
    138  CG1       34.2550   -4.9820  -24.2570 C.3   258  ILE258      0.0019
    139  CG2       32.6160   -3.1970  -25.0490 C.3   258  ILE258      0.0019
    140  CD1       33.0740   -5.9420  -24.2280 C.3   258  ILE258      0.0001
@<TRIPOS>BOND
     1    88    86    1
     2    86    85    1
     3    87    85    1
     4    85    82    1
     5    82    81    1
     6    82    83    1
     7    81    78   am
     8    83    84    2
     9    76    77    1
    10    74    73    2
    11    80    77    1
    12    78    77    1
    13    78    79    2
    14    73    72    1
    15    75    72    1
    16    72    71    1
    17   136   135    2
    18    67    66    2
    19    71    66   am
    20    89    90    1
    21    91    90    1
    22    91    92    2
    23    66    65    1
    24   139   137    1
    25   135   134    1
    26   134   137    1
    27   134   133    1
    28   138   140    1
    29   138   137    1
    30    69    68    1
    31    59    58    2
    32    62    60    1
    33    65    68    1
    34    65    64    1
    35    68    70    1
    36    58    57    1
    37    60    57    1
    38    60    61    1
    39    57    56    1
    40    93    94    1
    41    63    61    1
    42   132   130    1
    43   128   127    2
    44    95    94    1
    45    95    96    2
    46    94    97    1
    47    97    98    1
    48    97    99    1
    49    50    49    2
    50   126   127    1
    51   126   125    1
    52   126   129    1
    53   100    98    1
    54    10    12    1
    55    10     9    1
    56   130   129    1
    57   130   131    1
    58    49    48    1
    59     1     2    1
    60     9    11    1
    61     9     6    1
    62    54    53   ar
    63    48    51    1
    64    48    47    1
    65    51    52    1
    66    52    53    1
    67   101   102    1
    68    53    55   ar
    69     5     6    1
    70     5     3   am
    71     2     3    1
    72   105   102    1
    73   105   106    1
    74     6     7    1
    75   103   102    1
    76   103   104    2
    77   107   106    1
    78     3     4    2
    79   106   108    1
    80   121   120    2
    81     7     8    2
    82    37    35   am
    83   120   119    1
    84   124   122    1
    85   119   122    1
    86   119   118    1
    87    41    40    2
    88   123   122    1
    89    32    31    2
    90    44    45    1
    91    44    43    1
    92    35    34    1
    93    35    36    2
    94    45    46    1
    95    43    42    1
    96    40    39    1
    97    39    42    1
    98    39    38    1
    99    34    33    1
   100    31    38   am
   101    31    30    1
   102    13    14    1
   103    17    14    1
   104    17    18    1
   105    33    30    1
   106    30    29    1
   107    14    15    1
   108   112   111    2
   109    20    18    1
   110    18    19    1
   111    21    15   am
   112    21    22    1
   113   111   110    1
   114    15    16    2
   115   110   113    1
   116   110   109    1
   117    28    27    2
   118   113   114    1
   119   117   115   am
   120    22    23    1
   121   114   115    1
   122    27    26    1
   123   115   116    2
   124    23    24    2
   125    26    25    1
