@<TRIPOS>MOLECULE
tmp/6ajjA07.pdb
 194 181 0 0 0
SMALL
GASTEIGER

@<TRIPOS>ATOM
      1  N          7.8550   -3.8950   13.6620 N.3   254  ILE254     -0.1245
      2  CA         7.2470   -2.6480   14.1180 C.3   254  ILE254      0.1561
      3  C          6.7140   -2.7760   15.5410 C.2   254  ILE254      0.2260
      4  O          7.0140   -1.9490   16.4040 O.2   254  ILE254     -0.2867
      5  CB         6.1370   -2.2230   13.1320 C.3   254  ILE254      0.0252
      6  CG1        6.7510   -1.6290   11.8670 C.3   254  ILE254      0.0019
      7  CG2        5.1870   -1.2280   13.7670 C.3   254  ILE254      0.0019
      8  CD1        5.7260   -1.3710   10.7900 C.3   254  ILE254      0.0001
      9  N          7.7890   -0.8080   19.4200 N.3   258  ILE258     -0.1245
     10  CA         6.8130    0.1200   19.9900 C.3   258  ILE258      0.1561
     11  C          6.3960   -0.3330   21.3810 C.2   258  ILE258      0.2260
     12  O          6.2840    0.4800   22.3100 O.2   258  ILE258     -0.2867
     13  CB         5.5910    0.2700   19.0650 C.3   258  ILE258      0.0252
     14  CG1        6.0160    0.6980   17.6730 C.3   258  ILE258      0.0019
     15  CG2        4.6720    1.3500   19.5900 C.3   258  ILE258      0.0019
     16  CD1        6.8800    1.8980   17.7110 C.3   258  ILE258      0.0001
     17  N          9.1750    0.3870   23.7900 N.3   261  ASP261     -0.1225
     18  CA         9.3620    1.8140   24.0250 C.3   261  ASP261      0.1805
     19  C          8.2810    2.3710   24.9380 C.2   261  ASP261      0.2597
     20  O          8.5700    3.1670   25.8430 O.2   261  ASP261     -0.2718
     21  CB         9.3850    2.5570   22.6940 C.3   261  ASP261      0.1424
     22  CG        10.6730    2.3430   21.9350 C.2   261  ASP261      0.3668
     23  OD1       11.6820    1.9670   22.5740 O.co2 261  ASP261     -0.2456
     24  OD2       10.6790    2.5580   20.7040 O.co2 261  ASP261     -0.2456
     25  N          7.0250    1.9710   24.7040 N.am  262  TYR262     -0.1976
     26  CA         5.9440    2.3070   25.6270 C.3   262  TYR262      0.1639
     27  C          6.2850    1.8550   27.0380 C.2   262  TYR262      0.2290
     28  O          6.2170    2.6410   27.9970 O.2   262  TYR262     -0.2864
     29  CB         4.6420    1.6510   25.1670 C.3   262  TYR262      0.0560
     30  CG         4.0170    2.2590   23.9230 C.ar  262  TYR262     -0.0198
     31  CD1        4.3930    3.5160   23.4680 C.ar  262  TYR262     -0.0009
     32  CD2        3.0490    1.5630   23.2000 C.ar  262  TYR262     -0.0009
     33  CE1        3.8160    4.0610   22.3340 C.ar  262  TYR262      0.0417
     34  CE2        2.4700    2.1010   22.0710 C.ar  262  TYR262      0.0417
     35  CZ         2.8540    3.3510   21.6420 C.ar  262  TYR262      0.1957
     36  OH         2.2800    3.8920   20.5180 O.3   262  TYR262     -0.2866
     37  N          9.0610    3.9680   28.6820 N.3   265  PHE265     -0.1241
     38  CA         8.6390    5.3080   29.0700 C.3   265  PHE265      0.1605
     39  C          7.8020    5.2700   30.3380 C.2   265  PHE265      0.2264
     40  O          7.9960    6.0900   31.2500 O.2   265  PHE265     -0.2867
     41  CB         7.8580    5.9660   27.9370 C.3   265  PHE265      0.0534
     42  CG         7.4560    7.3820   28.2230 C.ar  265  PHE265     -0.0203
     43  CD1        8.4050    8.3220   28.5970 C.ar  265  PHE265     -0.0042
     44  CD2        6.1310    7.7810   28.1100 C.ar  265  PHE265     -0.0042
     45  CE1        8.0440    9.6370   28.8580 C.ar  265  PHE265     -0.0003
     46  CE2        5.7670    9.0990   28.3670 C.ar  265  PHE265     -0.0003
     47  CZ         6.7240   10.0260   28.7440 C.ar  265  PHE265     -0.0000
     48  N          0.1050    9.9210   26.9170 N.3   294  THR294     -0.1203
     49  CA         0.9100   10.1390   25.7230 C.3   294  THR294      0.1994
     50  C          1.2320    8.8390   25.0080 C.2   294  THR294      0.2617
     51  O          1.3660    8.8320   23.7810 O.2   294  THR294     -0.2717
     52  CB         2.1920   10.8700   26.0620 C.3   294  THR294      0.1784
     53  OG1        3.0890   10.7780   24.9480 O.3   294  THR294     -0.2211
     54  CG2        2.8290   10.2830   27.2670 C.3   294  THR294      0.0376
     55  N          1.3390    7.7330   25.7450 N.am  295  VAL295     -0.1979
     56  CA         1.4730    6.4300   25.1020 C.3   295  VAL295      0.1595
     57  C          0.2450    6.1400   24.2480 C.2   295  VAL295      0.2287
     58  O          0.3480    5.7310   23.0850 O.2   295  VAL295     -0.2864
     59  CB         1.7080    5.3400   26.1640 C.3   295  VAL295      0.0276
     60  CG1        1.1990    3.9830   25.6810 C.3   295  VAL295      0.0022
     61  CG2        3.2010    5.2720   26.5380 C.3   295  VAL295      0.0022
     62  N          0.1850    8.3140   21.2060 N.3   298  SER298     -0.1217
     63  CA         1.0930    7.7430   20.2180 C.3   298  SER298      0.1889
     64  C          0.4240    6.6000   19.4700 C.2   298  SER298      0.2288
     65  O          0.5840    6.4600   18.2490 O.2   298  SER298     -0.2866
     66  CB         2.3680    7.2540   20.9050 C.3   298  SER298      0.2089
     67  OG         2.9180    6.1360   20.2290 O.3   298  SER298     -0.2183
     68  N         -0.2020    6.3660   15.4540 N.3   302  ILE302     -0.1245
     69  CA         0.2700    5.3000   14.5760 C.3   302  ILE302      0.1561
     70  C         -0.9010    4.6590   13.8440 C.2   302  ILE302      0.2260
     71  O         -0.8190    4.3780   12.6410 O.2   302  ILE302     -0.2867
     72  CB         1.0940    4.2650   15.3650 C.3   302  ILE302      0.0252
     73  CG1        2.3020    4.9370   15.9960 C.3   302  ILE302      0.0019
     74  CG2        1.5720    3.1600   14.4550 C.3   302  ILE302      0.0019
     75  CD1        2.9510    4.0930   17.0390 C.3   302  ILE302      0.0001
     76  N         -1.9530    6.9350   11.0870 N.3   305  SER305     -0.1202
     77  CA        -1.0470    6.8710    9.9540 C.3   305  SER305      0.2020
     78  C         -1.1820    5.5710    9.1790 C.2   305  SER305      0.2619
     79  O         -0.8570    5.5400    7.9890 O.2   305  SER305     -0.2717
     80  CB         0.3940    7.0460   10.4270 C.3   305  SER305      0.2103
     81  OG         0.5000    8.1900   11.2570 O.3   305  SER305     -0.2182
     82  N         -1.6570    4.5070    9.8230 N.am  306  SER306     -0.1951
     83  CA        -1.7590    3.2220    9.1450 C.3   306  SER306      0.1924
     84  C         -3.0770    3.0390    8.3930 C.2   306  SER306      0.2314
     85  O         -3.0730    2.4870    7.2910 O.2   306  SER306     -0.2863
     86  CB        -1.5680    2.0860   10.1510 C.3   306  SER306      0.2116
     87  OG        -0.4320    2.3130   10.9740 O.3   306  SER306     -0.2180
     88  N         -0.1670   -3.9390   12.1230 N.3   324  ILE324     -0.1245
     89  CA         0.3050   -2.7290   12.7920 C.3   324  ILE324      0.1561
     90  C         -0.6940   -2.2850   13.8570 C.2   324  ILE324      0.2260
     91  O         -0.3230   -1.9990   15.0080 O.2   324  ILE324     -0.2867
     92  CB         0.5450   -1.6120   11.7620 C.3   324  ILE324      0.0252
     93  CG1        1.6370   -2.0050   10.7730 C.3   324  ILE324      0.0019
     94  CG2        0.8860   -0.3010   12.4590 C.3   324  ILE324      0.0019
     95  CD1        1.9700   -0.9020    9.8020 C.3   324  ILE324      0.0001
     96  N          3.3130    5.4910    4.5240 N.3   610  ALA610     -0.1231
     97  CA         2.5590    5.5170    5.7800 C.3   610  ALA610      0.1694
     98  C          3.4770    5.2910    6.9800 C.2   610  ALA610      0.2591
     99  O          3.3680    5.9850    7.9970 O.2   610  ALA610     -0.2718
    100  CB         1.4340    4.4800    5.7630 C.3   610  ALA610      0.0304
    101  N          4.4240    4.3590    6.8580 N.am  611  VAL611     -0.1980
    102  CA         5.2690    3.9940    7.9920 C.3   611  VAL611      0.1595
    103  C          6.2010    5.1430    8.3760 C.2   611  VAL611      0.2287
    104  O          6.3680    5.4660    9.5620 O.2   611  VAL611     -0.2864
    105  CB         6.0450    2.7090    7.6570 C.3   611  VAL611      0.0276
    106  CG1        7.3590    2.6400    8.4170 C.3   611  VAL611      0.0022
    107  CG2        5.1680    1.4950    7.9390 C.3   611  VAL611      0.0022
    108  N          4.2380    8.0670    9.8210 N.3   614  GLY614     -0.1210
    109  CA         3.8220    7.7620   11.1770 C.3   614  GLY614      0.1956
    110  C          4.9470    7.9230   12.1760 C.2   614  GLY614      0.2611
    111  O          4.7720    8.5400   13.2320 O.2   614  GLY614     -0.2717
    112  N          6.1180    7.3610   11.8600 N.am  615  LEU615     -0.1979
    113  CA         7.2490    7.4590   12.7790 C.3   615  LEU615      0.1596
    114  C          7.6540    8.9130   12.9970 C.2   615  LEU615      0.2287
    115  O          7.9270    9.3360   14.1320 O.2   615  LEU615     -0.2864
    116  CB         8.4250    6.6350   12.2490 C.3   615  LEU615      0.0297
    117  CG         9.7080    6.7140   13.0830 C.3   615  LEU615      0.0022
    118  CD1       10.4570    5.4020   12.9830 C.3   615  LEU615      0.0001
    119  CD2       10.6320    7.8700   12.6670 C.3   615  LEU615      0.0001
    120  N          5.1060   10.5900   15.2480 N.3   618  ASP618     -0.1225
    121  CA         5.2200   10.1050   16.6200 C.3   618  ASP618      0.1805
    122  C          6.3770   10.7850   17.3490 C.2   618  ASP618      0.2597
    123  O          6.1940   11.3930   18.4160 O.2   618  ASP618     -0.2718
    124  CB         5.3980    8.5840   16.6120 C.3   618  ASP618      0.1424
    125  CG         4.5170    7.8770   17.6350 C.2   618  ASP618      0.3668
    126  OD1        3.4830    8.4480   18.0510 O.co2 618  ASP618     -0.2456
    127  OD2        4.8570    6.7370   18.0160 O.co2 618  ASP618     -0.2456
    128  N          7.5810   10.7010   16.7770 N.am  619  TYR619     -0.1976
    129  CA         8.7520   11.2280   17.4670 C.3   619  TYR619      0.1639
    130  C          8.6640   12.7340   17.6000 C.2   619  TYR619      0.2290
    131  O          9.0630   13.3070   18.6280 O.2   619  TYR619     -0.2864
    132  CB        10.0320   10.8240   16.7320 C.3   619  TYR619      0.0560
    133  CG        10.5120    9.4690   17.1640 C.ar  619  TYR619     -0.0198
    134  CD1       11.1950    9.3040   18.3610 C.ar  619  TYR619     -0.0009
    135  CD2       10.2370    8.3440   16.4080 C.ar  619  TYR619     -0.0009
    136  CE1       11.6150    8.0590   18.7790 C.ar  619  TYR619      0.0417
    137  CE2       10.6560    7.0970   16.8170 C.ar  619  TYR619      0.0417
    138  CZ        11.3400    6.9600   18.0040 C.ar  619  TYR619      0.1957
    139  OH        11.7510    5.7130   18.4050 O.3   619  TYR619     -0.2866
    140  N          5.8950   14.6630   17.7760 N.3   621  VAL621     -0.1231
    141  CA         4.9610   15.0820   18.8150 C.3   621  VAL621      0.1692
    142  C          5.5520   14.8190   20.1930 C.2   621  VAL621      0.2592
    143  O          5.4250   15.6550   21.0990 O.2   621  VAL621     -0.2718
    144  CB         3.5720   14.4260   18.6610 C.3   621  VAL621      0.0266
    145  CG1        2.9700   14.7350   17.2940 C.3   621  VAL621      0.0020
    146  CG2        3.6200   12.9240   18.9120 C.3   621  VAL621      0.0020
    147  N          6.2380   13.6850   20.3770 N.am  622  PHE622     -0.1976
    148  CA         6.7950   13.4360   21.7020 C.3   622  PHE622      0.1639
    149  C          7.8420   14.4880   22.0630 C.2   622  PHE622      0.2290
    150  O          7.8980   14.9500   23.2100 O.2   622  PHE622     -0.2864
    151  CB         7.3920   12.0330   21.8190 C.3   622  PHE622      0.0560
    152  CG         7.9510   11.7540   23.1890 C.ar  622  PHE622     -0.0200
    153  CD1        7.1050   11.5120   24.2620 C.ar  622  PHE622     -0.0042
    154  CD2        9.3140   11.8050   23.4220 C.ar  622  PHE622     -0.0042
    155  CE1        7.6170   11.2880   25.5360 C.ar  622  PHE622     -0.0003
    156  CE2        9.8270   11.5820   24.6950 C.ar  622  PHE622     -0.0003
    157  CZ         8.9810   11.3200   25.7460 C.ar  622  PHE622     -0.0000
    158  N         15.5660    9.7350   26.6840 N.3   651  LEU651     -0.1231
    159  CA        14.4190    8.8800   26.3900 C.3   651  LEU651      0.1693
    160  C         14.2960    8.6120   24.8960 C.2   651  LEU651      0.2591
    161  O         14.1610    7.4590   24.4660 O.2   651  LEU651     -0.2718
    162  CB        13.1400    9.5250   26.9160 C.3   651  LEU651      0.0284
    163  CG        12.9440    9.5170   28.4300 C.3   651  LEU651      0.0019
    164  CD1       12.1280   10.7300   28.8890 C.3   651  LEU651      0.0001
    165  CD2       12.2780    8.2190   28.8490 C.3   651  LEU651      0.0001
    166  N         14.3130    9.6750   24.0890 N.am  652  ILE652     -0.1980
    167  CA        14.2170    9.5080   22.6430 C.3   652  ILE652      0.1595
    168  C         15.3900    8.6910   22.1150 C.2   652  ILE652      0.2287
    169  O         15.2120    7.8310   21.2450 O.2   652  ILE652     -0.2864
    170  CB        14.1230   10.8770   21.9470 C.3   652  ILE652      0.0276
    171  CG1       12.7610   11.5130   22.2210 C.3   652  ILE652      0.0022
    172  CG2       14.3690   10.7320   20.4390 C.3   652  ILE652      0.0022
    173  CD1       12.4930   12.7540   21.4000 C.3   652  ILE652      0.0001
    174  N         14.7110    4.9660   23.0430 N.3   655  ALA655     -0.1245
    175  CA        13.6320    4.3820   22.2550 C.3   655  ALA655      0.1562
    176  C         14.0530    4.1820   20.8050 C.2   655  ALA655      0.2260
    177  O         13.7910    3.1220   20.2020 O.2   655  ALA655     -0.2867
    178  CB        12.3900    5.2670   22.3390 C.3   655  ALA655      0.0290
    179  N         14.3570    0.4920   18.7140 N.3   659  LEU659     -0.1245
    180  CA        13.7540    0.2000   17.4140 C.3   659  LEU659      0.1561
    181  C         14.8160   -0.0260   16.3450 C.2   659  LEU659      0.2260
    182  O         14.6370   -0.8770   15.4660 O.2   659  LEU659     -0.2867
    183  CB        12.8050    1.3170   16.9860 C.3   659  LEU659      0.0270
    184  CG        12.2110    1.1670   15.5820 C.3   659  LEU659      0.0019
    185  CD1       10.9420    0.3300   15.6320 C.3   659  LEU659      0.0001
    186  CD2       11.9080    2.5260   14.9860 C.3   659  LEU659      0.0001
    187  N         12.8600    2.2210    7.5750 N.3   681  LEU681     -0.1245
    188  CA        12.6960    2.4430    9.0100 C.3   681  LEU681      0.1561
    189  C         13.9660    3.0020    9.6350 C.2   681  LEU681      0.2260
    190  O         13.9310    4.0100   10.3500 O.2   681  LEU681     -0.2867
    191  CB        12.3250    1.1340    9.6990 C.3   681  LEU681      0.0270
    192  CG        10.8640    0.8920   10.0290 C.3   681  LEU681      0.0019
    193  CD1       10.7690   -0.1930   11.0820 C.3   681  LEU681      0.0001
    194  CD2       10.2280    2.1770   10.5080 C.3   681  LEU681      0.0001
@<TRIPOS>BOND
     1    96    97    1
     2   100    97    1
     3    97    98    1
     4   101    98   am
     5   101   102    1
     6    98    99    2
     7    85    84    2
     8   187   188    1
     9   105   107    1
    10   105   102    1
    11   105   106    1
    12    79    78    2
    13   102   103    1
    14   103   104    2
    15    84    83    1
    16   188   189    1
    17   188   191    1
    18    83    82    1
    19    83    86    1
    20    78    82   am
    21    78    77    1
    22   189   190    2
    23   191   192    1
    24    95    93    1
    25   108   109    1
    26    77    80    1
    27    77    76    1
    28   192   194    1
    29   192   193    1
    30    86    87    1
    31    80    81    1
    32    93    92    1
    33     8     6    1
    34   109   110    1
    35    92    94    1
    36    92    89    1
    37   112   110   am
    38   112   113    1
    39     6     5    1
    40    88    89    1
    41   110   111    2
    42   116   113    1
    43   116   117    1
    44    71    70    2
    45   119   117    1
    46   113   114    1
    47    89    90    1
    48   118   117    1
    49   114   115    2
    50     5     7    1
    51     5     2    1
    52     1     2    1
    53    70    69    1
    54    90    91    2
    55     2     3    1
    56    74    72    1
    57    69    72    1
    58    69    68    1
    59   186   184    1
    60   120   121    1
    61    72    73    1
    62   182   181    2
    63     3     4    2
    64   184   185    1
    65   184   183    1
    66    73    75    1
    67   181   180    1
    68   135   137   ar
    69   135   133   ar
    70   124   121    1
    71   124   125    1
    72   121   122    1
    73   132   133    1
    74   132   129    1
    75   128   122   am
    76   128   129    1
    77   137   138   ar
    78   183   180    1
    79   133   134   ar
    80   145   144    1
    81   122   123    2
    82   180   179    1
    83   129   130    1
    84   130   131    2
    85   125   127   ar
    86   125   126   ar
    87    14    16    1
    88    14    13    1
    89   140   141    1
    90   138   139    1
    91   138   136   ar
    92    65    64    2
    93   134   136   ar
    94   144   141    1
    95   144   146    1
    96   141   142    1
    97    13    15    1
    98    13    10    1
    99     9    10    1
   100    64    63    1
   101    10    11    1
   102   142   147   am
   103   142   143    2
   104   177   176    2
   105    63    66    1
   106    63    62    1
   107    67    66    1
   108   147   148    1
   109   172   170    1
   110    36    35    1
   111    24    22   ar
   112   176   175    1
   113   169   168    2
   114    11    12    2
   115   173   171    1
   116    35    34   ar
   117    35    33   ar
   118   148   151    1
   119   148   149    1
   120   151   152    1
   121    22    23   ar
   122    22    21    1
   123   170   171    1
   124   170   167    1
   125   149   150    2
   126    34    32   ar
   127   168   167    1
   128   175   178    1
   129   175   174    1
   130    33    31   ar
   131   167   166    1
   132    21    18    1
   133    58    57    2
   134   152   154   ar
   135   152   153   ar
   136    32    30   ar
   137   154   156   ar
   138    31    30   ar
   139    51    50    2
   140    17    18    1
   141    30    29    1
   142    18    19    1
   143   166   160   am
   144    57    56    1
   145   153   155   ar
   146   161   160    2
   147   156   157   ar
   148    25    19   am
   149    25    26    1
   150   160   159    1
   151    19    20    2
   152    53    52    1
   153    50    49    1
   154    50    55   am
   155    56    55    1
   156    56    59    1
   157    29    26    1
   158   155   157   ar
   159    26    27    1
   160    60    59    1
   161    49    52    1
   162    49    48    1
   163    52    54    1
   164    59    61    1
   165   159   158    1
   166   159   162    1
   167   162   163    1
   168    27    28    2
   169    41    42    1
   170    41    38    1
   171    44    42   ar
   172    44    46   ar
   173    42    43   ar
   174    46    47   ar
   175   163   165    1
   176   163   164    1
   177    43    45   ar
   178    37    38    1
   179    47    45   ar
   180    38    39    1
   181    39    40    2
