@<TRIPOS>MOLECULE
tmp/6ajmB00.pdb
 112 107 0 0 0
SMALL
GASTEIGER

@<TRIPOS>ATOM
      1  N         33.6510   13.5070   19.0390 N.3    22  CYS22      -0.1235
      2  CA        32.3290   13.1660   19.5370 C.3    22  CYS22       0.1677
      3  C         31.2350   14.0410   18.9510 C.2    22  CYS22       0.2270
      4  O         30.0520   13.7690   19.1800 O.2    22  CYS22      -0.2867
      5  CB        32.3070   13.2620   21.0660 C.3    22  CYS22       0.0956
      6  SG        32.2880   14.9460   21.7010 S.3    22  CYS22      -0.0801
      7  N         31.2330   17.4640   19.4800 N.3    24  GLU24      -0.1245
      8  CA        31.2600   18.6920   20.2610 C.3    24  GLU24       0.1567
      9  C         32.7000   19.0860   20.5640 C.2    24  GLU24       0.2260
     10  O         33.4520   18.2990   21.1460 O.2    24  GLU24      -0.2867
     11  CB        30.4770   18.5080   21.5550 C.3    24  GLU24       0.0388
     12  CG        29.7690   19.7550   22.0140 C.3    24  GLU24       0.1160
     13  CD        28.6810   19.4440   23.0070 C.2    24  GLU24       0.3649
     14  OE1       28.1070   18.3380   22.9030 O.co2  24  GLU24      -0.2457
     15  OE2       28.4120   20.2930   23.8870 O.co2  24  GLU24      -0.2457
     16  N         33.9460   18.8470   24.4300 N.3    27  LEU27      -0.1245
     17  CA        34.2700   17.5350   24.9760 C.3    27  LEU27       0.1561
     18  C         35.5210   16.9440   24.3270 C.2    27  LEU27       0.2260
     19  O         36.3450   16.3120   25.0040 O.2    27  LEU27      -0.2867
     20  CB        33.0680   16.6080   24.8080 C.3    27  LEU27       0.0270
     21  CG        31.8530   17.0570   25.6180 C.3    27  LEU27       0.0019
     22  CD1       30.5170   16.6350   25.0220 C.3    27  LEU27       0.0001
     23  CD2       32.0030   16.4900   27.0060 C.3    27  LEU27       0.0001
     24  N         30.7490   12.9450   29.7690 N.3    81  LEU81      -0.1231
     25  CA        30.5690   11.6580   29.1100 C.3    81  LEU81       0.1693
     26  C         30.4360   11.9180   27.6150 C.2    81  LEU81       0.2592
     27  O         29.5990   12.7180   27.1830 O.2    81  LEU81      -0.2718
     28  CB        29.3450   10.9250   29.6660 C.3    81  LEU81       0.0284
     29  CG        28.5810    9.9950   28.7110 C.3    81  LEU81       0.0019
     30  CD1       29.3640    8.7690   28.3920 C.3    81  LEU81       0.0001
     31  CD2       27.2280    9.6110   29.2490 C.3    81  LEU81       0.0001
     32  N         31.2720   11.2580   26.8230 N.am   82  ALA82      -0.1966
     33  CA        31.3150   11.5590   25.4000 C.3    82  ALA82       0.1728
     34  C         31.6490   10.2960   24.6200 C.2    82  ALA82       0.2616
     35  O         32.4090    9.4350   25.0840 O.2    82  ALA82      -0.2715
     36  CB        32.3290   12.6630   25.0870 C.3    82  ALA82       0.0334
     37  N         31.0680   10.1880   23.4290 N.am   83  ILE83      -0.1977
     38  CA        31.2070    8.9910   22.6130 C.3    83  ILE83       0.1596
     39  C         31.4850    9.4130   21.1780 C.2    83  ILE83       0.2287
     40  O         30.9130   10.3890   20.6850 O.2    83  ILE83      -0.2864
     41  CB        29.9600    8.0990   22.7610 C.3    83  ILE83       0.0276
     42  CG1       30.0900    7.3160   24.0620 C.3    83  ILE83       0.0022
     43  CG2       29.8130    7.1550   21.6200 C.3    83  ILE83       0.0022
     44  CD1       29.1110    6.2170   24.2270 C.3    83  ILE83       0.0001
     45  N         29.9960    5.6600   17.0820 N.3    87  LEU87      -0.1231
     46  CA        29.2630    4.8070   18.0080 C.3    87  LEU87       0.1693
     47  C         27.9140    5.3810   18.4260 C.2    87  LEU87       0.2592
     48  O         27.2330    4.7720   19.2590 O.2    87  LEU87      -0.2718
     49  CB        30.1060    4.5250   19.2480 C.3    87  LEU87       0.0284
     50  CG        31.4480    3.8240   19.0460 C.3    87  LEU87       0.0019
     51  CD1       32.0400    3.4380   20.3880 C.3    87  LEU87       0.0001
     52  CD2       31.3040    2.6020   18.1670 C.3    87  LEU87       0.0001
     53  N         27.5000    6.5160   17.8580 N.am   88  GLN88      -0.1966
     54  CA        26.3360    7.2100   18.3840 C.3    88  GLN88       0.1733
     55  C         25.0380    6.5670   17.9090 C.2    88  GLN88       0.2616
     56  O         25.0170    5.7750   16.9720 O.2    88  GLN88      -0.2715
     57  CB        26.3690    8.6780   17.9910 C.3    88  GLN88       0.0408
     58  CG        27.5080    9.4220   18.6160 C.3    88  GLN88       0.0908
     59  CD        27.2660   10.9070   18.6550 C.2    88  GLN88       0.2608
     60  OE1       26.1840   11.3920   18.2960 O.2    88  GLN88      -0.2717
     61  NE2       28.2740   11.6460   19.0980 N.am   88  GLN88      -0.0878
     62  N         23.9460    6.9050   18.5900 N.am   89  GLY89      -0.1955
     63  CA        22.6440    6.3940   18.2380 C.3    89  GLY89       0.1869
     64  C         22.4630    4.9140   18.4510 C.2    89  GLY89       0.2309
     65  O         21.3670    4.4060   18.2220 O.2    89  GLY89      -0.2863
     66  N         23.2150    3.2610   21.4930 N.3    91  GLY91      -0.1210
     67  CA        23.0520    2.8410   22.8740 C.3    91  GLY91       0.1956
     68  C         24.3350    2.6000   23.6350 C.2    91  GLY91       0.2612
     69  O         24.3010    1.9720   24.6990 O.2    91  GLY91      -0.2717
     70  N         25.4680    3.0610   23.1140 N.am   92  TRP92      -0.1962
     71  CA        26.7230    2.9760   23.8460 C.3    92  TRP92       0.1771
     72  C         26.7880    3.9420   25.0190 C.2    92  TRP92       0.2620
     73  O         27.5020    3.6760   25.9940 O.2    92  TRP92      -0.2715
     74  CB        27.8780    3.2510   22.9060 C.3    92  TRP92       0.0590
     75  CG        28.2960    2.0390   22.2440 C.ar   92  TRP92       0.0006
     76  CD1       28.0380    1.6710   20.9620 C.ar   92  TRP92       0.0946
     77  CD2       29.0300    0.9710   22.8360 C.ar   92  TRP92       0.0152
     78  NE1       28.5900    0.4440   20.7120 N.ar   92  TRP92      -0.2442
     79  CE2       29.2030   -0.0100   21.8500 C.ar   92  TRP92       0.0810
     80  CE3       29.5810    0.7630   24.1030 C.ar   92  TRP92       0.0012
     81  CZ2       29.8920   -1.1890   22.0890 C.ar   92  TRP92       0.0191
     82  CZ3       30.2720   -0.4030   24.3360 C.ar   92  TRP92       0.0001
     83  CH2       30.4110   -1.3690   23.3370 C.ar   92  TRP92       0.0015
     84  N         26.1150    5.0890   24.9230 N.am   93  GLY93      -0.1940
     85  CA        26.1040    6.0190   26.0430 C.3    93  GLY93       0.2014
     86  C         25.4390    5.4280   27.2710 C.2    93  GLY93       0.2638
     87  O         25.9850    5.4860   28.3820 O.2    93  GLY93      -0.2714
     88  N         24.2500    4.8480   27.0840 N.am   94  ALA94      -0.1977
     89  CA        23.6050    4.1080   28.1550 C.3    94  ALA94       0.1597
     90  C         24.5580    3.0920   28.7820 C.2    94  ALA94       0.2287
     91  O         24.5740    2.9210   29.9980 O.2    94  ALA94      -0.2864
     92  CB        22.3460    3.4180   27.6130 C.3    94  ALA94       0.0319
     93  N         19.7660   18.0590   24.4420 N.3   124  LYS124     -0.1245
     94  CA        20.0470   16.6950   24.0040 C.3   124  LYS124      0.1561
     95  C         20.5130   15.8310   25.1740 C.2   124  LYS124      0.2260
     96  O         19.9290   14.7750   25.4550 O.2   124  LYS124     -0.2867
     97  CB        21.0930   16.7240   22.8830 C.3   124  LYS124      0.0271
     98  CG        21.5390   15.3610   22.3320 C.3   124  LYS124      0.0035
     99  CD        20.6390   14.8450   21.2160 C.3   124  LYS124      0.0206
    100  CE        20.7760   15.6720   19.9630 C.3   124  LYS124      0.1093
    101  NZ        19.9440   15.1340   18.8510 N.3   124  LYS124     -0.1314
    102  N         18.4970   12.7670   27.1000 N.3   128  PHE128     -0.1241
    103  CA        19.2040   11.4960   27.2080 C.3   128  PHE128      0.1605
    104  C         19.2410   11.0010   28.6520 C.2   128  PHE128      0.2264
    105  O         18.8060    9.8810   28.9520 O.2   128  PHE128     -0.2867
    106  CB        20.6170   11.6600   26.6510 C.3   128  PHE128      0.0534
    107  CG        21.5480   10.5510   27.0190 C.ar  128  PHE128     -0.0203
    108  CD1       21.4330    9.3100   26.4210 C.ar  128  PHE128     -0.0042
    109  CD2       22.5570   10.7510   27.9470 C.ar  128  PHE128     -0.0042
    110  CE1       22.3020    8.2780   26.7420 C.ar  128  PHE128     -0.0003
    111  CE2       23.4280    9.7220   28.2760 C.ar  128  PHE128     -0.0003
    112  CZ        23.2950    8.4790   27.6630 C.ar  128  PHE128     -0.0000
@<TRIPOS>BOND
     1    56    55    2
     2    45    46    1
     3    53    54    1
     4    53    47   am
     5    55    54    1
     6    55    62   am
     7    57    54    1
     8    57    58    1
     9    46    47    1
    10    46    49    1
    11    52    50    1
    12    65    64    2
    13    63    64    1
    14    63    62    1
    15    60    59    2
    16    47    48    2
    17    58    59    1
    18    59    61   am
    19   101   100    1
    20     3     4    2
    21     3     2    1
    22     1     2    1
    23    50    49    1
    24    50    51    1
    25     7     8    1
    26     2     5    1
    27   100    99    1
    28     8     9    1
    29     8    11    1
    30     9    10    2
    31    40    39    2
    32    78    76   ar
    33    78    79   ar
    34    76    75   ar
    35     5     6    1
    36    39    38    1
    37    99    98    1
    38    66    67    1
    39    11    12    1
    40    43    41    1
    41    79    81   ar
    42    79    77   ar
    43    12    13    1
    44    81    83   ar
    45    75    77   ar
    46    75    74    1
    47    98    97    1
    48    38    41    1
    49    38    37    1
    50    41    42    1
    51    77    80   ar
    52    67    68    1
    53    97    94    1
    54    14    13   ar
    55    74    71    1
    56    13    15   ar
    57    70    68   am
    58    70    71    1
    59    83    82   ar
    60    37    34   am
    61    68    69    2
    62    71    72    1
    63    94    93    1
    64    94    95    1
    65    42    44    1
    66    80    82   ar
    67    18    17    1
    68    18    19    2
    69    16    17    1
    70    34    35    2
    71    34    33    1
    72    20    17    1
    73    20    21    1
    74    84    72   am
    75    84    85    1
    76    72    73    2
    77    22    21    1
    78    36    33    1
    79    95    96    2
    80    33    32    1
    81    21    23    1
    82    85    86    1
    83   108   110   ar
    84   108   107   ar
    85   106   107    1
    86   106   103    1
    87   110   112   ar
    88    32    26   am
    89   107   109   ar
    90    88    86   am
    91    88    89    1
    92   102   103    1
    93    27    26    2
    94   103   104    1
    95    86    87    2
    96    92    89    1
    97    26    25    1
    98   112   111   ar
    99   109   111   ar
   100    89    90    1
   101    30    29    1
   102   104   105    2
   103    29    31    1
   104    29    28    1
   105    90    91    2
   106    25    28    1
   107    25    24    1
