@<TRIPOS>MOLECULE
tmp/6ak3B02.pdb
 88 85 0 0 0
SMALL
GASTEIGER

@<TRIPOS>ATOM
      1  N         77.0600   42.1950  229.0600 N.3     4  VAL4       -0.1231
      2  CA        76.8180   40.7640  229.2360 C.3     4  VAL4        0.1692
      3  C         75.4200   40.4680  228.7010 C.2     4  VAL4        0.2593
      4  O         74.4230   40.6490  229.4020 O.2     4  VAL4       -0.2718
      5  CB        76.9660   40.3360  230.6980 C.3     4  VAL4        0.0266
      6  CG1       77.0560   38.8190  230.8000 C.3     4  VAL4        0.0020
      7  CG2       78.1800   41.0010  231.3220 C.3     4  VAL4        0.0020
      8  N         75.3430   40.0030  227.4550 N.am    5  SER5       -0.1938
      9  CA        74.0640   39.7120  226.8220 C.3     5  SER5        0.2055
     10  C         74.3060   38.8180  225.6170 C.2     5  SER5        0.2643
     11  O         75.2140   39.0810  224.8230 O.2     5  SER5       -0.2714
     12  CB        73.3540   41.0020  226.3950 C.3     5  SER5        0.2130
     13  OG        72.1630   40.7190  225.6800 O.3     5  SER5       -0.2179
     14  N         73.4940   37.7640  225.4830 N.am    6  VAL6       -0.1963
     15  CA        73.6200   36.8540  224.3460 C.3     6  VAL6        0.1727
     16  C         73.0750   37.4600  223.0640 C.2     6  VAL6        0.2616
     17  O         73.2060   36.8500  221.9950 O.2     6  VAL6       -0.2715
     18  CB        72.9120   35.5150  224.6460 C.3     6  VAL6        0.0290
     19  CG1       71.4200   35.6190  224.3640 C.3     6  VAL6        0.0023
     20  CG2       73.5450   34.3750  223.8570 C.3     6  VAL6        0.0023
     21  N         72.4780   38.6520  223.1350 N.am    7  ALA7       -0.1977
     22  CA        71.9430   39.2880  221.9360 C.3     7  ALA7        0.1597
     23  C         73.0430   39.6770  220.9590 C.2     7  ALA7        0.2287
     24  O         72.7970   39.7390  219.7500 O.2     7  ALA7       -0.2864
     25  CB        71.1190   40.5190  222.3140 C.3     7  ALA7        0.0319
     26  N         74.5760   36.2870  219.0180 N.3    10  ILE10      -0.1231
     27  CA        73.5580   35.7790  218.1010 C.3    10  ILE10       0.1692
     28  C         73.3930   36.7240  216.9170 C.2    10  ILE10       0.2592
     29  O         73.3360   36.2950  215.7590 O.2    10  ILE10      -0.2718
     30  CB        72.2250   35.5650  218.8400 C.3    10  ILE10       0.0266
     31  CG1       72.3780   34.4910  219.9180 C.3    10  ILE10       0.0019
     32  CG2       71.1250   35.1870  217.8570 C.3    10  ILE10       0.0020
     33  CD1       71.1220   34.2570  220.7260 C.3    10  ILE10       0.0001
     34  N         73.3200   38.0290  217.1920 N.am   11  THR11      -0.1953
     35  CA        73.1930   39.0040  216.1130 C.3    11  THR11       0.1897
     36  C         74.4180   38.9850  215.2080 C.2    11  THR11       0.2313
     37  O         74.2940   39.0620  213.9800 O.2    11  THR11      -0.2863
     38  CB        72.9760   40.4050  216.6880 C.3    11  THR11       0.1794
     39  OG1       71.8480   40.3920  217.5730 O.3    11  THR11      -0.2208
     40  CG2       72.7310   41.4140  215.5750 C.3    11  THR11       0.0378
     41  N         74.5130   35.8480  212.7990 N.3    14  LEU14      -0.1231
     42  CA        73.5690   35.8430  211.6860 C.3    14  LEU14       0.1693
     43  C         73.9650   36.8480  210.6100 C.2    14  LEU14       0.2592
     44  O         73.9020   36.5400  209.4140 O.2    14  LEU14      -0.2718
     45  CB        72.1570   36.1250  212.1970 C.3    14  LEU14       0.0284
     46  CG        71.6130   35.1050  213.2010 C.3    14  LEU14       0.0019
     47  CD1       70.2090   35.4790  213.6500 C.3    14  LEU14       0.0001
     48  CD2       71.6440   33.7000  212.6130 C.3    14  LEU14       0.0001
     49  N         74.3760   38.0550  211.0110 N.am   15  THR15      -0.1953
     50  CA        74.7790   39.0540  210.0260 C.3    15  THR15       0.1897
     51  C         76.0750   38.6530  209.3330 C.2    15  THR15       0.2313
     52  O         76.2560   38.9220  208.1390 O.2    15  THR15      -0.2863
     53  CB        74.9300   40.4240  210.6870 C.3    15  THR15       0.1794
     54  OG1       75.9510   40.3660  211.6900 O.3    15  THR15      -0.2208
     55  CG2       73.6210   40.8540  211.3290 C.3    15  THR15       0.0378
     56  N         75.1520   35.8560  206.6220 N.3    18  VAL18      -0.1245
     57  CA        74.4530   36.3290  205.4280 C.3    18  VAL18       0.1561
     58  C         75.4040   37.1010  204.5210 C.2    18  VAL18       0.2260
     59  O         75.4450   36.8810  203.3040 O.2    18  VAL18      -0.2867
     60  CB        73.2340   37.1830  205.8220 C.3    18  VAL18       0.0252
     61  CG1       72.5980   37.8020  204.5880 C.3    18  VAL18       0.0019
     62  CG2       72.2170   36.3420  206.5740 C.3    18  VAL18       0.0019
     63  N         76.3910   31.2850  227.6720 N.3    60  TYR60      -0.1241
     64  CA        75.3500   32.2090  228.1130 C.3    60  TYR60       0.1605
     65  C         74.1050   31.4580  228.5690 C.2    60  TYR60       0.2264
     66  O         73.5890   31.6980  229.6670 O.2    60  TYR60      -0.2867
     67  CB        75.0040   33.1890  226.9920 C.3    60  TYR60       0.0534
     68  CG        75.8220   34.4630  226.9920 C.ar   60  TYR60      -0.0201
     69  CD1       75.4410   35.5530  227.7650 C.ar   60  TYR60      -0.0009
     70  CD2       76.9650   34.5820  226.2130 C.ar   60  TYR60      -0.0009
     71  CE1       76.1800   36.7230  227.7670 C.ar   60  TYR60       0.0417
     72  CE2       77.7100   35.7480  226.2070 C.ar   60  TYR60       0.0417
     73  CZ        77.3130   36.8150  226.9860 C.ar   60  TYR60       0.1957
     74  OH        78.0510   37.9780  226.9840 O.3    60  TYR60      -0.2866
     75  N         80.9130   43.3840  202.6200 N.3   255  TRP255     -0.1241
     76  CA        80.2290   44.5640  202.1030 C.3   255  TRP255      0.1605
     77  C         81.2150   45.5900  201.5590 C.2   255  TRP255      0.2264
     78  O         80.9850   46.1710  200.4920 O.2   255  TRP255     -0.2867
     79  CB        79.3640   45.1880  203.1990 C.3   255  TRP255      0.0550
     80  CG        78.3880   44.2330  203.8130 C.ar  255  TRP255      0.0003
     81  CD1       78.5700   43.4880  204.9420 C.ar  255  TRP255      0.0946
     82  CD2       77.0760   43.9170  203.3320 C.ar  255  TRP255      0.0152
     83  NE1       77.4520   42.7290  205.1940 N.ar  255  TRP255     -0.2442
     84  CE2       76.5200   42.9750  204.2200 C.ar  255  TRP255      0.0810
     85  CE3       76.3160   44.3420  202.2370 C.ar  255  TRP255      0.0012
     86  CZ2       75.2410   42.4490  204.0470 C.ar  255  TRP255      0.0191
     87  CZ3       75.0460   43.8170  202.0660 C.ar  255  TRP255      0.0001
     88  CH2       74.5220   42.8810  202.9670 C.ar  255  TRP255      0.0015
@<TRIPOS>BOND
     1    78    77    2
     2    77    76    1
     3    87    85   ar
     4    87    88   ar
     5    76    75    1
     6    76    79    1
     7    85    82   ar
     8    88    86   ar
     9    79    80    1
    10    59    58    2
    11    82    80   ar
    12    82    84   ar
    13    80    81   ar
    14    86    84   ar
    15    84    83   ar
    16    58    57    1
    17    61    60    1
    18    81    83   ar
    19    57    60    1
    20    57    56    1
    21    60    62    1
    22    52    51    2
    23    51    50    1
    24    44    43    2
    25    50    53    1
    26    50    49    1
    27    43    49   am
    28    43    42    1
    29    53    55    1
    30    53    54    1
    31    42    45    1
    32    42    41    1
    33    45    46    1
    34    48    46    1
    35    46    47    1
    36    37    36    2
    37    36    35    1
    38    40    38    1
    39    29    28    2
    40    35    38    1
    41    35    34    1
    42    38    39    1
    43    28    34   am
    44    28    27    1
    45    32    30    1
    46    27    30    1
    47    27    26    1
    48    30    31    1
    49    24    23    2
    50    31    33    1
    51    23    22    1
    52    22    25    1
    53    22    21    1
    54    17    16    2
    55    16    21   am
    56    16    15    1
    57    20    18    1
    58    15    18    1
    59    15    14    1
    60    19    18    1
    61    11    10    2
    62    14    10   am
    63    10     9    1
    64    13    12    1
    65    72    70   ar
    66    72    73   ar
    67    70    68   ar
    68    12     9    1
    69     9     8    1
    70    74    73    1
    71    73    71   ar
    72    68    67    1
    73    68    69   ar
    74    67    64    1
    75     8     3   am
    76    63    64    1
    77    69    71   ar
    78    64    65    1
    79    65    66    2
    80     3     2    1
    81     3     4    2
    82     1     2    1
    83     2     5    1
    84     5     6    1
    85     5     7    1
