@<TRIPOS>MOLECULE
tmp/6ak3B01.pdb
 244 235 0 0 0
SMALL
GASTEIGER

@<TRIPOS>ATOM
      1  N         76.3160   38.0580  220.4280 N.3     9  PRO9       -0.2116
      2  CA        76.8540   36.9460  219.6230 C.3     9  PRO9        0.1372
      3  C         75.8510   36.3810  218.6320 C.2     9  PRO9        0.2244
      4  O         76.2300   36.0320  217.5060 O.2     9  PRO9       -0.2868
      5  CB        77.2590   35.9070  220.6800 C.3     9  PRO9        0.0268
      6  CG        76.4700   36.2550  221.8870 C.3     9  PRO9        0.0207
      7  CD        76.3550   37.7420  221.8680 C.3     9  PRO9        0.0892
      8  N         75.6110   38.8700  215.7970 N.3    12  MET12      -0.1230
      9  CA        76.8340   38.8980  215.0020 C.3    12  MET12       0.1702
     10  C         77.0050   37.6280  214.1750 C.2    12  MET12       0.2592
     11  O         77.5890   37.6750  213.0860 O.2    12  MET12      -0.2718
     12  CB        78.0410   39.1260  215.9130 C.3    12  MET12       0.0401
     13  CG        78.0810   40.5260  216.5170 C.3    12  MET12       0.0596
     14  SD        79.5410   40.8690  217.5230 S.3    12  MET12      -0.1393
     15  CE        79.2860   39.7400  218.8890 C.3    12  MET12       0.0692
     16  N         76.5050   36.4920  214.6640 N.am   13  LEU13      -0.1980
     17  CA        76.6160   35.2550  213.8970 C.3    13  LEU13       0.1596
     18  C         75.7150   35.2820  212.6670 C.2    13  LEU13       0.2287
     19  O         76.1000   34.7930  211.5980 O.2    13  LEU13      -0.2864
     20  CB        76.2820   34.0540  214.7820 C.3    13  LEU13       0.0297
     21  CG        76.2470   32.6790  214.1060 C.3    13  LEU13       0.0022
     22  CD1       77.5630   32.3820  213.4000 C.3    13  LEU13       0.0001
     23  CD2       75.9250   31.5900  215.1170 C.3    13  LEU13       0.0001
     24  N         86.2900   34.4000  206.9120 N.3    45  ASP45      -0.1239
     25  CA        85.5320   35.0790  207.9570 C.3    45  ASP45       0.1674
     26  C         84.3650   34.2360  208.4530 C.2    45  ASP45       0.2266
     27  O         84.0310   34.2810  209.6420 O.2    45  ASP45      -0.2867
     28  CB        85.0220   36.4260  207.4440 C.3    45  ASP45       0.1410
     29  CG        86.1440   37.3580  207.0380 C.2    45  ASP45       0.3668
     30  OD1       87.3210   37.0140  207.2720 O.co2  45  ASP45      -0.2456
     31  OD2       85.8490   38.4360  206.4810 O.co2  45  ASP45      -0.2456
     32  N         85.6460   31.3130  210.7730 N.3    48  GLY48      -0.1210
     33  CA        86.0180   31.8620  212.0670 C.3    48  GLY48       0.1956
     34  C         84.8240   32.2050  212.9350 C.2    48  GLY48       0.2611
     35  O         84.8880   32.0860  214.1610 O.2    48  GLY48      -0.2717
     36  N         83.7200   32.6300  212.3170 N.am   49  GLN49      -0.1979
     37  CA        82.5080   32.9290  213.0700 C.3    49  GLN49       0.1601
     38  C         81.7530   31.6640  213.4600 C.2    49  GLN49       0.2287
     39  O         81.1170   31.6290  214.5200 O.2    49  GLN49      -0.2864
     40  CB        81.6030   33.8560  212.2580 C.3    49  GLN49       0.0394
     41  CG        82.1950   35.2350  212.0110 C.3    49  GLN49       0.0908
     42  CD        81.5630   35.9370  210.8250 C.2    49  GLN49       0.2608
     43  OE1       80.6910   35.3850  210.1540 O.2    49  GLN49      -0.2717
     44  NE2       82.0040   37.1610  210.5580 N.am   49  GLN49      -0.0878
     45  N         83.5150   29.8600  216.5390 N.3    52  THR52      -0.1203
     46  CA        83.7040   30.6610  217.7410 C.3    52  THR52       0.1994
     47  C         82.4000   30.9990  218.4450 C.2    52  THR52       0.2618
     48  O         82.2910   30.8130  219.6630 O.2    52  THR52      -0.2717
     49  CB        84.4500   31.9550  217.3780 C.3    52  THR52       0.1784
     50  OG1       85.7220   31.6320  216.8030 O.3    52  THR52      -0.2211
     51  CG2       84.6640   32.8040  218.6010 C.3    52  THR52       0.0376
     52  N         81.4070   31.4860  217.7100 N.am   53  THR53      -0.1952
     53  CA        80.1600   31.9900  218.2760 C.3    53  THR53       0.1897
     54  C         79.3120   30.9160  218.9620 C.2    53  THR53       0.2313
     55  O         78.7600   31.1870  220.0360 O.2    53  THR53      -0.2863
     56  CB        79.3380   32.6850  217.1870 C.3    53  THR53       0.1794
     57  OG1       80.2090   33.4630  216.3560 O.3    53  THR53      -0.2208
     58  CG2       78.2980   33.6010  217.8170 C.3    53  THR53       0.0378
     59  N         80.1620   30.5170  222.6100 N.3    56  VAL56      -0.1245
     60  CA        79.7770   31.6330  223.4690 C.3    56  VAL56       0.1561
     61  C         78.3010   31.5420  223.8360 C.2    56  VAL56       0.2260
     62  O         77.9070   31.8390  224.9710 O.2    56  VAL56      -0.2867
     63  CB        80.1060   32.9710  222.7790 C.3    56  VAL56       0.0252
     64  CG1       79.7140   34.1420  223.6680 C.3    56  VAL56       0.0019
     65  CG2       81.5840   33.0320  222.4140 C.3    56  VAL56       0.0019
     66  N         76.3910   31.2850  227.6720 N.3    60  TYR60      -0.1241
     67  CA        75.3500   32.2090  228.1130 C.3    60  TYR60       0.1605
     68  C         74.1050   31.4580  228.5690 C.2    60  TYR60       0.2264
     69  O         73.5890   31.6980  229.6670 O.2    60  TYR60      -0.2867
     70  CB        75.0040   33.1890  226.9920 C.3    60  TYR60       0.0534
     71  CG        75.8220   34.4630  226.9920 C.ar   60  TYR60      -0.0201
     72  CD1       75.4410   35.5530  227.7650 C.ar   60  TYR60      -0.0009
     73  CD2       76.9650   34.5820  226.2130 C.ar   60  TYR60      -0.0009
     74  CE1       76.1800   36.7230  227.7670 C.ar   60  TYR60       0.0417
     75  CE2       77.7100   35.7480  226.2070 C.ar   60  TYR60       0.0417
     76  CZ        77.3130   36.8150  226.9860 C.ar   60  TYR60       0.1957
     77  OH        78.0510   37.9780  226.9840 O.3    60  TYR60      -0.2866
     78  N         89.7270   27.8230  221.8610 N.3    77  PHE77      -0.1241
     79  CA        88.9930   29.0520  221.5810 C.3    77  PHE77       0.1605
     80  C         89.9480   30.2140  221.3340 C.2    77  PHE77       0.2264
     81  O         89.7850   30.9690  220.3680 O.2    77  PHE77      -0.2867
     82  CB        88.0470   29.3670  222.7410 C.3    77  PHE77       0.0534
     83  CG        87.0650   30.4700  222.4520 C.ar   77  PHE77      -0.0203
     84  CD1       87.4160   31.7970  222.6390 C.ar   77  PHE77      -0.0042
     85  CD2       85.7830   30.1770  222.0180 C.ar   77  PHE77      -0.0042
     86  CE1       86.5140   32.8140  222.3810 C.ar   77  PHE77      -0.0003
     87  CE2       84.8750   31.1900  221.7610 C.ar   77  PHE77      -0.0003
     88  CZ        85.2420   32.5090  221.9460 C.ar   77  PHE77      -0.0000
     89  N         91.7280   29.8600  217.8820 N.3    80  THR80      -0.1203
     90  CA        90.8700   30.1900  216.7480 C.3    80  THR80       0.1994
     91  C         90.6620   31.6960  216.6380 C.2    80  THR80       0.2617
     92  O         90.6040   32.2450  215.5300 O.2    80  THR80      -0.2717
     93  CB        89.5300   29.4650  216.8800 C.3    80  THR80       0.1784
     94  OG1       89.7580   28.0540  216.9800 O.3    80  THR80      -0.2211
     95  CG2       88.6410   29.7440  215.6750 C.3    80  THR80       0.0376
     96  N         90.5530   32.3820  217.7780 N.am   81  MET81      -0.1979
     97  CA        90.4570   33.8380  217.7610 C.3    81  MET81       0.1605
     98  C         91.6960   34.4600  217.1340 C.2    81  MET81       0.2287
     99  O         91.5970   35.4210  216.3610 O.2    81  MET81      -0.2864
    100  CB        90.2550   34.3630  219.1820 C.3    81  MET81       0.0413
    101  CG        88.9220   33.9800  219.8040 C.3    81  MET81       0.0598
    102  SD        87.5330   34.8940  219.1110 S.3    81  MET81      -0.1393
    103  CE        87.7520   36.4800  219.9040 C.3    81  MET81       0.0692
    104  N         92.1050   33.4170  212.9210 N.3    84  PHE84      -0.1227
    105  CA        91.2120   34.1070  211.9990 C.3    84  PHE84       0.1736
    106  C         91.2540   35.6190  212.1660 C.2    84  PHE84       0.2596
    107  O         90.8890   36.3410  211.2320 O.2    84  PHE84      -0.2718
    108  CB        89.7880   33.5800  212.1730 C.3    84  PHE84       0.0547
    109  CG        89.6250   32.1470  211.7510 C.ar   84  PHE84      -0.0202
    110  CD1       89.9100   31.1140  212.6280 C.ar   84  PHE84      -0.0042
    111  CD2       89.1940   31.8330  210.4720 C.ar   84  PHE84      -0.0042
    112  CE1       89.7680   29.7950  212.2400 C.ar   84  PHE84      -0.0003
    113  CE2       89.0450   30.5160  210.0790 C.ar   84  PHE84      -0.0003
    114  CZ        89.3330   29.4960  210.9640 C.ar   84  PHE84      -0.0000
    115  N         91.6780   36.1120  213.3290 N.am   85  GLY85      -0.1957
    116  CA        91.8800   37.5440  213.4750 C.3    85  GLY85       0.1869
    117  C         93.0280   38.0480  212.6200 C.2    85  GLY85       0.2309
    118  O         92.8980   39.0480  211.9070 O.2    85  GLY85      -0.2863
    119  N         83.1180   38.3900  230.6760 N.3   148  PRO148     -0.2116
    120  CA        82.5460   37.8660  231.9170 C.3   148  PRO148      0.1372
    121  C         82.4470   36.3450  231.9560 C.2   148  PRO148      0.2244
    122  O         81.4140   35.8150  232.3600 O.2   148  PRO148     -0.2868
    123  CB        81.1510   38.4900  231.9280 C.3   148  PRO148      0.0268
    124  CG        80.8170   38.7120  230.4470 C.3   148  PRO148      0.0207
    125  CD        82.0820   38.5200  229.6400 C.3   148  PRO148      0.0892
    126  N         82.7250   34.2270  229.2870 N.3   150  THR150     -0.1203
    127  CA        82.0790   33.6710  228.1070 C.3   150  THR150      0.1994
    128  C         83.0140   33.5350  226.9130 C.2   150  THR150      0.2617
    129  O         82.5710   33.0950  225.8470 O.2   150  THR150     -0.2717
    130  CB        80.8690   34.5270  227.7170 C.3   150  THR150      0.1784
    131  OG1       81.2820   35.8870  227.5280 O.3   150  THR150     -0.2211
    132  CG2       79.8050   34.4690  228.8080 C.3   150  THR150      0.0376
    133  N         84.2870   33.8950  227.0560 N.am  151  TRP151     -0.1975
    134  CA        85.2250   33.8120  225.9450 C.3   151  TRP151      0.1640
    135  C         86.6410   33.7310  226.4940 C.2   151  TRP151      0.2290
    136  O         86.9190   34.1710  227.6130 O.2   151  TRP151     -0.2864
    137  CB        85.0760   35.0040  224.9900 C.3   151  TRP151      0.0576
    138  CG        85.3120   36.3470  225.6260 C.ar  151  TRP151      0.0006
    139  CD1       84.5620   36.9370  226.6040 C.ar  151  TRP151      0.0946
    140  CD2       86.3590   37.2760  225.3100 C.ar  151  TRP151      0.0152
    141  NE1       85.0830   38.1680  226.9230 N.ar  151  TRP151     -0.2442
    142  CE2       86.1840   38.4020  226.1410 C.ar  151  TRP151      0.0810
    143  CE3       87.4270   37.2640  224.4070 C.ar  151  TRP151      0.0012
    144  CZ2       87.0400   39.5030  226.0980 C.ar  151  TRP151      0.0191
    145  CZ3       88.2730   38.3600  224.3650 C.ar  151  TRP151      0.0001
    146  CH2       88.0750   39.4620  225.2060 C.ar  151  TRP151      0.0015
    147  N         90.8810   34.3580  225.4850 N.3   153  PHE153     -0.1241
    148  CA        91.7700   35.1250  224.6230 C.3   153  PHE153      0.1605
    149  C         93.1590   35.1460  225.2540 C.2   153  PHE153      0.2264
    150  O         93.4030   34.5250  226.2930 O.2   153  PHE153     -0.2867
    151  CB        91.2200   36.5360  224.3880 C.3   153  PHE153      0.0534
    152  CG        91.8460   37.2500  223.2200 C.ar  153  PHE153     -0.0203
    153  CD1       91.8760   36.6630  221.9650 C.ar  153  PHE153     -0.0042
    154  CD2       92.3950   38.5130  223.3760 C.ar  153  PHE153     -0.0042
    155  CE1       92.4510   37.3170  220.8910 C.ar  153  PHE153     -0.0003
    156  CE2       92.9680   39.1730  222.3040 C.ar  153  PHE153     -0.0003
    157  CZ        92.9960   38.5730  221.0590 C.ar  153  PHE153     -0.0000
    158  N        101.4420   39.8190  219.1520 N.3   166  PHE166     -0.1241
    159  CA       100.1650   39.8910  218.4500 C.3   166  PHE166      0.1605
    160  C         99.7810   41.3330  218.1440 C.2   166  PHE166      0.2264
    161  O         99.2720   41.6280  217.0560 O.2   166  PHE166     -0.2867
    162  CB        99.0720   39.2080  219.2750 C.3   166  PHE166      0.0534
    163  CG        97.6850   39.3900  218.7180 C.ar  166  PHE166     -0.0203
    164  CD1       97.1940   38.5270  217.7520 C.ar  166  PHE166     -0.0042
    165  CD2       96.8700   40.4200  219.1670 C.ar  166  PHE166     -0.0042
    166  CE1       95.9180   38.6930  217.2370 C.ar  166  PHE166     -0.0003
    167  CE2       95.5970   40.5910  218.6550 C.ar  166  PHE166     -0.0003
    168  CZ        95.1200   39.7260  217.6900 C.ar  166  PHE166     -0.0000
    169  N         89.7030   47.7360  214.6120 N.3   221  TRP221     -0.1241
    170  CA        90.8650   47.0750  215.1950 C.3   221  TRP221      0.1605
    171  C         91.6930   47.9500  216.1310 C.2   221  TRP221      0.2264
    172  O         92.4080   47.4040  216.9790 O.2   221  TRP221     -0.2867
    173  CB        91.7740   46.5360  214.0850 C.3   221  TRP221      0.0550
    174  CG        91.3740   45.1780  213.6060 C.ar  221  TRP221      0.0003
    175  CD1       90.6990   44.8780  212.4600 C.ar  221  TRP221      0.0946
    176  CD2       91.6190   43.9290  214.2670 C.ar  221  TRP221      0.0152
    177  NE1       90.5100   43.5200  212.3630 N.ar  221  TRP221     -0.2442
    178  CE2       91.0650   42.9150  213.4600 C.ar  221  TRP221      0.0810
    179  CE3       92.2540   43.5710  215.4610 C.ar  221  TRP221      0.0012
    180  CZ2       91.1270   41.5670  213.8070 C.ar  221  TRP221      0.0191
    181  CZ3       92.3140   42.2320  215.8040 C.ar  221  TRP221      0.0001
    182  CH2       91.7540   41.2460  214.9800 C.ar  221  TRP221      0.0015
    183  N         91.2430   47.5250  220.2290 N.3   224  LEU224     -0.1245
    184  CA        91.7190   46.2730  220.8100 C.3   224  LEU224      0.1561
    185  C         93.2420   46.2310  220.8740 C.2   224  LEU224      0.2260
    186  O         93.8200   45.8800  221.9100 O.2   224  LEU224     -0.2867
    187  CB        91.1840   45.0860  220.0100 C.3   224  LEU224      0.0270
    188  CG        91.7530   43.7270  220.4230 C.3   224  LEU224      0.0019
    189  CD1       91.2390   43.3210  221.7940 C.3   224  LEU224      0.0001
    190  CD2       91.4430   42.6620  219.3830 C.3   224  LEU224      0.0001
    191  N         85.9540   43.7910  226.4850 N.3   240  LEU240     -0.1245
    192  CA        84.9140   43.0500  225.7800 C.3   240  LEU240      0.1561
    193  C         84.3780   43.8470  224.5970 C.2   240  LEU240      0.2260
    194  O         84.1190   43.2830  223.5270 O.2   240  LEU240     -0.2867
    195  CB        83.7840   42.6830  226.7410 C.3   240  LEU240      0.0270
    196  CG        82.5680   41.9860  226.1270 C.3   240  LEU240      0.0019
    197  CD1       82.9730   40.6720  225.4770 C.3   240  LEU240      0.0001
    198  CD2       81.5010   41.7550  227.1830 C.3   240  LEU240      0.0001
    199  N         87.0480   43.5330  221.7040 N.3   243  VAL243     -0.1231
    200  CA        87.0510   42.2900  220.9410 C.3   243  VAL243      0.1692
    201  C         85.7880   42.1500  220.1010 C.2   243  VAL243      0.2591
    202  O         85.8020   41.4520  219.0800 O.2   243  VAL243     -0.2718
    203  CB        87.2300   41.0750  221.8730 C.3   243  VAL243      0.0266
    204  CG1       85.9330   40.7430  222.5950 C.3   243  VAL243      0.0020
    205  CG2       87.7360   39.8770  221.0870 C.3   243  VAL243      0.0020
    206  N         84.6940   42.8070  220.4950 N.am  244  ARG244     -0.1980
    207  CA        83.5010   42.8180  219.6600 C.3   244  ARG244      0.1597
    208  C         83.6380   43.7870  218.4920 C.2   244  ARG244      0.2287
    209  O         83.0680   43.5450  217.4220 O.2   244  ARG244     -0.2864
    210  CB        82.2700   43.1640  220.4990 C.3   244  ARG244      0.0334
    211  CG        81.7740   42.0150  221.3650 C.3   244  ARG244      0.0492
    212  CD        80.2620   42.0600  221.5270 C.3   244  ARG244      0.2205
    213  NE        79.8490   42.7370  222.7520 N.pl3 244  ARG244     -0.0865
    214  CZ        79.3380   42.1160  223.8110 C.cat 244  ARG244      0.5346
    215  NH1       79.1700   40.8000  223.7950 N.pl3 244  ARG244      0.1354
    216  NH2       78.9870   42.8120  224.8840 N.pl3 244  ARG244      0.1354
    217  N         86.6000   44.3740  217.0470 N.3   246  ALA246     -0.1231
    218  CA        87.4940   43.6600  216.1400 C.3   246  ALA246      0.1694
    219  C         86.7350   42.6090  215.3410 C.2   246  ALA246      0.2592
    220  O         87.0050   42.4100  214.1510 O.2   246  ALA246     -0.2718
    221  CB        88.6400   43.0210  216.9230 C.3   246  ALA246      0.0304
    222  N         85.7840   41.9240  215.9820 N.am  247  SER247     -0.1952
    223  CA        84.9640   40.9460  215.2740 C.3   247  SER247      0.1924
    224  C         84.0570   41.6110  214.2470 C.2   247  SER247      0.2314
    225  O         83.6950   40.9840  213.2440 O.2   247  SER247     -0.2863
    226  CB        84.1340   40.1380  216.2720 C.3   247  SER247      0.2116
    227  OG        84.9670   39.4370  217.1790 O.3   247  SER247     -0.2180
    228  N         85.2320   41.5260  210.5060 N.3   250  GLN250     -0.1231
    229  CA        84.9300   40.3540  209.6930 C.3   250  GLN250      0.1698
    230  C         83.4680   40.3080  209.2710 C.2   250  GLN250      0.2592
    231  O         83.1230   39.5600  208.3490 O.2   250  GLN250     -0.2718
    232  CB        85.2990   39.0740  210.4460 C.3   250  GLN250      0.0381
    233  CG        86.7970   38.8030  210.5200 C.3   250  GLN250      0.0905
    234  CD        87.5300   39.7780  211.4210 C.2   250  GLN250      0.2608
    235  OE1       88.4990   40.4150  211.0070 O.2   250  GLN250     -0.2717
    236  NE2       87.0740   39.8970  212.6620 N.am  250  GLN250     -0.0878
    237  N         82.6040   41.0830  209.9270 N.am  251  ILE251     -0.1980
    238  CA        81.2150   41.1830  209.4940 C.3   251  ILE251      0.1595
    239  C         81.0860   42.1710  208.3430 C.2   251  ILE251      0.2287
    240  O         80.3180   41.9480  207.4010 O.2   251  ILE251     -0.2864
    241  CB        80.3170   41.5680  210.6830 C.3   251  ILE251      0.0276
    242  CG1       80.4540   40.5400  211.8080 C.3   251  ILE251      0.0022
    243  CG2       78.8660   41.6820  210.2440 C.3   251  ILE251      0.0022
    244  CD1       79.7440   40.9280  213.0870 C.3   251  ILE251      0.0001
@<TRIPOS>BOND
     1    31    29   ar
     2    24    25    1
     3    29    30   ar
     4    29    28    1
     5   240   239    2
     6    28    25    1
     7    25    26    1
     8   239   238    1
     9   231   230    2
    10    26    27    2
    11   230   229    1
    12   230   237   am
    13   238   237    1
    14   238   241    1
    15   229   232    1
    16   229   228    1
    17   113   111   ar
    18   113   114   ar
    19    43    42    2
    20   243   241    1
    21   232   233    1
    22   111   109   ar
    23   233   234    1
    24    44    42   am
    25   241   242    1
    26    32    33    1
    27    42    41    1
    28   114   112   ar
    29   235   234    2
    30   107   106    2
    31   234   236   am
    32    19    18    2
    33   109   108    1
    34   109   110   ar
    35   242   244    1
    36   118   117    2
    37   105   106    1
    38   105   108    1
    39   105   104    1
    40    41    40    1
    41    33    34    1
    42   106   115   am
    43   112   110   ar
    44    40    37    1
    45    36    34   am
    46    36    37    1
    47   177   175   ar
    48   177   178   ar
    49   175   174   ar
    50   117   116    1
    51    18    17    1
    52    34    35    2
    53    37    38    1
    54    11    10    2
    55   225   224    2
    56   115   116    1
    57    22    21    1
    58    38    39    2
    59   178   180   ar
    60   178   176   ar
    61   174   173    1
    62   174   176   ar
    63   180   182   ar
    64    17    16    1
    65    17    20    1
    66   173   170    1
    67    21    20    1
    68    21    23    1
    69   220   219    2
    70    10    16   am
    71    10     9    1
    72   224   223    1
    73   176   179   ar
    74   169   170    1
    75   182   181   ar
    76     9     8    1
    77     9    12    1
    78   170   171    1
    79   223   222    1
    80   223   226    1
    81   219   222   am
    82   219   218    1
    83   179   181   ar
    84    92    91    2
    85    95    93    1
    86    12    13    1
    87   171   172    2
    88   218   221    1
    89   218   217    1
    90   226   227    1
    91    57    56    1
    92    99    98    2
    93    13    14    1
    94    45    46    1
    95    91    90    1
    96    91    96   am
    97    90    93    1
    98    90    89    1
    99    50    49    1
   100    93    94    1
   101   161   160    2
   102    98    97    1
   103    56    58    1
   104    56    53    1
   105   166   168   ar
   106   166   164   ar
   107    49    46    1
   108    49    51    1
   109   209   208    2
   110     4     3    2
   111    14    15    1
   112   168   167   ar
   113    52    53    1
   114    52    47   am
   115    46    47    1
   116   164   163   ar
   117    97    96    1
   118    97   100    1
   119   160   159    1
   120    53    54    1
   121    47    48    2
   122   159   158    1
   123   159   162    1
   124   208   207    1
   125     3     2    1
   126   167   165   ar
   127   163   165   ar
   128   163   162    1
   129    54    55    2
   130   202   201    2
   131   102   101    1
   132   102   103    1
   133   100   101    1
   134   190   188    1
   135     2     1    1
   136     2     5    1
   137   207   206    1
   138   207   210    1
   139   187   188    1
   140   187   184    1
   141   201   206   am
   142   201   200    1
   143   183   184    1
   144    81    80    2
   145   188   189    1
   146     1     7    1
   147   210   211    1
   148     5     6    1
   149   184   185    1
   150   185   186    2
   151   155   157   ar
   152   155   153   ar
   153   200   199    1
   154   200   203    1
   155   157   156   ar
   156   205   203    1
   157    80    79    1
   158   211   212    1
   159   212   213    1
   160    79    78    1
   161    79    82    1
   162    87    88   ar
   163    87    85   ar
   164     7     6    1
   165   203   204    1
   166    88    86   ar
   167   153   152   ar
   168    85    83   ar
   169   156   154   ar
   170    86    84   ar
   171    65    63    1
   172    83    84   ar
   173    83    82    1
   174    59    60    1
   175   213   214    2
   176    63    60    1
   177    63    64    1
   178   152   154   ar
   179   152   151    1
   180    60    61    1
   181   194   193    2
   182   215   214    1
   183   214   216    1
   184    61    62    2
   185   145   143   ar
   186   145   146   ar
   187   151   148    1
   188   143   140   ar
   189   193   192    1
   190   148   149    1
   191   148   147    1
   192   137   138    1
   193   137   134    1
   194   146   144   ar
   195   149   150    2
   196   140   138   ar
   197   140   142   ar
   198   197   196    1
   199   138   139   ar
   200   192   191    1
   201   192   195    1
   202   129   128    2
   203   134   135    1
   204   134   133    1
   205   144   142   ar
   206   196   195    1
   207   196   198    1
   208   142   141   ar
   209    75    73   ar
   210    75    76   ar
   211    73    71   ar
   212   135   136    2
   213   139   141   ar
   214   128   133   am
   215   128   127    1
   216    77    76    1
   217    76    74   ar
   218    71    70    1
   219    71    72   ar
   220    70    67    1
   221   131   130    1
   222    66    67    1
   223   130   127    1
   224   130   132    1
   225    72    74   ar
   226   127   126    1
   227    67    68    1
   228    68    69    2
   229   125   124    1
   230   125   119    1
   231   124   123    1
   232   119   120    1
   233   120   123    1
   234   120   121    1
   235   121   122    2
