@<TRIPOS>MOLECULE
tmp/6ak3B00.pdb
 124 116 0 0 0
SMALL
GASTEIGER

@<TRIPOS>ATOM
      1  N         75.9010   45.6620  231.3780 N.3     2  GLY2       -0.1210
      2  CA        75.2520   46.0300  230.1310 C.3     2  GLY2        0.1956
      3  C         75.7840   45.2740  228.9310 C.2     2  GLY2        0.2612
      4  O         75.0350   44.9920  227.9900 O.2     2  GLY2       -0.2717
      5  N         77.0740   44.9380  228.9400 N.am    3  SER3       -0.1952
      6  CA        77.6780   44.2190  227.8260 C.3     3  SER3        0.1924
      7  C         77.4380   42.7170  227.8950 C.2     3  SER3        0.2314
      8  O         77.6000   42.0300  226.8810 O.2     3  SER3       -0.2863
      9  CB        79.1810   44.4990  227.7730 C.3     3  SER3        0.2116
     10  OG        79.8220   44.0600  228.9590 O.3     3  SER3       -0.2180
     11  N         74.2520   39.9410  221.4540 N.3     8  PHE8       -0.1241
     12  CA        75.3470   40.3510  220.5820 C.3     8  PHE8        0.1605
     13  C         75.9270   39.1770  219.7930 C.2     8  PHE8        0.2264
     14  O         76.0310   39.2750  218.5640 O.2     8  PHE8       -0.2867
     15  CB        76.4440   41.0620  221.3820 C.3     8  PHE8        0.0534
     16  CG        76.0180   42.3850  221.9490 C.ar    8  PHE8       -0.0203
     17  CD1       75.8930   43.4940  221.1280 C.ar    8  PHE8       -0.0042
     18  CD2       75.7410   42.5220  223.2990 C.ar    8  PHE8       -0.0042
     19  CE1       75.4980   44.7160  221.6410 C.ar    8  PHE8       -0.0003
     20  CE2       75.3460   43.7430  223.8200 C.ar    8  PHE8       -0.0003
     21  CZ        75.2250   44.8400  222.9890 C.ar    8  PHE8       -0.0000
     22  N         73.3200   38.0290  217.1920 N.3    11  THR11      -0.1203
     23  CA        73.1930   39.0040  216.1130 C.3    11  THR11       0.1994
     24  C         74.4180   38.9850  215.2080 C.2    11  THR11       0.2617
     25  O         74.2940   39.0620  213.9800 O.2    11  THR11      -0.2717
     26  CB        72.9760   40.4050  216.6880 C.3    11  THR11       0.1784
     27  OG1       71.8480   40.3920  217.5730 O.3    11  THR11      -0.2211
     28  CG2       72.7310   41.4140  215.5750 C.3    11  THR11       0.0376
     29  N         75.6110   38.8700  215.7970 N.am   12  MET12      -0.1979
     30  CA        76.8340   38.8980  215.0020 C.3    12  MET12       0.1605
     31  C         77.0050   37.6280  214.1750 C.2    12  MET12       0.2287
     32  O         77.5890   37.6750  213.0860 O.2    12  MET12      -0.2864
     33  CB        78.0410   39.1260  215.9130 C.3    12  MET12       0.0413
     34  CG        78.0810   40.5260  216.5170 C.3    12  MET12       0.0598
     35  SD        79.5410   40.8690  217.5230 S.3    12  MET12      -0.1393
     36  CE        79.2860   39.7400  218.8890 C.3    12  MET12       0.0692
     37  N         74.3760   38.0550  211.0110 N.3    15  THR15      -0.1218
     38  CA        74.7790   39.0540  210.0260 C.3    15  THR15       0.1862
     39  C         76.0750   38.6530  209.3330 C.2    15  THR15       0.2287
     40  O         76.2560   38.9220  208.1390 O.2    15  THR15      -0.2866
     41  CB        74.9300   40.4240  210.6870 C.3    15  THR15       0.1770
     42  OG1       75.9510   40.3660  211.6900 O.3    15  THR15      -0.2211
     43  CG2       73.6210   40.8540  211.3290 C.3    15  THR15       0.0375
     44  N         85.4440   45.5860  231.2570 N.3   237  ASN237     -0.1240
     45  CA        84.3070   45.9640  230.4230 C.3   237  ASN237      0.1653
     46  C         84.7590   46.4380  229.0460 C.2   237  ASN237      0.2266
     47  O         84.2480   45.9720  228.0210 O.2   237  ASN237     -0.2867
     48  CB        83.4860   47.0460  231.1240 C.3   237  ASN237      0.1155
     49  CG        82.3290   47.5390  230.2790 C.2   237  ASN237      0.2627
     50  OD1       81.7050   46.7680  229.5490 O.2   237  ASN237     -0.2716
     51  ND2       82.0380   48.8310  230.3700 N.am  237  ASN237     -0.0877
     52  N         84.1990   45.1580  224.7720 N.3   241  ILE241     -0.1245
     53  CA        83.7660   46.0030  223.6620 C.3   241  ILE241      0.1561
     54  C         84.8030   45.9830  222.5470 C.2   241  ILE241      0.2260
     55  O         84.4610   45.9890  221.3580 O.2   241  ILE241     -0.2867
     56  CB        83.4920   47.4370  224.1560 C.3   241  ILE241      0.0252
     57  CG1       82.3890   47.4380  225.2190 C.3   241  ILE241      0.0019
     58  CG2       83.1300   48.3480  222.9950 C.3   241  ILE241      0.0019
     59  CD1       82.0840   48.8130  225.7810 C.3   241  ILE241      0.0001
     60  N         84.6940   42.8070  220.4950 N.3   244  ARG244     -0.1231
     61  CA        83.5010   42.8180  219.6600 C.3   244  ARG244      0.1694
     62  C         83.6380   43.7870  218.4920 C.2   244  ARG244      0.2591
     63  O         83.0680   43.5450  217.4220 O.2   244  ARG244     -0.2718
     64  CB        82.2700   43.1640  220.4990 C.3   244  ARG244      0.0321
     65  CG        81.7740   42.0150  221.3650 C.3   244  ARG244      0.0489
     66  CD        80.2620   42.0600  221.5270 C.3   244  ARG244      0.2205
     67  NE        79.8490   42.7370  222.7520 N.pl3 244  ARG244     -0.0865
     68  CZ        79.3380   42.1160  223.8110 C.cat 244  ARG244      0.5346
     69  NH1       79.1700   40.8000  223.7950 N.pl3 244  ARG244      0.1354
     70  NH2       78.9870   42.8120  224.8840 N.pl3 244  ARG244      0.1354
     71  N         84.3890   44.8780  218.6730 N.am  245  LEU245     -0.1980
     72  CA        84.6610   45.7760  217.5560 C.3   245  LEU245      0.1596
     73  C         85.6210   45.1400  216.5590 C.2   245  LEU245      0.2287
     74  O         85.4810   45.3340  215.3460 O.2   245  LEU245     -0.2864
     75  CB        85.2170   47.1040  218.0670 C.3   245  LEU245      0.0297
     76  CG        84.2280   47.9860  218.8290 C.3   245  LEU245      0.0022
     77  CD1       84.9130   49.2360  219.3550 C.3   245  LEU245      0.0001
     78  CD2       83.0470   48.3490  217.9420 C.3   245  LEU245      0.0001
     79  N         83.6880   42.8760  214.4730 N.3   248  LEU248     -0.1245
     80  CA        82.8290   43.5830  213.5290 C.3   248  LEU248      0.1561
     81  C         83.4980   43.7330  212.1690 C.2   248  LEU248      0.2260
     82  O         82.8120   43.8030  211.1440 O.2   248  LEU248     -0.2867
     83  CB        82.4530   44.9550  214.0910 C.3   248  LEU248      0.0270
     84  CG        81.3830   45.7600  213.3480 C.3   248  LEU248      0.0019
     85  CD1       80.0360   45.0480  213.4020 C.3   248  LEU248      0.0001
     86  CD2       81.2750   47.1650  213.9180 C.3   248  LEU248      0.0001
     87  N         82.6040   41.0830  209.9270 N.3   251  ILE251     -0.1231
     88  CA        81.2150   41.1830  209.4940 C.3   251  ILE251      0.1692
     89  C         81.0860   42.1710  208.3430 C.2   251  ILE251      0.2591
     90  O         80.3180   41.9480  207.4010 O.2   251  ILE251     -0.2718
     91  CB        80.3170   41.5680  210.6830 C.3   251  ILE251      0.0266
     92  CG1       80.4540   40.5400  211.8080 C.3   251  ILE251      0.0019
     93  CG2       78.8660   41.6820  210.2440 C.3   251  ILE251      0.0020
     94  CD1       79.7440   40.9280  213.0870 C.3   251  ILE251      0.0001
     95  N         81.8370   43.2720  208.3960 N.am  252  LEU252     -0.1980
     96  CA        81.7780   44.2990  207.3630 C.3   252  LEU252      0.1596
     97  C         82.6310   43.9730  206.1430 C.2   252  LEU252      0.2287
     98  O         82.5350   44.6880  205.1390 O.2   252  LEU252     -0.2864
     99  CB        82.2150   45.6490  207.9380 C.3   252  LEU252      0.0297
    100  CG        81.4450   46.1730  209.1520 C.3   252  LEU252      0.0022
    101  CD1       81.9190   47.5710  209.5250 C.3   252  LEU252      0.0001
    102  CD2       79.9460   46.1630  208.8900 C.3   252  LEU252      0.0001
    103  N         80.9130   43.3840  202.6200 N.3   255  TRP255     -0.1241
    104  CA        80.2290   44.5640  202.1030 C.3   255  TRP255      0.1605
    105  C         81.2150   45.5900  201.5590 C.2   255  TRP255      0.2264
    106  O         80.9850   46.1710  200.4920 O.2   255  TRP255     -0.2867
    107  CB        79.3640   45.1880  203.1990 C.3   255  TRP255      0.0550
    108  CG        78.3880   44.2330  203.8130 C.ar  255  TRP255      0.0003
    109  CD1       78.5700   43.4880  204.9420 C.ar  255  TRP255      0.0946
    110  CD2       77.0760   43.9170  203.3320 C.ar  255  TRP255      0.0152
    111  NE1       77.4520   42.7290  205.1940 N.ar  255  TRP255     -0.2442
    112  CE2       76.5200   42.9750  204.2200 C.ar  255  TRP255      0.0810
    113  CE3       76.3160   44.3420  202.2370 C.ar  255  TRP255      0.0012
    114  CZ2       75.2410   42.4490  204.0470 C.ar  255  TRP255      0.0191
    115  CZ3       75.0460   43.8170  202.0660 C.ar  255  TRP255      0.0001
    116  CH2       74.5220   42.8810  202.9670 C.ar  255  TRP255      0.0015
    117  N         78.6540   46.0840  198.4530 N.3   260  LEU260     -0.1245
    118  CA        78.2310   47.4670  198.2430 C.3   260  LEU260      0.1561
    119  C         78.4030   47.8970  196.7920 C.2   260  LEU260      0.2260
    120  O         77.5950   48.6800  196.2810 O.2   260  LEU260     -0.2867
    121  CB        79.0000   48.4130  199.1650 C.3   260  LEU260      0.0270
    122  CG        78.6070   48.4330  200.6420 C.3   260  LEU260      0.0019
    123  CD1       79.4750   49.4230  201.4040 C.3   260  LEU260      0.0001
    124  CD2       77.1350   48.7740  200.8000 C.3   260  LEU260      0.0001
@<TRIPOS>BOND
     1   120   119    2
     2   119   118    1
     3   118   117    1
     4   118   121    1
     5   121   122    1
     6   106   105    2
     7   122   124    1
     8   122   123    1
     9   105   104    1
    10   115   113   ar
    11   115   116   ar
    12   104   103    1
    13   104   107    1
    14   113   110   ar
    15   116   114   ar
    16   107   108    1
    17   110   108   ar
    18   110   112   ar
    19   108   109   ar
    20   114   112   ar
    21   112   111   ar
    22   109   111   ar
    23    98    97    2
    24    97    96    1
    25    96    99    1
    26    96    95    1
    27    90    89    2
    28    99   100    1
    29    40    39    2
    30    89    95   am
    31    89    88    1
    32   102   100    1
    33   100   101    1
    34    39    38    1
    35    88    87    1
    36    88    91    1
    37    38    41    1
    38    38    37    1
    39    93    91    1
    40    91    92    1
    41    41    43    1
    42    41    42    1
    43    82    81    2
    44    92    94    1
    45    81    80    1
    46    32    31    2
    47    84    85    1
    48    84    86    1
    49    84    83    1
    50    80    83    1
    51    80    79    1
    52    25    24    2
    53    31    30    1
    54    30    29    1
    55    30    33    1
    56    24    29   am
    57    24    23    1
    58    74    73    2
    59    28    26    1
    60    33    34    1
    61    23    26    1
    62    23    22    1
    63    34    35    1
    64    73    72    1
    65    26    27    1
    66    63    62    2
    67    35    36    1
    68    72    75    1
    69    72    71    1
    70    78    76    1
    71    75    76    1
    72    62    71   am
    73    62    61    1
    74    14    13    2
    75    76    77    1
    76    61    60    1
    77    61    64    1
    78    13    12    1
    79    64    65    1
    80    12    15    1
    81    12    11    1
    82    17    19   ar
    83    17    16   ar
    84    55    54    2
    85    65    66    1
    86    15    16    1
    87    66    67    1
    88    19    21   ar
    89    16    18   ar
    90    54    53    1
    91    67    68    2
    92    21    20   ar
    93    58    56    1
    94    18    20   ar
    95    53    56    1
    96    53    52    1
    97    69    68    1
    98    68    70    1
    99    56    57    1
   100    57    59    1
   101     8     7    2
   102     9     6    1
   103     9    10    1
   104     6     7    1
   105     6     5    1
   106     4     3    2
   107    47    46    2
   108     3     5   am
   109     3     2    1
   110    46    45    1
   111    50    49    2
   112     2     1    1
   113    49    51   am
   114    49    48    1
   115    45    48    1
   116    45    44    1
