@<TRIPOS>MOLECULE
tmp/6akdA00.pdb
 202 194 0 0 0
SMALL
GASTEIGER

@<TRIPOS>ATOM
      1  N          8.1950   11.7560   62.3480 N.3   163  THR163     -0.1203
      2  CA         8.0820   12.9300   61.4920 C.3   163  THR163      0.1994
      3  C          7.0790   12.7180   60.3570 C.2   163  THR163      0.2618
      4  O          6.6580   11.5880   60.1000 O.2   163  THR163     -0.2717
      5  CB         9.4110   13.2110   60.7910 C.3   163  THR163      0.1784
      6  OG1        9.7190   12.1490   59.8680 O.3   163  THR163     -0.2211
      7  CG2       10.5090   13.3240   61.7930 C.3   163  THR163      0.0376
      8  N          6.7440   13.7850   59.6340 N.am  164  SER164     -0.1951
      9  CA         5.8100   13.6640   58.4780 C.3   164  SER164      0.1924
     10  C          6.4700   14.0750   57.1850 C.2   164  SER164      0.2314
     11  O          7.5650   14.6170   57.2280 O.2   164  SER164     -0.2863
     12  CB         4.5630   14.5120   58.7060 C.3   164  SER164      0.2116
     13  OG         4.8800   15.9060   58.7300 O.3   164  SER164     -0.2180
     14  N          2.6600   14.2960   68.5100 N.3   202  PHE202     -0.1227
     15  CA         3.4380   15.4540   68.0350 C.3   202  PHE202      0.1736
     16  C          4.2790   15.9670   69.1970 C.2   202  PHE202      0.2595
     17  O          3.8010   16.1390   70.3050 O.2   202  PHE202     -0.2718
     18  CB         2.4810   16.5740   67.5260 C.3   202  PHE202      0.0547
     19  CG         3.1670   17.7040   66.8450 C.ar  202  PHE202     -0.0202
     20  CD1        3.7780   17.5150   65.5960 C.ar  202  PHE202     -0.0042
     21  CD2        3.2150   18.9650   67.4230 C.ar  202  PHE202     -0.0042
     22  CE1        4.3980   18.5730   64.9140 C.ar  202  PHE202     -0.0003
     23  CE2        3.8630   20.0250   66.7660 C.ar  202  PHE202     -0.0003
     24  CZ         4.5010   19.8310   65.5570 C.ar  202  PHE202     -0.0000
     25  N          5.5550   16.2380   68.9340 N.am  203  ASP203     -0.1960
     26  CA         6.5210   16.5350   69.9510 C.3   203  ASP203      0.1840
     27  C          6.1850   17.6500   70.8720 C.2   203  ASP203      0.2622
     28  O          6.5650   17.5810   72.0580 O.2   203  ASP203     -0.2715
     29  CB         7.9760   16.6980   69.3820 C.3   203  ASP203      0.1450
     30  CG         8.1260   17.7660   68.3340 C.2   203  ASP203      0.3671
     31  OD1        7.1870   18.5560   68.0450 O.co2 203  ASP203     -0.2456
     32  OD2        9.2480   17.8280   67.7720 O.co2 203  ASP203     -0.2456
     33  N          5.5010   18.6870   70.3630 N.am  204  CYS204     -0.1968
     34  CA         5.0520   19.8330   71.2140 C.3   204  CYS204      0.1712
     35  C          4.0630   19.4720   72.3650 C.2   204  CYS204      0.2296
     36  O          3.9520   20.1880   73.3550 O.2   204  CYS204     -0.2864
     37  CB         4.5660   21.0150   70.3360 C.3   204  CYS204      0.0983
     38  SG         5.9580   21.8510   69.4870 S.3   204  CYS204     -0.0798
     39  N          4.4510   27.5440   67.7500 N.3   272  ALA272     -0.1231
     40  CA         5.4970   26.7810   67.0180 C.3   272  ALA272      0.1694
     41  C          4.9280   26.0190   65.8740 C.2   272  ALA272      0.2593
     42  O          3.7220   25.7530   65.8410 O.2   272  ALA272     -0.2718
     43  CB         6.1520   25.8490   67.9700 C.3   272  ALA272      0.0304
     44  N          5.8140   25.5590   65.0100 N.am  273  GLY273     -0.1942
     45  CA         5.4600   24.6020   63.9830 C.3   273  GLY273      0.2014
     46  C          5.4890   25.1300   62.5600 C.2   273  GLY273      0.2639
     47  O          5.7710   24.3940   61.6220 O.2   273  GLY273     -0.2714
     48  N          5.2010   26.4100   62.4060 N.am  274  GLU274     -0.1963
     49  CA         5.2610   27.0480   61.0900 C.3   274  GLU274      0.1733
     50  C          5.5380   28.4920   61.2890 C.2   274  GLU274      0.2616
     51  O          5.4960   29.0000   62.3850 O.2   274  GLU274     -0.2715
     52  CB         3.9790   26.7950   60.2160 C.3   274  GLU274      0.0429
     53  CG         2.7150   26.9220   60.9550 C.3   274  GLU274      0.1163
     54  CD         1.4320   26.4490   60.2250 C.2   274  GLU274      0.3649
     55  OE1        0.4280   26.2920   60.9980 O.co2 274  GLU274     -0.2457
     56  OE2        1.4220   26.2310   58.9730 O.co2 274  GLU274     -0.2457
     57  N          5.8220   29.1580   60.1870 N.am  275  ALA275     -0.1963
     58  CA         6.1310   30.5600   60.1330 C.3   275  ALA275      0.1728
     59  C          5.0770   31.3590   60.8580 C.2   275  ALA275      0.2616
     60  O          3.9260   31.1670   60.6130 O.2   275  ALA275     -0.2715
     61  CB         6.1350   30.9890   58.6740 C.3   275  ALA275      0.0334
     62  N          5.4790   32.2450   61.7500 N.am  276  LEU276     -0.1977
     63  CA         4.5570   33.1770   62.3900 C.3   276  LEU276      0.1596
     64  C          4.5860   34.5670   61.6900 C.2   276  LEU276      0.2287
     65  O          5.6230   35.1600   61.6470 O.2   276  LEU276     -0.2864
     66  CB         5.0370   33.4050   63.8360 C.3   276  LEU276      0.0297
     67  CG         4.2930   34.4240   64.6450 C.3   276  LEU276      0.0022
     68  CD1        2.8020   34.0360   64.7800 C.3   276  LEU276      0.0001
     69  CD2        4.9690   34.5420   65.9860 C.3   276  LEU276      0.0001
     70  N          7.6860   33.0280   69.5880 N.3   295  ASN295     -0.1225
     71  CA         7.8110   32.2430   68.4310 C.3   295  ASN295      0.1785
     72  C          8.9070   31.2340   68.7150 C.2   295  ASN295      0.2597
     73  O         10.0850   31.6190   68.9820 O.2   295  ASN295     -0.2718
     74  CB         8.2250   33.1120   67.2820 C.3   295  ASN295      0.1169
     75  CG         8.1810   32.3920   65.9590 C.2   295  ASN295      0.2627
     76  OD1        7.4840   31.3820   65.7810 O.2   295  ASN295     -0.2716
     77  ND2        8.7990   32.9900   64.9870 N.am  295  ASN295     -0.0877
     78  N          8.4980   29.9790   68.7310 N.am  296  LEU296     -0.1966
     79  CA         9.3480   28.8660   69.0720 C.3   296  LEU296      0.1728
     80  C          9.5480   28.0270   67.8550 C.2   296  LEU296      0.2616
     81  O          8.5930   27.7190   67.2060 O.2   296  LEU296     -0.2715
     82  CB         8.6940   28.0390   70.2190 C.3   296  LEU296      0.0311
     83  CG         8.3440   28.8340   71.5010 C.3   296  LEU296      0.0022
     84  CD1        7.9160   27.8530   72.5490 C.3   296  LEU296      0.0001
     85  CD2        9.4950   29.5950   72.0730 C.3   296  LEU296      0.0001
     86  N         10.7960   27.6810   67.5070 N.am  297  TYR297     -0.1960
     87  CA        11.1090   26.9990   66.2640 C.3   297  TYR297      0.1771
     88  C         11.9000   25.7020   66.4690 C.2   297  TYR297      0.2620
     89  O         12.7750   25.6120   67.3360 O.2   297  TYR297     -0.2715
     90  CB        11.9450   27.9080   65.3270 C.3   297  TYR297      0.0574
     91  CG        12.7860   27.2100   64.2860 C.ar  297  TYR297     -0.0198
     92  CD1       12.3180   27.0070   62.9830 C.ar  297  TYR297     -0.0009
     93  CD2       14.0160   26.6870   64.5980 C.ar  297  TYR297     -0.0009
     94  CE1       13.0910   26.3760   62.0430 C.ar  297  TYR297      0.0417
     95  CE2       14.7720   26.0420   63.6710 C.ar  297  TYR297      0.0417
     96  CZ        14.3300   25.8940   62.4010 C.ar  297  TYR297      0.1957
     97  OH        15.1170   25.2140   61.4770 O.3   297  TYR297     -0.2866
     98  N         11.6750   24.7410   65.5930 N.am  298  GLY298     -0.1940
     99  CA        12.5870   23.6290   65.5390 C.3   298  GLY298      0.1998
    100  C         11.9570   22.3790   65.0620 C.2   298  GLY298      0.2481
    101  O         10.7250   22.2930   65.0050 O.2   298  GLY298     -0.2729
    102  N         12.7980   21.4140   64.6240 N.am  299  PRO299     -0.2715
    103  CA        12.3700   20.1340   64.1240 C.3   299  PRO299      0.1536
    104  C         12.3700   19.0490   65.1790 C.2   299  PRO299      0.2599
    105  O         12.9920   19.1950   66.2230 O.2   299  PRO299     -0.2715
    106  CB        13.4170   19.8220   63.0900 C.3   299  PRO299      0.0310
    107  CG        14.6510   20.4160   63.6430 C.3   299  PRO299      0.0237
    108  CD        14.2190   21.6270   64.3930 C.3   299  PRO299      0.0939
    109  N         11.7050   17.9480   64.8730 N.am  300  THR300     -0.1937
    110  CA        11.6080   16.8570   65.7990 C.3   300  THR300      0.2028
    111  C         12.9850   16.2810   66.2240 C.2   300  THR300      0.2642
    112  O         13.1520   15.8980   67.3600 O.2   300  THR300     -0.2714
    113  CB        10.6580   15.7810   65.2150 C.3   300  THR300      0.1808
    114  OG1        9.3280   16.3740   65.0720 O.3   300  THR300     -0.2208
    115  CG2       10.5370   14.5810   66.1510 C.3   300  THR300      0.0379
    116  N         13.9500   16.3310   65.3280 N.am  301  GLU301     -0.1976
    117  CA        15.2720   15.7940   65.5020 C.3   301  GLU301      0.1602
    118  C         16.1230   16.6520   66.4300 C.2   301  GLU301      0.2287
    119  O         17.2200   16.2470   66.7950 O.2   301  GLU301     -0.2864
    120  CB        15.9760   15.6680   64.1380 C.3   301  GLU301      0.0415
    121  CG        15.3790   14.6090   63.2210 C.3   301  GLU301      0.1163
    122  CD        14.3320   15.1290   62.2720 C.2   301  GLU301      0.3649
    123  OE1       13.6820   16.1550   62.5430 O.co2 301  GLU301     -0.2457
    124  OE2       14.1340   14.4330   61.2590 O.co2 301  GLU301     -0.2457
    125  N         11.7980   19.0040   70.2560 N.3   304  ILE304     -0.1231
    126  CA        10.6980   19.8830   70.5150 C.3   304  ILE304      0.1692
    127  C         10.8690   21.2830   69.8870 C.2   304  ILE304      0.2592
    128  O         10.2140   21.5980   68.8710 O.2   304  ILE304     -0.2718
    129  CB        10.3260   19.9220   71.9900 C.3   304  ILE304      0.0266
    130  CG1       10.0630   18.5120   72.5010 C.3   304  ILE304      0.0019
    131  CG2        9.0230   20.7190   72.2300 C.3   304  ILE304      0.0020
    132  CD1        9.8720   18.4500   74.0170 C.3   304  ILE304      0.0001
    133  N         11.6560   22.1400   70.5130 N.am  305  THR305     -0.1953
    134  CA        11.9340   23.4610   69.9660 C.3   305  THR305      0.1897
    135  C         13.3760   23.7020   70.2970 C.2   305  THR305      0.2313
    136  O         13.9050   23.1890   71.3490 O.2   305  THR305     -0.2863
    137  CB        10.9940   24.6230   70.4780 C.3   305  THR305      0.1794
    138  OG1       11.1480   24.8250   71.8910 O.3   305  THR305     -0.2208
    139  CG2        9.5850   24.3560   70.1030 C.3   305  THR305      0.0378
    140  N         12.7130   33.8720   64.5090 N.3   327  ILE327     -0.1245
    141  CA        12.8100   32.6770   65.3320 C.3   327  ILE327      0.1561
    142  C         13.8560   32.8750   66.4330 C.2   327  ILE327      0.2260
    143  O         13.8430   32.1610   67.3950 O.2   327  ILE327     -0.2867
    144  CB        13.0460   31.3920   64.5430 C.3   327  ILE327      0.0252
    145  CG1       14.3660   31.4200   63.8190 C.3   327  ILE327      0.0019
    146  CG2       11.8840   31.1990   63.5890 C.3   327  ILE327      0.0019
    147  CD1       14.8680   30.1070   63.2440 C.3   327  ILE327      0.0001
    148  N         18.7670   21.2700   59.0740 N.3   382  THR382     -0.1218
    149  CA        17.2890   21.4990   59.2210 C.3   382  THR382      0.1862
    150  C         16.5210   21.4490   57.8980 C.2   382  THR382      0.2287
    151  O         15.2860   21.2600   57.8770 O.2   382  THR382     -0.2866
    152  CB        17.0030   22.8870   59.8270 C.3   382  THR382      0.1770
    153  OG1       17.4960   23.9210   58.9610 O.3   382  THR382     -0.2211
    154  CG2       17.6550   23.0060   61.2190 C.3   382  THR382      0.0375
    155  N         16.0170   24.1350   56.3930 N.3   384  ASP384     -0.1239
    156  CA        15.3680   25.4580   56.4160 C.3   384  ASP384      0.1674
    157  C         16.3800   26.5200   56.0460 C.2   384  ASP384      0.2266
    158  O         17.5370   26.4600   56.4740 O.2   384  ASP384     -0.2867
    159  CB        14.7370   25.8150   57.7640 C.3   384  ASP384      0.1410
    160  CG        13.7190   24.7960   58.2360 C.2   384  ASP384      0.3668
    161  OD1       12.9270   24.3320   57.3820 O.co2 384  ASP384     -0.2456
    162  OD2       13.6620   24.5050   59.4720 O.co2 384  ASP384     -0.2456
    163  N         13.3940   32.6680   60.0370 N.3   396  TYR396     -0.1241
    164  CA        13.0870   31.5960   59.0510 C.3   396  TYR396      0.1605
    165  C         12.4780   32.2420   57.7950 C.2   396  TYR396      0.2264
    166  O         11.6570   33.0990   57.9200 O.2   396  TYR396     -0.2867
    167  CB        12.0850   30.6080   59.6390 C.3   396  TYR396      0.0534
    168  CG        11.4120   29.6510   58.6620 C.ar  396  TYR396     -0.0201
    169  CD1       11.9250   28.3740   58.4610 C.ar  396  TYR396     -0.0009
    170  CD2       10.2540   30.0160   57.9580 C.ar  396  TYR396     -0.0009
    171  CE1       11.3540   27.4830   57.6060 C.ar  396  TYR396      0.0417
    172  CE2        9.6360   29.0900   57.0630 C.ar  396  TYR396      0.0417
    173  CZ        10.2190   27.8420   56.9070 C.ar  396  TYR396      0.1957
    174  OH         9.6970   26.9140   56.0780 O.3   396  TYR396     -0.2866
    175  N         11.6180   26.7150   53.1130 N.3   399  ARG399     -0.1245
    176  CA        12.2690   25.4530   52.9490 C.3   399  ARG399      0.1563
    177  C         13.4040   25.6500   51.9360 C.2   399  ARG399      0.2260
    178  O         13.2590   26.2860   50.8910 O.2   399  ARG399     -0.2867
    179  CB        11.3010   24.3010   52.5650 C.3   399  ARG399      0.0307
    180  CG        10.2800   23.9400   53.6520 C.3   399  ARG399      0.0489
    181  CD        10.9280   23.2440   54.8740 C.3   399  ARG399      0.2205
    182  NE        11.5130   21.9640   54.4930 N.pl3 399  ARG399     -0.0865
    183  CZ        12.2670   21.1950   55.2510 C.cat 399  ARG399      0.5346
    184  NH1       12.6510   21.5740   56.4820 N.pl3 399  ARG399      0.1354
    185  NH2       12.6730   20.0280   54.7460 N.pl3 399  ARG399      0.1354
    186  N         -0.9910   17.5630   61.4690 N.3   471  ASN471     -0.1240
    187  CA        -0.4760   18.3640   62.5490 C.3   471  ASN471      0.1653
    188  C         -1.0250   19.7710   62.6180 C.2   471  ASN471      0.2266
    189  O         -0.4850   20.5950   63.3560 O.2   471  ASN471     -0.2867
    190  CB         1.0490   18.2920   62.5580 C.3   471  ASN471      0.1155
    191  CG         1.5430   16.9450   63.0840 C.2   471  ASN471      0.2627
    192  OD1        0.9410   16.3930   64.0450 O.2   471  ASN471     -0.2716
    193  ND2        2.6070   16.3930   62.4540 N.am  471  ASN471     -0.0877
    194  N         -0.7640   21.9390   60.3510 N.3   473  LYS473     -0.1245
    195  CA         0.0010   22.8730   59.5180 C.3   473  LYS473      0.1561
    196  C         -0.6370   22.9920   58.1030 C.2   473  LYS473      0.2260
    197  O         -1.0950   21.9950   57.5360 O.2   473  LYS473     -0.2867
    198  CB         1.4470   22.4390   59.3220 C.3   473  LYS473      0.0271
    199  CG         2.2470   22.2040   60.6170 C.3   473  LYS473      0.0035
    200  CD         3.7370   21.9810   60.3160 C.3   473  LYS473      0.0206
    201  CE         4.4630   21.5470   61.5750 C.3   473  LYS473      0.1093
    202  NZ         5.9100   21.6280   61.4980 N.3   473  LYS473     -0.1314
@<TRIPOS>BOND
     1   178   177    2
     2   177   176    1
     3   179   176    1
     4   179   180    1
     5   176   175    1
     6   180   181    1
     7   182   181    1
     8   182   183    2
     9   185   183    1
    10   183   184    1
    11   157   156    1
    12   157   158    2
    13   174   173    1
    14   155   156    1
    15   156   159    1
    16   173   172   ar
    17   173   171   ar
    18   172   170   ar
    19    10    11    2
    20    10     9    1
    21   161   160   ar
    22   197   196    2
    23   171   169   ar
    24   159   160    1
    25   165   166    2
    26   165   164    1
    27   151   150    2
    28   150   149    1
    29   170   168   ar
    30   196   195    1
    31   160   162   ar
    32   169   168   ar
    33     9    12    1
    34     9     8    1
    35   168   167    1
    36    61    58    1
    37    12    13    1
    38   153   152    1
    39    56    54   ar
    40   164   167    1
    41   164   163    1
    42   148   149    1
    43   149   152    1
    44   198   195    1
    45   198   199    1
    46   195   194    1
    47     8     3   am
    48   152   154    1
    49     6     5    1
    50     4     3    2
    51    58    57    1
    52    58    59    1
    53    57    50   am
    54    52    53    1
    55    52    49    1
    56    54    53    1
    57    54    55   ar
    58   200   199    1
    59   200   201    1
    60     3     2    1
    61    60    59    2
    62     5     2    1
    63     5     7    1
    64    59    62   am
    65    49    50    1
    66    49    48    1
    67   124   122   ar
    68    50    51    2
    69   186   187    1
    70    97    96    1
    71     2     1    1
    72   202   201    1
    73    47    46    2
    74    65    64    2
    75    64    63    1
    76    62    63    1
    77    94    96   ar
    78    94    92   ar
    79   122   123   ar
    80   122   121    1
    81    63    66    1
    82    96    95   ar
    83    48    46   am
    84   193   191   am
    85   187   190    1
    86   187   188    1
    87   190   191    1
    88    46    45    1
    89   188   189    2
    90    92    91   ar
    91   191   192    2
    92   106   107    1
    93   106   103    1
    94   121   120    1
    95   147   145    1
    96   146   144    1
    97   107   108    1
    98    95    93   ar
    99   145   144    1
   100    66    67    1
   101    45    44    1
   102   103   102    1
   103   103   104    1
   104   120   117    1
   105    91    93   ar
   106    91    90    1
   107   108   102    1
   108   140   141    1
   109   144   141    1
   110   102   100   am
   111    67    68    1
   112    67    69    1
   113   109   104   am
   114   109   110    1
   115    22    24   ar
   116    22    20   ar
   117    77    75   am
   118   101   100    2
   119    44    41   am
   120   100    99    1
   121   114   113    1
   122   104   105    2
   123   113   110    1
   124   113   115    1
   125    90    87    1
   126   116   117    1
   127   116   111   am
   128   141   142    1
   129   117   118    1
   130    99    98    1
   131    24    23   ar
   132    98    88   am
   133    20    19   ar
   134    76    75    2
   135   110   111    1
   136    42    41    2
   137    41    40    1
   138    75    74    1
   139   111   112    2
   140    87    88    1
   141    87    86    1
   142   118   119    2
   143   142   143    2
   144    88    89    2
   145    23    21   ar
   146    19    21   ar
   147    19    18    1
   148    40    39    1
   149    40    43    1
   150    81    80    2
   151    74    71    1
   152    86    80   am
   153    18    15    1
   154    32    30   ar
   155    80    79    1
   156    15    14    1
   157    15    16    1
   158    31    30   ar
   159    30    29    1
   160    71    72    1
   161    71    70    1
   162    72    78   am
   163    72    73    2
   164    78    79    1
   165   128   127    2
   166    25    16   am
   167    25    26    1
   168    79    82    1
   169    16    17    2
   170    29    26    1
   171    38    37    1
   172   127   133   am
   173   127   126    1
   174    26    27    1
   175   134   135    1
   176   134   137    1
   177   134   133    1
   178   139   137    1
   179    82    83    1
   180   125   126    1
   181   135   136    2
   182    37    34    1
   183    33    27   am
   184    33    34    1
   185   137   138    1
   186   126   129    1
   187    27    28    2
   188    34    35    1
   189    83    85    1
   190    83    84    1
   191   129   131    1
   192   129   130    1
   193    35    36    2
   194   130   132    1
