@<TRIPOS>MOLECULE
tmp/6aksA00.pdb
 220 214 0 0 0
SMALL
GASTEIGER

@<TRIPOS>ATOM
      1  N        -84.8520   62.6220  -89.3750 N.3   100  ILE100     -0.1231
      2  CA       -83.9030   63.1070  -88.3850 C.3   100  ILE100      0.1692
      3  C        -82.5990   63.4280  -89.0990 C.2   100  ILE100      0.2592
      4  O        -81.8420   62.5330  -89.4780 O.2   100  ILE100     -0.2718
      5  CB       -83.6960   62.0730  -87.2810 C.3   100  ILE100      0.0266
      6  CG1      -85.0070   61.8780  -86.5350 C.3   100  ILE100      0.0019
      7  CG2      -82.6010   62.5010  -86.3350 C.3   100  ILE100      0.0020
      8  CD1      -85.0120   60.6870  -85.6690 C.3   100  ILE100      0.0001
      9  N        -82.3380   64.7160  -89.2680 N.am  101  ASP101     -0.1960
     10  CA       -81.1050   65.2030  -89.8700 C.3   101  ASP101      0.1840
     11  C        -80.7360   66.4500  -89.0890 C.2   101  ASP101      0.2622
     12  O        -81.5110   67.4070  -89.0630 O.2   101  ASP101     -0.2715
     13  CB       -81.3050   65.5010  -91.3540 C.3   101  ASP101      0.1450
     14  CG       -80.0350   65.9400  -92.0460 C.2   101  ASP101      0.3671
     15  OD1      -78.9680   65.9810  -91.4040 O.co2 101  ASP101     -0.2456
     16  OD2      -80.1030   66.2340  -93.2530 O.co2 101  ASP101     -0.2456
     17  N        -79.5640   66.4600  -88.4720 N.am  102  ILE102     -0.1963
     18  CA       -79.2370   67.5650  -87.5840 C.3   102  ILE102      0.1727
     19  C        -78.4170   68.6020  -88.3350 C.2   102  ILE102      0.2616
     20  O        -77.9990   69.6150  -87.7670 O.2   102  ILE102     -0.2715
     21  CB       -78.5440   67.0570  -86.3080 C.3   102  ILE102      0.0290
     22  CG1      -77.2160   66.3700  -86.5990 C.3   102  ILE102      0.0022
     23  CG2      -79.4600   66.0880  -85.5970 C.3   102  ILE102      0.0023
     24  CD1      -76.0410   67.1920  -86.2020 C.3   102  ILE102      0.0001
     25  N        -78.2350   68.3770  -89.6290 N.am  103  MET103     -0.1977
     26  CA       -77.5410   69.3000  -90.5060 C.3   103  MET103      0.1605
     27  C        -78.4300   70.4440  -90.9660 C.2   103  MET103      0.2287
     28  O        -77.9770   71.2900  -91.7400 O.2   103  MET103     -0.2864
     29  CB       -77.0100   68.5560  -91.7360 C.3   103  MET103      0.0413
     30  CG       -75.9550   67.4900  -91.4740 C.3   103  MET103      0.0598
     31  SD       -74.3650   68.1070  -90.9110 S.3   103  MET103     -0.1393
     32  CE       -74.3640   67.6360  -89.1930 C.3   103  MET103      0.0692
     33  N        -70.9970   59.3360  -80.7120 N.3   120  PHE120     -0.1241
     34  CA       -71.4900   59.9800  -79.5020 C.3   120  PHE120      0.1605
     35  C        -72.8180   59.3680  -79.0870 C.2   120  PHE120      0.2264
     36  O        -73.3740   58.5130  -79.7740 O.2   120  PHE120     -0.2867
     37  CB       -71.6320   61.4910  -79.7140 C.3   120  PHE120      0.0534
     38  CG       -72.4150   61.8590  -80.9410 C.ar  120  PHE120     -0.0203
     39  CD1      -73.7900   61.9450  -80.9100 C.ar  120  PHE120     -0.0042
     40  CD2      -71.7680   62.1140  -82.1270 C.ar  120  PHE120     -0.0042
     41  CE1      -74.4970   62.2600  -82.0340 C.ar  120  PHE120     -0.0003
     42  CE2      -72.4730   62.4400  -83.2460 C.ar  120  PHE120     -0.0003
     43  CZ       -73.8380   62.5150  -83.1980 C.ar  120  PHE120     -0.0000
     44  N        -76.6970   60.8780  -77.1450 N.3   122  ALA122     -0.1245
     45  CA       -77.5020   62.0670  -77.3680 C.3   122  ALA122      0.1562
     46  C        -78.5420   62.2360  -76.2780 C.2   122  ALA122      0.2260
     47  O        -78.9760   61.2760  -75.6430 O.2   122  ALA122     -0.2867
     48  CB       -78.1960   62.0330  -78.7270 C.3   122  ALA122      0.0290
     49  N        -82.1320   64.3800  -76.1890 N.3   124  PHE124     -0.1241
     50  CA       -83.0910   65.1600  -76.9610 C.3   124  PHE124      0.1605
     51  C        -84.1480   65.7410  -76.0420 C.2   124  PHE124      0.2264
     52  O        -84.7630   65.0100  -75.2650 O.2   124  PHE124     -0.2867
     53  CB       -83.7780   64.3220  -78.0380 C.3   124  PHE124      0.0534
     54  CG       -82.9000   63.9620  -79.1820 C.ar  124  PHE124     -0.0203
     55  CD1      -82.7580   64.8180  -80.2470 C.ar  124  PHE124     -0.0042
     56  CD2      -82.2230   62.7700  -79.2010 C.ar  124  PHE124     -0.0042
     57  CE1      -81.9530   64.4910  -81.2970 C.ar  124  PHE124     -0.0003
     58  CE2      -81.4150   62.4420  -80.2530 C.ar  124  PHE124     -0.0003
     59  CZ       -81.2770   63.3060  -81.2970 C.ar  124  PHE124     -0.0000
     60  N        -87.7390   68.0950  -76.1850 N.3   126  PHE126     -0.1241
     61  CA       -88.8050   68.5140  -77.0860 C.3   126  PHE126      0.1605
     62  C        -89.5740   69.6480  -76.4350 C.2   126  PHE126      0.2264
     63  O        -90.3360   69.4220  -75.4930 O.2   126  PHE126     -0.2867
     64  CB       -89.7240   67.3380  -77.3970 C.3   126  PHE126      0.0534
     65  CG       -89.0260   66.2020  -78.0570 C.ar  126  PHE126     -0.0203
     66  CD1      -88.8520   66.1800  -79.4170 C.ar  126  PHE126     -0.0042
     67  CD2      -88.5110   65.1700  -77.3050 C.ar  126  PHE126     -0.0042
     68  CE1      -88.1810   65.1460  -80.0140 C.ar  126  PHE126     -0.0003
     69  CE2      -87.8450   64.1390  -77.9020 C.ar  126  PHE126     -0.0003
     70  CZ       -87.6840   64.1270  -79.2580 C.ar  126  PHE126     -0.0000
     71  N        -95.1170   61.7080  -78.9860 N.3   142  TYR142     -0.1241
     72  CA       -93.8610   61.7470  -79.7180 C.3   142  TYR142      0.1605
     73  C        -93.3870   60.3190  -79.9360 C.2   142  TYR142      0.2264
     74  O        -93.0160   59.6430  -78.9780 O.2   142  TYR142     -0.2867
     75  CB       -92.8070   62.5100  -78.9260 C.3   142  TYR142      0.0534
     76  CG       -93.0960   63.9640  -78.6790 C.ar  142  TYR142     -0.0201
     77  CD1      -93.5290   64.7820  -79.6950 C.ar  142  TYR142     -0.0009
     78  CD2      -92.9360   64.5100  -77.4250 C.ar  142  TYR142     -0.0009
     79  CE1      -93.7840   66.1030  -79.4730 C.ar  142  TYR142      0.0417
     80  CE2      -93.1820   65.8260  -77.1940 C.ar  142  TYR142      0.0417
     81  CZ       -93.6060   66.6180  -78.2200 C.ar  142  TYR142      0.1957
     82  OH       -93.8620   67.9440  -77.9890 O.3   142  TYR142     -0.2866
     83  N        -91.0250   57.4130  -82.1640 N.3   144  TYR144     -0.1241
     84  CA       -89.8420   57.2150  -82.9850 C.3   144  TYR144      0.1605
     85  C        -90.1070   56.0670  -83.9410 C.2   144  TYR144      0.2264
     86  O        -90.4850   54.9750  -83.5160 O.2   144  TYR144     -0.2867
     87  CB       -88.6040   56.9540  -82.1270 C.3   144  TYR144      0.0534
     88  CG       -87.3600   56.5870  -82.9020 C.ar  144  TYR144     -0.0201
     89  CD1      -86.8140   57.4590  -83.8230 C.ar  144  TYR144     -0.0009
     90  CD2      -86.6830   55.4050  -82.6500 C.ar  144  TYR144     -0.0009
     91  CE1      -85.6850   57.1310  -84.5280 C.ar  144  TYR144      0.0417
     92  CE2      -85.5450   55.0810  -83.3450 C.ar  144  TYR144      0.0417
     93  CZ       -85.0510   55.9460  -84.2780 C.ar  144  TYR144      0.1957
     94  OH       -83.9120   55.6200  -84.9690 O.3   144  TYR144     -0.2866
     95  N        -90.6330   53.0500  -79.4760 N.3   166  PRO166     -0.2102
     96  CA       -90.6720   53.9200  -78.2960 C.3   166  PRO166      0.1504
     97  C        -91.5090   55.1680  -78.5310 C.2   166  PRO166      0.2576
     98  O        -91.4600   55.7410  -79.6200 O.2   166  PRO166     -0.2718
     99  CB       -89.1920   54.2450  -78.0750 C.3   166  PRO166      0.0282
    100  CG       -88.5600   54.0260  -79.3990 C.3   166  PRO166      0.0208
    101  CD       -89.2600   52.8480  -79.9540 C.3   166  PRO166      0.0893
    102  N        -92.3000   55.5890  -77.5500 N.am  167  SER167     -0.1938
    103  CA       -93.1040   56.7970  -77.6760 C.3   167  SER167      0.2055
    104  C        -93.1030   57.5610  -76.3640 C.2   167  SER167      0.2642
    105  O        -92.9130   56.9900  -75.2920 O.2   167  SER167     -0.2714
    106  CB       -94.5480   56.4960  -78.0640 C.3   167  SER167      0.2130
    107  OG       -94.6140   55.8550  -79.3100 O.3   167  SER167     -0.2179
    108  N        -93.3380   58.8650  -76.4560 N.am  168  VAL168     -0.1977
    109  CA       -93.4630   59.7180  -75.2850 C.3   168  VAL168      0.1596
    110  C        -94.8370   60.3790  -75.2930 C.2   168  VAL168      0.2287
    111  O        -95.2480   60.9560  -76.3020 O.2   168  VAL168     -0.2864
    112  CB       -92.3500   60.7770  -75.2240 C.3   168  VAL168      0.0276
    113  CG1      -92.6020   61.7240  -74.0940 C.3   168  VAL168      0.0022
    114  CG2      -91.0210   60.1160  -75.0140 C.3   168  VAL168      0.0022
    115  N        -85.1170   62.4970  -73.4070 N.3   179  VAL179     -0.1245
    116  CA       -84.7280   61.0930  -73.4680 C.3   179  VAL179      0.1561
    117  C        -83.2510   61.0130  -73.8170 C.2   179  VAL179      0.2260
    118  O        -82.6600   61.9610  -74.3310 O.2   179  VAL179     -0.2867
    119  CB       -85.5270   60.2930  -74.5100 C.3   179  VAL179      0.0252
    120  CG1      -86.9980   60.2770  -74.1880 C.3   179  VAL179      0.0019
    121  CG2      -85.2890   60.8550  -75.8810 C.3   179  VAL179      0.0019
    122  N        -80.4760   58.7930  -76.0880 N.3   181  VAL181     -0.1231
    123  CA       -80.4410   57.9980  -77.3030 C.3   181  VAL181      0.1678
    124  C        -79.0330   57.4320  -77.4300 C.2   181  VAL181      0.2434
    125  O        -78.0760   58.1040  -77.0470 O.2   181  VAL181     -0.2733
    126  CB       -80.8150   58.8300  -78.5420 C.3   181  VAL181      0.0265
    127  CG1      -80.7860   57.9950  -79.7880 C.3   181  VAL181      0.0020
    128  CG2      -82.1820   59.4410  -78.3500 C.3   181  VAL181      0.0020
    129  N        -78.8640   56.2010  -77.8880 N.am  182  PRO182     -0.2729
    130  CA       -77.5310   55.6100  -78.0080 C.3   182  PRO182      0.1401
    131  C        -76.8760   55.9670  -79.3350 C.2   182  PRO182      0.2269
    132  O        -77.3340   56.8280  -80.0760 O.2   182  PRO182     -0.2865
    133  CB       -77.8130   54.1200  -77.9020 C.3   182  PRO182      0.0296
    134  CG       -79.1730   53.9630  -78.3890 C.3   182  PRO182      0.0237
    135  CD       -79.9220   55.1980  -78.0730 C.3   182  PRO182      0.0939
    136  N        -76.5080   54.6780  -82.7660 N.3   184  MET184     -0.1245
    137  CA       -77.2580   53.7040  -83.5400 C.3   184  MET184      0.1570
    138  C        -76.6970   53.4170  -84.9210 C.2   184  MET184      0.2261
    139  O        -77.3080   52.6530  -85.6680 O.2   184  MET184     -0.2867
    140  CB       -78.7230   54.1240  -83.6440 C.3   184  MET184      0.0387
    141  CG       -79.4320   54.0610  -82.3110 C.3   184  MET184      0.0595
    142  SD       -81.1940   54.2650  -82.4640 S.3   184  MET184     -0.1393
    143  CE       -81.2460   55.9760  -82.9330 C.3   184  MET184      0.0692
    144  N        -70.4330   57.8530  -86.9120 N.3   190  TYR190     -0.1241
    145  CA       -71.0930   58.7500  -87.8390 C.3   190  TYR190      0.1605
    146  C        -70.0300   59.4350  -88.6780 C.2   190  TYR190      0.2264
    147  O        -68.9060   59.6460  -88.2280 O.2   190  TYR190     -0.2867
    148  CB       -71.9020   59.7900  -87.0870 C.3   190  TYR190      0.0534
    149  CG       -73.0170   59.2510  -86.2360 C.ar  190  TYR190     -0.0201
    150  CD1      -73.9460   58.3570  -86.7360 C.ar  190  TYR190     -0.0009
    151  CD2      -73.1110   59.6040  -84.9090 C.ar  190  TYR190     -0.0009
    152  CE1      -74.9590   57.8820  -85.9490 C.ar  190  TYR190      0.0417
    153  CE2      -74.1120   59.1320  -84.1180 C.ar  190  TYR190      0.0417
    154  CZ       -75.0270   58.2620  -84.6360 C.ar  190  TYR190      0.1957
    155  OH       -76.0180   57.8020  -83.8190 O.3   190  TYR190     -0.2866
    156  N        -69.7670   62.8440  -91.3880 N.3   192  TRP192     -0.1241
    157  CA       -70.4880   63.9620  -91.9540 C.3   192  TRP192      0.1605
    158  C        -70.0930   64.2140  -93.3890 C.2   192  TRP192      0.2264
    159  O        -70.7050   65.0530  -94.0510 O.2   192  TRP192     -0.2867
    160  CB       -70.2460   65.2190  -91.1320 C.3   192  TRP192      0.0550
    161  CG       -70.4080   64.9870  -89.6840 C.ar  192  TRP192      0.0003
    162  CD1      -69.4590   65.1210  -88.7320 C.ar  192  TRP192      0.0946
    163  CD2      -71.5500   64.4370  -89.0340 C.ar  192  TRP192      0.0152
    164  NE1      -69.9600   64.7750  -87.5100 N.ar  192  TRP192     -0.2442
    165  CE2      -71.2420   64.3330  -87.6740 C.ar  192  TRP192      0.0810
    166  CE3      -72.8130   64.0360  -89.4690 C.ar  192  TRP192      0.0012
    167  CZ2      -72.1470   63.8540  -86.7470 C.ar  192  TRP192      0.0191
    168  CZ3      -73.6990   63.5630  -88.5510 C.ar  192  TRP192      0.0001
    169  CH2      -73.3700   63.4760  -87.2080 C.ar  192  TRP192      0.0015
    170  N        -76.0950   57.1370  -91.9670 N.3   217  ASN217     -0.1225
    171  CA       -76.6670   58.2120  -91.1810 C.3   217  ASN217      0.1785
    172  C        -78.1820   58.2270  -91.1310 C.2   217  ASN217      0.2597
    173  O        -78.7410   59.1510  -90.5350 O.2   217  ASN217     -0.2718
    174  CB       -76.1840   59.5680  -91.7060 C.3   217  ASN217      0.1169
    175  CG       -74.6990   59.7680  -91.5140 C.2   217  ASN217      0.2627
    176  OD1      -74.0020   60.2250  -92.4140 O.2   217  ASN217     -0.2716
    177  ND2      -74.2050   59.4160  -90.3400 N.am  217  ASN217     -0.0877
    178  N        -78.8650   57.2460  -91.7150 N.am  218  MET218     -0.1965
    179  CA       -80.3190   57.3170  -91.8210 C.3   218  MET218      0.1736
    180  C        -80.8980   56.6590  -90.5790 C.2   218  MET218      0.2616
    181  O        -80.8710   55.4410  -90.4170 O.2   218  MET218     -0.2715
    182  CB       -80.7890   56.6270  -93.0910 C.3   218  MET218      0.0427
    183  CG       -80.2120   57.2180  -94.3600 C.3   218  MET218      0.0599
    184  SD       -80.7010   56.2680  -95.8100 S.3   218  MET218     -0.1393
    185  CE       -79.7480   57.0670  -97.0970 C.3   218  MET218      0.0692
    186  N        -81.4360   57.4890  -89.6970 N.am  219  MET219     -0.1977
    187  CA       -81.8470   57.0840  -88.3620 C.3   219  MET219      0.1605
    188  C        -83.3430   56.8640  -88.2120 C.2   219  MET219      0.2287
    189  O        -83.7920   56.5840  -87.1000 O.2   219  MET219     -0.2864
    190  CB       -81.3710   58.1240  -87.3540 C.3   219  MET219      0.0413
    191  CG       -79.8640   58.1920  -87.2010 C.3   219  MET219      0.0598
    192  SD       -79.1650   56.7000  -86.4720 S.3   219  MET219     -0.1393
    193  CE       -78.4110   55.9280  -87.8930 C.3   219  MET219      0.0692
    194  N        -89.1810   60.9250  -86.8900 N.3   222  PHE222     -0.1241
    195  CA       -89.8630   61.3760  -85.6840 C.3   222  PHE222      0.1605
    196  C        -91.2330   61.9090  -86.0710 C.2   222  PHE222      0.2264
    197  O        -91.3480   62.6790  -87.0240 O.2   222  PHE222     -0.2867
    198  CB       -89.0340   62.4530  -84.9850 C.3   222  PHE222      0.0534
    199  CG       -89.7510   63.1690  -83.8830 C.ar  222  PHE222     -0.0203
    200  CD1      -89.8670   62.6110  -82.6340 C.ar  222  PHE222     -0.0042
    201  CD2      -90.2840   64.4190  -84.0970 C.ar  222  PHE222     -0.0042
    202  CE1      -90.5160   63.2830  -81.6320 C.ar  222  PHE222     -0.0003
    203  CE2      -90.9220   65.0810  -83.1050 C.ar  222  PHE222     -0.0003
    204  CZ       -91.0450   64.5180  -81.8720 C.ar  222  PHE222     -0.0000
    205  N        -80.6550   68.8830  -79.4730 N.3   242  MET242     -0.1245
    206  CA       -79.8150   67.7110  -79.2890 C.3   242  MET242      0.1570
    207  C        -78.5430   68.0900  -78.5460 C.2   242  MET242      0.2261
    208  O        -77.8510   69.0370  -78.9210 O.2   242  MET242     -0.2867
    209  CB       -79.4710   67.0610  -80.6220 C.3   242  MET242      0.0387
    210  CG       -78.5920   65.8390  -80.4970 C.3   242  MET242      0.0595
    211  SD       -78.2260   65.0430  -82.0610 S.3   242  MET242     -0.1393
    212  CE       -77.0790   66.2230  -82.7380 C.3   242  MET242      0.0692
    213  N        -77.8420   68.6400  -97.1730 N.3   264  ASN264     -0.1240
    214  CA       -77.0880   67.4170  -97.3860 C.3   264  ASN264      0.1653
    215  C        -75.9170   67.6170  -98.3340 C.2   264  ASN264      0.2266
    216  O        -75.2260   66.6640  -98.6790 O.2   264  ASN264     -0.2867
    217  CB       -78.0300   66.3440  -97.9090 C.3   264  ASN264      0.1155
    218  CG       -79.1100   66.0200  -96.9250 C.2   264  ASN264      0.2627
    219  OD1      -78.9120   66.1360  -95.7210 O.2   264  ASN264     -0.2716
    220  ND2      -80.2810   65.6680  -97.4260 N.am  264  ASN264     -0.0877
@<TRIPOS>BOND
     1   216   215    2
     2   215   214    1
     3   217   214    1
     4   217   218    1
     5   220   218   am
     6   214   213    1
     7   185   184    1
     8   218   219    2
     9   184   183    1
    10   183   182    1
    11   159   158    2
    12   158   157    1
    13    16    14   ar
    14   182   179    1
    15   176   175    2
    16    14    15   ar
    17    14    13    1
    18   170   171    1
    19   157   156    1
    20   157   160    1
    21   179   178    1
    22   179   180    1
    23    28    27    2
    24    29    30    1
    25    29    26    1
    26   178   172   am
    27   174   175    1
    28   174   171    1
    29   175   177   am
    30    30    31    1
    31    13    10    1
    32   171   172    1
    33   160   161    1
    34   172   173    2
    35    27    26    1
    36    31    32    1
    37   180   181    2
    38   180   186   am
    39    26    25    1
    40    10     9    1
    41    10    11    1
    42   186   187    1
    43   161   163   ar
    44   161   162   ar
    45    25    19   am
    46     4     3    2
    47   166   163   ar
    48   166   168   ar
    49     1     2    1
    50     9     3   am
    51     3     2    1
    52    11    12    2
    53    11    17   am
    54   163   165   ar
    55   162   164   ar
    56   146   147    2
    57   146   145    1
    58   168   169   ar
    59    17    18    1
    60     2     5    1
    61   187   188    1
    62   187   190    1
    63    19    20    2
    64    19    18    1
    65   188   189    2
    66   193   192    1
    67   145   148    1
    68   145   144    1
    69   165   164   ar
    70   165   167   ar
    71    18    21    1
    72   190   191    1
    73     5     6    1
    74     5     7    1
    75   169   167   ar
    76   191   192    1
    77   148   149    1
    78   197   196    2
    79   194   195    1
    80   150   149   ar
    81   150   152   ar
    82    22    21    1
    83    22    24    1
    84     6     8    1
    85    21    23    1
    86   149   151   ar
    87   196   195    1
    88   152   154   ar
    89   195   198    1
    90   139   138    2
    91   198   199    1
    92    94    93    1
    93   138   137    1
    94   151   153   ar
    95   154   153   ar
    96   154   155    1
    97    91    93   ar
    98    91    89   ar
    99    93    92   ar
   100   201   199   ar
   101   201   203   ar
   102    85    86    2
   103    85    84    1
   104   199   200   ar
   105    89    88   ar
   106   140   137    1
   107   140   141    1
   108   137   136    1
   109    92    90   ar
   110    42    43   ar
   111    42    40   ar
   112    43    41   ar
   113   203   204   ar
   114    84    83    1
   115    84    87    1
   116   143   142    1
   117    88    90   ar
   118    88    87    1
   119   212   211    1
   120   200   202   ar
   121   142   141    1
   122    40    38   ar
   123   211   210    1
   124    41    39   ar
   125   204   202   ar
   126    57    59   ar
   127    57    55   ar
   128    59    58   ar
   129    38    39   ar
   130    38    37    1
   131    33    34    1
   132   209   210    1
   133   209   206    1
   134    58    56   ar
   135    55    54   ar
   136   132   131    2
   137    68    66   ar
   138    68    70   ar
   139   101    95    1
   140   101   100    1
   141    73    72    1
   142    73    74    2
   143   127   126    1
   144    36    35    2
   145    72    71    1
   146    72    75    1
   147    37    34    1
   148    77    79   ar
   149    77    76   ar
   150    98    97    2
   151    34    35    1
   152    95    96    1
   153    79    81   ar
   154   205   206    1
   155    66    65   ar
   156   100    99    1
   157   131   130    1
   158   107   106    1
   159   206   207    1
   160    70    69   ar
   161    56    54   ar
   162    54    53    1
   163    75    76    1
   164   208   207    2
   165    48    45    1
   166    76    78   ar
   167   126   128    1
   168   126   123    1
   169    97    96    1
   170    97   102   am
   171   134   135    1
   172   134   133    1
   173    96    99    1
   174    81    82    1
   175    81    80   ar
   176   135   129    1
   177   106   103    1
   178    65    64    1
   179    65    67   ar
   180    53    50    1
   181   130   133    1
   182   130   129    1
   183    69    67   ar
   184   129   124   am
   185   103   102    1
   186   103   104    1
   187   124   123    1
   188   124   125    2
   189    78    80   ar
   190    64    61    1
   191    45    44    1
   192    45    46    1
   193   123   122    1
   194    61    62    1
   195    61    60    1
   196    50    49    1
   197    50    51    1
   198   108   104   am
   199   108   109    1
   200    62    63    2
   201   104   105    2
   202   111   110    2
   203    46    47    2
   204    51    52    2
   205   121   119    1
   206   110   109    1
   207   109   112    1
   208   112   114    1
   209   112   113    1
   210   119   120    1
   211   119   116    1
   212   118   117    2
   213   117   116    1
   214   116   115    1
