@<TRIPOS>MOLECULE
tmp/6akxA00.pdb
 242 235 0 0 0
SMALL
GASTEIGER

@<TRIPOS>ATOM
      1  N         17.1430    1.0040  -21.1700 N.3    12  LEU12      -0.1245
      2  CA        18.2070    0.7390  -22.1410 C.3    12  LEU12       0.1561
      3  C         18.0310   -0.5500  -22.9810 C.2    12  LEU12       0.2260
      4  O         18.1890   -0.4660  -24.2030 O.2    12  LEU12      -0.2867
      5  CB        19.5910    0.7810  -21.4800 C.3    12  LEU12       0.0270
      6  CG        19.9800    2.1010  -20.8060 C.3    12  LEU12       0.0019
      7  CD1       21.3410    1.9960  -20.1900 C.3    12  LEU12       0.0001
      8  CD2       19.9600    3.2790  -21.7920 C.3    12  LEU12       0.0001
      9  N         18.4980   -0.1150  -27.0190 N.3    16  TYR16      -0.1241
     10  CA        19.7000   -0.6880  -27.6310 C.3    16  TYR16       0.1605
     11  C         19.3790   -1.7680  -28.6650 C.2    16  TYR16       0.2264
     12  O         20.1310   -1.9370  -29.6230 O.2    16  TYR16      -0.2867
     13  CB        20.6800   -1.2050  -26.5590 C.3    16  TYR16       0.0534
     14  CG        21.3500   -0.1540  -25.6870 C.ar   16  TYR16      -0.0201
     15  CD1       20.9310    1.1760  -25.7070 C.ar   16  TYR16      -0.0009
     16  CD2       22.3750   -0.4990  -24.8090 C.ar   16  TYR16      -0.0009
     17  CE1       21.5080    2.1310  -24.8700 C.ar   16  TYR16       0.0417
     18  CE2       22.9630    0.4490  -23.9710 C.ar   16  TYR16       0.0417
     19  CZ        22.5180    1.7600  -23.9990 C.ar   16  TYR16       0.1957
     20  OH        23.0830    2.6970  -23.1730 O.3    16  TYR16      -0.2866
     21  N         25.9440   -4.4740  -24.1140 N.3    65  TRP65      -0.1241
     22  CA        25.6610   -3.3450  -23.2190 C.3    65  TRP65       0.1605
     23  C         24.1950   -3.3880  -22.7870 C.2    65  TRP65       0.2264
     24  O         23.8720   -2.9790  -21.6660 O.2    65  TRP65      -0.2867
     25  CB        25.9610   -1.9820  -23.8940 C.3    65  TRP65       0.0550
     26  CG        27.3430   -1.8250  -24.4730 C.ar   65  TRP65       0.0003
     27  CD1       27.6710   -1.2000  -25.6390 C.ar   65  TRP65       0.0946
     28  CD2       28.5800   -2.3230  -23.9230 C.ar   65  TRP65       0.0152
     29  NE1       29.0280   -1.2830  -25.8590 N.ar   65  TRP65      -0.2442
     30  CE2       29.6110   -1.9590  -24.8190 C.ar   65  TRP65       0.0810
     31  CE3       28.9170   -3.0510  -22.7590 C.ar   65  TRP65       0.0012
     32  CZ2       30.9540   -2.2780  -24.5820 C.ar   65  TRP65       0.0191
     33  CZ3       30.2480   -3.3690  -22.5260 C.ar   65  TRP65       0.0001
     34  CH2       31.2490   -2.9860  -23.4280 C.ar   65  TRP65       0.0015
     35  N         23.9070   -6.3350  -20.1810 N.3    68  TYR68      -0.1227
     36  CA        24.5850   -5.8510  -18.9830 C.3    68  TYR68       0.1736
     37  C         23.6860   -4.8420  -18.1930 C.2    68  TYR68       0.2595
     38  O         23.6650   -4.8780  -16.9610 O.2    68  TYR68      -0.2718
     39  CB        25.9580   -5.2760  -19.3940 C.3    68  TYR68       0.0548
     40  CG        26.7800   -4.6250  -18.3080 C.ar   68  TYR68      -0.0200
     41  CD1       26.9730   -5.2510  -17.0800 C.ar   68  TYR68      -0.0009
     42  CD2       27.4150   -3.4110  -18.5280 C.ar   68  TYR68      -0.0009
     43  CE1       27.7200   -4.6480  -16.0710 C.ar   68  TYR68       0.0417
     44  CE2       28.1690   -2.7990  -17.5300 C.ar   68  TYR68       0.0417
     45  CZ        28.3300   -3.4260  -16.3040 C.ar   68  TYR68       0.1957
     46  OH        29.1130   -2.8430  -15.3350 O.3    68  TYR68      -0.2866
     47  N         22.9160   -3.9880  -18.9120 N.am   69  ALA69      -0.1980
     48  CA        21.9560   -3.0410  -18.3340 C.3    69  ALA69       0.1597
     49  C         20.8010   -3.8350  -17.6780 C.2    69  ALA69       0.2287
     50  O         20.4330   -3.5680  -16.5320 O.2    69  ALA69      -0.2864
     51  CB        21.4030   -2.1330  -19.4240 C.3    69  ALA69       0.0319
     52  N         34.8270   -3.6800  -25.1150 N.3    84  THR84      -0.1218
     53  CA        35.3010   -2.3350  -24.8030 C.3    84  THR84       0.1862
     54  C         36.2900   -1.9190  -25.9180 C.2    84  THR84       0.2287
     55  O         36.1920   -0.8030  -26.4310 O.2    84  THR84      -0.2866
     56  CB        35.8920   -2.2830  -23.3950 C.3    84  THR84       0.1770
     57  OG1       34.8530   -2.6070  -22.4730 O.3    84  THR84      -0.2211
     58  CG2       36.4670   -0.9180  -23.0400 C.3    84  THR84       0.0375
     59  N         34.4770   -1.2140  -29.2650 N.3    87  TYR87      -0.1227
     60  CA        33.7330    0.0190  -29.0730 C.3    87  TYR87       0.1736
     61  C         34.6580    1.2180  -29.3730 C.2    87  TYR87       0.2595
     62  O         34.2710    2.1260  -30.1180 O.2    87  TYR87      -0.2718
     63  CB        33.2080    0.0870  -27.6300 C.3    87  TYR87       0.0548
     64  CG        32.2220    1.2040  -27.3870 C.ar   87  TYR87      -0.0200
     65  CD1       30.8530    1.0040  -27.5620 C.ar   87  TYR87      -0.0009
     66  CD2       32.6500    2.4610  -26.9570 C.ar   87  TYR87      -0.0009
     67  CE1       29.9340    2.0250  -27.3180 C.ar   87  TYR87       0.0417
     68  CE2       31.7410    3.5000  -26.7400 C.ar   87  TYR87       0.0417
     69  CZ        30.3810    3.2690  -26.8990 C.ar   87  TYR87       0.1957
     70  OH        29.4670    4.2730  -26.6810 O.3    87  TYR87      -0.2866
     71  N         35.8780    1.2080  -28.7860 N.am   88  PHE88      -0.1976
     72  CA        36.8690    2.2700  -28.9420 C.3    88  PHE88       0.1639
     73  C         37.4560    2.2800  -30.3480 C.2    88  PHE88       0.2290
     74  O         37.6760    3.3580  -30.8970 O.2    88  PHE88      -0.2864
     75  CB        37.9680    2.1240  -27.9030 C.3    88  PHE88       0.0560
     76  CG        37.6670    2.6960  -26.5410 C.ar   88  PHE88      -0.0200
     77  CD1       36.9190    1.9770  -25.6160 C.ar   88  PHE88      -0.0042
     78  CD2       38.2160    3.9070  -26.1430 C.ar   88  PHE88      -0.0042
     79  CE1       36.6860    2.4820  -24.3300 C.ar   88  PHE88      -0.0003
     80  CE2       37.9860    4.4080  -24.8540 C.ar   88  PHE88      -0.0003
     81  CZ        37.2290    3.6900  -23.9550 C.ar   88  PHE88      -0.0000
     82  N         34.8640    3.5260  -32.6700 N.3    91  PHE91      -0.1227
     83  CA        34.7410    4.9670  -32.4520 C.3    91  PHE91       0.1736
     84  C         35.8330    5.7540  -33.1860 C.2    91  PHE91       0.2595
     85  O         35.5130    6.6360  -33.9790 O.2    91  PHE91      -0.2718
     86  CB        34.7340    5.3200  -30.9460 C.3    91  PHE91       0.0547
     87  CG        34.6090    6.8080  -30.6730 C.ar   91  PHE91      -0.0202
     88  CD1       33.3800    7.4620  -30.8130 C.ar   91  PHE91      -0.0042
     89  CD2       35.7190    7.5590  -30.2880 C.ar   91  PHE91      -0.0042
     90  CE1       33.2680    8.8370  -30.5720 C.ar   91  PHE91      -0.0003
     91  CE2       35.6070    8.9370  -30.0600 C.ar   91  PHE91      -0.0003
     92  CZ        34.3830    9.5660  -30.2050 C.ar   91  PHE91      -0.0000
     93  N         37.1150    5.4410  -32.9100 N.am   92  PHE92      -0.1976
     94  CA        38.2900    6.0930  -33.4910 C.3    92  PHE92       0.1639
     95  C         38.3760    5.9440  -34.9810 C.2    92  PHE92       0.2290
     96  O         38.4980    6.9640  -35.6690 O.2    92  PHE92      -0.2864
     97  CB        39.5860    5.6170  -32.8250 C.3    92  PHE92       0.0560
     98  CG        39.7540    6.1350  -31.4180 C.ar   92  PHE92      -0.0200
     99  CD1       39.5910    7.4880  -31.1320 C.ar   92  PHE92      -0.0042
    100  CD2       40.1170    5.2780  -30.3830 C.ar   92  PHE92      -0.0042
    101  CE1       39.7290    7.9620  -29.8290 C.ar   92  PHE92      -0.0003
    102  CE2       40.2770    5.7570  -29.0790 C.ar   92  PHE92      -0.0003
    103  CZ        40.0870    7.0970  -28.8110 C.ar   92  PHE92      -0.0000
    104  N         43.1490    2.0810  -23.1930 N.3   142  ASN142     -0.1240
    105  CA        41.8050    1.9430  -22.6490 C.3   142  ASN142      0.1653
    106  C         41.4300    0.4720  -22.3920 C.2   142  ASN142      0.2266
    107  O         40.8660    0.1790  -21.3380 O.2   142  ASN142     -0.2867
    108  CB        40.8090    2.6670  -23.5450 C.3   142  ASN142      0.1155
    109  CG        41.2880    4.0410  -23.9990 C.2   142  ASN142      0.2627
    110  OD1       41.7930    4.2210  -25.1130 O.2   142  ASN142     -0.2716
    111  ND2       41.1240    5.0480  -23.1560 N.am  142  ASN142     -0.0877
    112  N         31.4570   -4.8180  -15.7050 N.3   157  CYS157     -0.1221
    113  CA        32.4320   -4.6170  -16.7750 C.3   157  CYS157      0.1808
    114  C         32.6720   -3.1380  -16.8330 C.2   157  CYS157      0.2601
    115  O         31.7730   -2.3760  -17.1920 O.2   157  CYS157     -0.2717
    116  CB        31.9420   -5.1650  -18.1070 C.3   157  CYS157      0.0970
    117  SG        33.0420   -4.8240  -19.5020 S.3   157  CYS157     -0.0800
    118  N         33.8530   -2.7280  -16.3720 N.am  158  SER158     -0.1952
    119  CA        34.2680   -1.3370  -16.2750 C.3   158  SER158      0.1924
    120  C         35.7880   -1.2230  -16.3470 C.2   158  SER158      0.2314
    121  O         36.4980   -2.2340  -16.2920 O.2   158  SER158     -0.2863
    122  CB        33.7680   -0.7290  -14.9630 C.3   158  SER158      0.2116
    123  OG        34.1440    0.5410  -14.7690 O.3   158  SER158     -0.2180
    124  N         41.1320    2.5330  -12.8040 N.3   161  PHE161     -0.1241
    125  CA        42.4240    3.2240  -12.7930 C.3   161  PHE161      0.1605
    126  C         43.0800    3.1000  -11.4230 C.2   161  PHE161      0.2264
    127  O         42.3580    3.1890  -10.4250 O.2   161  PHE161     -0.2867
    128  CB        42.2410    4.7150  -13.1230 C.3   161  PHE161      0.0534
    129  CG        41.4680    5.0420  -14.3760 C.ar  161  PHE161     -0.0203
    130  CD1       41.7290    4.3760  -15.5710 C.ar  161  PHE161     -0.0042
    131  CD2       40.5420    6.0760  -14.3860 C.ar  161  PHE161     -0.0042
    132  CE1       41.0380    4.7040  -16.7390 C.ar  161  PHE161     -0.0003
    133  CE2       39.8560    6.4080  -15.5570 C.ar  161  PHE161     -0.0003
    134  CZ        40.1080    5.7190  -16.7250 C.ar  161  PHE161     -0.0000
    135  N         41.8850    9.7860  -15.6180 N.3   170  LYS170     -0.1245
    136  CA        40.6290   10.4280  -16.0150 C.3   170  LYS170      0.1561
    137  C         40.9510   11.6440  -16.8800 C.2   170  LYS170      0.2260
    138  O         40.3460   11.8040  -17.9370 O.2   170  LYS170     -0.2867
    139  CB        39.7930   10.8430  -14.7870 C.3   170  LYS170      0.0271
    140  CG        38.9040    9.7380  -14.2530 C.3   170  LYS170      0.0035
    141  CD        37.5640   10.3590  -13.8800 C.3   170  LYS170      0.0206
    142  CE        36.5720   10.2370  -15.0150 C.3   170  LYS170      0.1093
    143  NZ        36.9060   10.9630  -16.2760 N.3   170  LYS170     -0.1314
    144  N         42.7650   10.2260  -20.3950 N.3   173  GLN173     -0.1231
    145  CA        41.7990    9.5130  -21.2510 C.3   173  GLN173      0.1698
    146  C         40.6740   10.4270  -21.7720 C.2   173  GLN173      0.2592
    147  O         40.1440   10.1560  -22.8420 O.2   173  GLN173     -0.2718
    148  CB        41.2470    8.2240  -20.5980 C.3   173  GLN173      0.0381
    149  CG        42.3100    7.1420  -20.2990 C.3   173  GLN173      0.0905
    150  CD        43.2160    6.6930  -21.4480 C.2   173  GLN173      0.2608
    151  OE1       43.0000    6.9800  -22.6320 O.2   173  GLN173     -0.2717
    152  NE2       44.2500    5.9320  -21.1220 N.am  173  GLN173     -0.0878
    153  N         40.3800   11.5390  -21.0590 N.am  174  THR174     -0.1953
    154  CA        39.4260   12.5740  -21.4840 C.3   174  THR174      0.1897
    155  C         40.0180   13.3520  -22.6680 C.2   174  THR174      0.2313
    156  O         39.3190   13.5540  -23.6570 O.2   174  THR174     -0.2863
    157  CB        39.0460   13.5100  -20.3030 C.3   174  THR174      0.1794
    158  OG1       38.2360   12.7800  -19.3690 O.3   174  THR174     -0.2208
    159  CG2       38.3170   14.8030  -20.7540 C.3   174  THR174      0.0378
    160  N         40.1570   11.3820  -26.0820 N.3   177  ILE177     -0.1245
    161  CA        38.8340   11.3090  -26.6980 C.3   177  ILE177      0.1561
    162  C         38.4080   12.6640  -27.2680 C.2   177  ILE177      0.2260
    163  O         37.8220   12.7010  -28.3440 O.2   177  ILE177     -0.2867
    164  CB        37.7790   10.6750  -25.7280 C.3   177  ILE177      0.0252
    165  CG1       38.1370    9.1950  -25.4480 C.3   177  ILE177      0.0019
    166  CG2       36.3330   10.7920  -26.2720 C.3   177  ILE177      0.0019
    167  CD1       37.5310    8.6000  -24.2830 C.3   177  ILE177      0.0001
    168  N         27.8870   13.3890  -31.5030 N.3   278  TRP278     -0.1241
    169  CA        29.0430   13.2050  -30.6370 C.3   278  TRP278      0.1605
    170  C         29.6180   14.4790  -29.9670 C.2   278  TRP278      0.2264
    171  O         30.2330   14.3370  -28.9050 O.2   278  TRP278     -0.2867
    172  CB        30.1420   12.4400  -31.3710 C.3   278  TRP278      0.0550
    173  CG        29.9590   10.9530  -31.3630 C.ar  278  TRP278      0.0003
    174  CD1       29.7350   10.1510  -32.4430 C.ar  278  TRP278      0.0946
    175  CD2       30.0280   10.0850  -30.2210 C.ar  278  TRP278      0.0152
    176  NE1       29.6580    8.8350  -32.0490 N.ar  278  TRP278     -0.2442
    177  CE2       29.8430    8.7620  -30.6900 C.ar  278  TRP278      0.0810
    178  CE3       30.2150   10.2940  -28.8410 C.ar  278  TRP278      0.0012
    179  CZ2       29.8370    7.6520  -29.8280 C.ar  278  TRP278      0.0191
    180  CZ3       30.2160    9.1930  -27.9890 C.ar  278  TRP278      0.0001
    181  CH2       30.0120    7.8950  -28.4810 C.ar  278  TRP278      0.0015
    182  N         28.4340   14.6280  -26.1300 N.3   281  TYR281     -0.1241
    183  CA        29.1910   13.8070  -25.1820 C.3   281  TYR281      0.1605
    184  C         30.5470   14.4230  -24.8980 C.2   281  TYR281      0.2264
    185  O         30.9120   14.5470  -23.7350 O.2   281  TYR281     -0.2867
    186  CB        29.3470   12.3570  -25.6680 C.3   281  TYR281      0.0534
    187  CG        30.2140   11.5050  -24.7650 C.ar  281  TYR281     -0.0201
    188  CD1       29.7290   11.0220  -23.5510 C.ar  281  TYR281     -0.0009
    189  CD2       31.5290   11.1950  -25.1130 C.ar  281  TYR281     -0.0009
    190  CE1       30.5270   10.2410  -22.7100 C.ar  281  TYR281      0.0417
    191  CE2       32.3380   10.4180  -24.2780 C.ar  281  TYR281      0.0417
    192  CZ        31.8270    9.9300  -23.0830 C.ar  281  TYR281      0.1957
    193  OH        32.6020    9.1420  -22.2640 O.3   281  TYR281     -0.2866
    194  N         31.7430   15.3720  -21.2640 N.3   285  LEU285     -0.1245
    195  CA        32.9180   14.6280  -20.7840 C.3   285  LEU285      0.1561
    196  C         34.0030   15.6060  -20.3110 C.2   285  LEU285      0.2260
    197  O         34.5540   15.4260  -19.2300 O.2   285  LEU285     -0.2867
    198  CB        33.4610   13.6860  -21.8840 C.3   285  LEU285      0.0270
    199  CG        34.8130   12.9880  -21.6580 C.3   285  LEU285      0.0019
    200  CD1       34.7470   11.9750  -20.5380 C.3   285  LEU285      0.0001
    201  CD2       35.2820   12.3240  -22.9160 C.3   285  LEU285      0.0001
    202  N         26.2610   12.7400  -18.7870 N.3   309  MET309     -0.1230
    203  CA        27.2340   11.9160  -19.4820 C.3   309  MET309      0.1702
    204  C         26.5760   10.6400  -19.9620 C.2   309  MET309      0.2592
    205  O         26.8500   10.2220  -21.0810 O.2   309  MET309     -0.2718
    206  CB        28.4160   11.5880  -18.5760 C.3   309  MET309      0.0401
    207  CG        29.7180   12.0290  -19.1510 C.3   309  MET309      0.0596
    208  SD        31.0700   11.3780  -18.1800 S.3   309  MET309     -0.1393
    209  CE        31.4200    9.8440  -19.0860 C.3   309  MET309      0.0692
    210  N         25.6940   10.0360  -19.1320 N.am  310  GLN310     -0.1979
    211  CA        24.9750    8.8030  -19.4710 C.3   310  GLN310      0.1601
    212  C         24.0700    9.0020  -20.7030 C.2   310  GLN310      0.2287
    213  O         24.0370    8.1290  -21.5780 O.2   310  GLN310     -0.2864
    214  CB        24.1660    8.2720  -18.2710 C.3   310  GLN310      0.0394
    215  CG        25.0270    7.7680  -17.0990 C.3   310  GLN310      0.0908
    216  CD        26.1580    6.8080  -17.4640 C.2   310  GLN310      0.2608
    217  OE1       27.3700    7.0370  -17.2210 O.2   310  GLN310     -0.2717
    218  NE2       25.7660    5.7200  -18.0760 N.am  310  GLN310     -0.0878
    219  N         26.2270   10.0190  -24.1900 N.3   313  GLU313     -0.1231
    220  CA        26.9480    8.8710  -24.7540 C.3   313  GLU313      0.1699
    221  C         25.9740    7.8840  -25.4320 C.2   313  GLU313      0.2592
    222  O         26.3720    7.2070  -26.3830 O.2   313  GLU313     -0.2718
    223  CB        27.8080    8.1550  -23.6960 C.3   313  GLU313      0.0402
    224  CG        29.0130    7.4420  -24.2870 C.3   313  GLU313      0.1161
    225  CD        29.4660    6.1780  -23.5840 C.2   313  GLU313      0.3649
    226  OE1       29.9810    5.2790  -24.2830 O.co2 313  GLU313     -0.2457
    227  OE2       29.3080    6.0750  -22.3460 O.co2 313  GLU313     -0.2457
    228  N         24.7150    7.7830  -24.9290 N.am  314  THR314     -0.1953
    229  CA        23.6620    6.9380  -25.5080 C.3   314  THR314      0.1897
    230  C         23.3140    7.5480  -26.8920 C.2   314  THR314      0.2313
    231  O         23.1420    6.8140  -27.8730 O.2   314  THR314     -0.2863
    232  CB        22.4540    6.8480  -24.5390 C.3   314  THR314      0.1794
    233  OG1       22.8790    6.2580  -23.3050 O.3   314  THR314     -0.2208
    234  CG2       21.2840    6.0310  -25.1110 C.3   314  THR314      0.0378
    235  N         26.0560    6.6680  -29.3390 N.3   317  MET317     -0.1245
    236  CA        25.9640    5.2530  -29.7020 C.3   317  MET317      0.1570
    237  C         24.9360    5.0750  -30.8400 C.2   317  MET317      0.2261
    238  O         25.1240    4.2310  -31.7130 O.2   317  MET317     -0.2867
    239  CB        25.6580    4.4020  -28.4530 C.3   317  MET317      0.0387
    240  CG        25.2240    2.9820  -28.7530 C.3   317  MET317      0.0595
    241  SD        23.6920    2.5420  -27.8950 S.3   317  MET317     -0.1393
    242  CE        22.4890    3.5640  -28.7580 C.3   317  MET317      0.0692
@<TRIPOS>BOND
     1    96    95    2
     2    95    94    1
     3    85    84    2
     4    94    93    1
     5    94    97    1
     6    84    93   am
     7    84    83    1
     8    97    98    1
     9    82    83    1
    10    83    86    1
    11   174   176   ar
    12   174   173   ar
    13   176   177   ar
    14   238   237    2
    15   168   169    1
    16    98    99   ar
    17    98   100   ar
    18   172   173    1
    19   172   169    1
    20   173   175   ar
    21    99   101   ar
    22    86    87    1
    23    74    73    2
    24   237   236    1
    25    88    87   ar
    26    88    90   ar
    27   177   175   ar
    28   177   179   ar
    29    87    89   ar
    30   169   170    1
    31    90    92   ar
    32   100   102   ar
    33    73    72    1
    34    89    91   ar
    35   175   178   ar
    36    92    91   ar
    37    62    61    2
    38   170   171    2
    39   101   103   ar
    40   179   181   ar
    41   236   235    1
    42   236   239    1
    43    12    11    2
    44    61    60    1
    45    61    71   am
    46    59    60    1
    47   102   103   ar
    48    60    63    1
    49    72    71    1
    50    72    75    1
    51   178   180   ar
    52   242   241    1
    53   240   239    1
    54   240   241    1
    55    11    10    1
    56   181   180   ar
    57   163   162    2
    58    75    76    1
    59   231   230    2
    60    10     9    1
    61    10    13    1
    62    63    64    1
    63    65    64   ar
    64    65    67   ar
    65    64    66   ar
    66    67    69   ar
    67   162   161    1
    68    66    68   ar
    69    69    68   ar
    70    69    70    1
    71   230   229    1
    72   161   160    1
    73   161   164    1
    74    13    14    1
    75    76    78   ar
    76    76    77   ar
    77    55    54    2
    78   222   221    2
    79   166   164    1
    80    78    80   ar
    81   182   183    1
    82    54    53    1
    83    29    27   ar
    84    29    30   ar
    85   164   165    1
    86    15    14   ar
    87    15    17   ar
    88    14    16   ar
    89   186   183    1
    90   186   187    1
    91    27    26   ar
    92    77    79   ar
    93   229   228    1
    94   229   232    1
    95   165   167    1
    96   221   228   am
    97   221   220    1
    98   183   184    1
    99    52    53    1
   100   110   109    2
   101   189   187   ar
   102   189   191   ar
   103   234   232    1
   104   184   185    2
   105    17    19   ar
   106    80    81   ar
   107    30    32   ar
   108    30    28   ar
   109    16    18   ar
   110    53    56    1
   111   187   188   ar
   112   220   219    1
   113   220   223    1
   114    32    34   ar
   115   232   233    1
   116    26    28   ar
   117    26    25    1
   118    79    81   ar
   119   224   223    1
   120   224   225    1
   121   226   225   ar
   122   191   192   ar
   123     4     3    2
   124    21    22    1
   125    19    18   ar
   126    19    20    1
   127   109   108    1
   128   109   111   am
   129    28    31   ar
   130    25    22    1
   131   156   155    2
   132   225   227   ar
   133   188   190   ar
   134   108   105    1
   135    34    33   ar
   136    56    58    1
   137    56    57    1
   138    22    23    1
   139   104   105    1
   140   192   190   ar
   141   192   193    1
   142     3     2    1
   143   201   199    1
   144   147   146    2
   145    23    24    2
   146    31    33   ar
   147   155   154    1
   148   105   106    1
   149   151   150    2
   150   106   107    2
   151     2     5    1
   152     2     1    1
   153   198   199    1
   154   198   195    1
   155     8     6    1
   156   146   145    1
   157   146   153   am
   158   199   200    1
   159   213   212    2
   160   154   153    1
   161   154   157    1
   162     5     6    1
   163   150   152   am
   164   150   149    1
   165   194   195    1
   166   145   148    1
   167   145   144    1
   168   205   204    2
   169     6     7    1
   170   195   196    1
   171   159   157    1
   172   212   211    1
   173   148   149    1
   174   196   197    2
   175   157   158    1
   176    35    36    1
   177   204   203    1
   178   204   210   am
   179   117   116    1
   180   203   202    1
   181   203   206    1
   182   211   210    1
   183   211   214    1
   184    51    48    1
   185    39    36    1
   186    39    40    1
   187   207   206    1
   188   207   208    1
   189   209   208    1
   190    36    37    1
   191    47    48    1
   192    47    37   am
   193    42    40   ar
   194    42    44   ar
   195    48    49    1
   196    40    41   ar
   197   214   215    1
   198    37    38    2
   199   116   113    1
   200   218   216   am
   201   138   137    2
   202    49    50    2
   203    44    45   ar
   204   216   217    2
   205   216   215    1
   206   115   114    2
   207    41    43   ar
   208   137   136    1
   209   114   113    1
   210   114   118   am
   211   113   112    1
   212   132   134   ar
   213   132   130   ar
   214   134   133   ar
   215   118   119    1
   216   120   121    2
   217   120   119    1
   218    45    43   ar
   219    45    46    1
   220   143   142    1
   221   119   122    1
   222   136   135    1
   223   136   139    1
   224   130   129   ar
   225   133   131   ar
   226   142   141    1
   227   122   123    1
   228   139   140    1
   229   131   129   ar
   230   129   128    1
   231   140   141    1
   232   128   125    1
   233   124   125    1
   234   125   126    1
   235   126   127    2
