@<TRIPOS>MOLECULE
tmp/6al2A00.pdb
 170 163 0 0 0
SMALL
GASTEIGER

@<TRIPOS>ATOM
      1  N         -3.0330  -15.0390  -26.8300 N.3   318  ARG318     -0.1245
      2  CA        -2.9750  -14.5350  -28.1970 C.3   318  ARG318      0.1563
      3  C         -2.2920  -15.5370  -29.1170 C.2   318  ARG318      0.2260
      4  O         -2.5500  -15.5470  -30.3260 O.2   318  ARG318     -0.2867
      5  CB        -2.2510  -13.1900  -28.2420 C.3   318  ARG318      0.0307
      6  CG        -3.1120  -12.0040  -27.8380 C.3   318  ARG318      0.0489
      7  CD        -4.4000  -11.9470  -28.6420 C.3   318  ARG318      0.2205
      8  NE        -4.7240  -10.5830  -29.0460 N.pl3 318  ARG318     -0.0865
      9  CZ        -4.8090  -10.1770  -30.3090 C.cat 318  ARG318      0.5346
     10  NH1       -4.5950  -11.0340  -31.2980 N.pl3 318  ARG318      0.1354
     11  NH2       -5.1080   -8.9160  -30.5810 N.pl3 318  ARG318      0.1354
     12  N         -7.4650  -15.9880  -35.2350 N.3   325  THR325     -0.1218
     13  CA        -7.3160  -14.5990  -35.6560 C.3   325  THR325      0.1862
     14  C         -6.8000  -14.4980  -37.0850 C.2   325  THR325      0.2287
     15  O         -7.1750  -13.5730  -37.8140 O.2   325  THR325     -0.2866
     16  CB        -6.3810  -13.8510  -34.7040 C.3   325  THR325      0.1770
     17  OG1       -5.0560  -14.3880  -34.8080 O.3   325  THR325     -0.2211
     18  CG2       -6.8660  -13.9790  -33.2670 C.3   325  THR325      0.0375
     19  N        -15.1370  -11.4570  -34.2290 N.3   377  PRO377     -0.2102
     20  CA       -14.0960  -11.3570  -33.1930 C.3   377  PRO377      0.1504
     21  C        -14.5920  -10.7300  -31.9060 C.2   377  PRO377      0.2575
     22  O        -13.9950  -10.9660  -30.8490 O.2   377  PRO377     -0.2718
     23  CB       -13.0100  -10.4980  -33.8590 C.3   377  PRO377      0.0282
     24  CG       -13.7100   -9.7730  -34.9460 C.3   377  PRO377      0.0208
     25  CD       -14.7460  -10.7270  -35.4480 C.3   377  PRO377      0.0893
     26  N        -15.6610   -9.9340  -31.9580 N.am  378  LEU378     -0.1980
     27  CA       -16.3120   -9.5090  -30.7270 C.3   378  LEU378      0.1596
     28  C        -17.1170  -10.6460  -30.1100 C.2   378  LEU378      0.2287
     29  O        -17.2150  -10.7380  -28.8810 O.2   378  LEU378     -0.2864
     30  CB       -17.2070   -8.3010  -30.9990 C.3   378  LEU378      0.0297
     31  CG       -16.4860   -7.0560  -31.5200 C.3   378  LEU378      0.0022
     32  CD1      -17.4790   -5.9410  -31.8010 C.3   378  LEU378      0.0001
     33  CD2      -15.4210   -6.5980  -30.5340 C.3   378  LEU378      0.0001
     34  N        -14.6570  -13.0000  -28.4370 N.3   381  GLN381     -0.1231
     35  CA       -14.0430  -12.3240  -27.3040 C.3   381  GLN381      0.1698
     36  C        -14.9840  -12.1950  -26.1130 C.2   381  GLN381      0.2592
     37  O        -14.5410  -11.7650  -25.0450 O.2   381  GLN381     -0.2718
     38  CB       -13.5480  -10.9370  -27.7160 C.3   381  GLN381      0.0381
     39  CG       -12.2230  -10.5280  -27.0830 C.3   381  GLN381      0.0905
     40  CD       -11.0580  -11.3650  -27.5730 C.2   381  GLN381      0.2608
     41  OE1      -11.1380  -12.0060  -28.6220 O.2   381  GLN381     -0.2717
     42  NE2       -9.9680  -11.3680  -26.8120 N.am  381  GLN381     -0.0878
     43  N        -16.2660  -12.5410  -26.2640 N.am  382  MET382     -0.1979
     44  CA       -17.2040  -12.3720  -25.1570 C.3   382  MET382      0.1605
     45  C        -16.9770  -13.3910  -24.0350 C.2   382  MET382      0.2287
     46  O        -17.1000  -13.0130  -22.8630 O.2   382  MET382     -0.2864
     47  CB       -18.6610  -12.3970  -25.6580 C.3   382  MET382      0.0413
     48  CG       -19.2890  -13.7630  -25.9490 C.3   382  MET382      0.0598
     49  SD       -21.0870  -13.8360  -25.8490 S.3   382  MET382     -0.1393
     50  CE       -21.3630  -13.0180  -24.2850 C.3   382  MET382      0.0692
     51  N        -13.6610  -12.3430  -22.1180 N.3   385  PHE385     -0.1227
     52  CA       -13.9170  -11.1540  -21.3110 C.3   385  PHE385      0.1736
     53  C        -14.5730  -11.5300  -19.9890 C.2   385  PHE385      0.2595
     54  O        -14.1210  -11.1140  -18.9160 O.2   385  PHE385     -0.2718
     55  CB       -14.7950  -10.1720  -22.0880 C.3   385  PHE385      0.0547
     56  CG       -15.0890   -8.8970  -21.3450 C.ar  385  PHE385     -0.0202
     57  CD1      -14.2550   -7.8000  -21.4730 C.ar  385  PHE385     -0.0042
     58  CD2      -16.2020   -8.7940  -20.5250 C.ar  385  PHE385     -0.0042
     59  CE1      -14.5220   -6.6260  -20.7970 C.ar  385  PHE385     -0.0003
     60  CE2      -16.4730   -7.6220  -19.8430 C.ar  385  PHE385     -0.0003
     61  CZ       -15.6320   -6.5360  -19.9800 C.ar  385  PHE385     -0.0000
     62  N        -15.6450  -12.3220  -20.0500 N.am  386  LEU386     -0.1980
     63  CA       -16.3270  -12.7420  -18.8320 C.3   386  LEU386      0.1596
     64  C        -15.4670  -13.6890  -18.0040 C.2   386  LEU386      0.2287
     65  O        -15.5260  -13.6550  -16.7700 O.2   386  LEU386     -0.2864
     66  CB       -17.6600  -13.4000  -19.1830 C.3   386  LEU386      0.0297
     67  CG       -18.8150  -12.5010  -19.6290 C.3   386  LEU386      0.0022
     68  CD1      -20.1110  -13.2930  -19.6780 C.3   386  LEU386      0.0001
     69  CD2      -18.9560  -11.2980  -18.7100 C.3   386  LEU386      0.0001
     70  N         -6.9130    2.3650  -23.7010 N.3   423  MET423     -0.1245
     71  CA        -7.4170    1.3100  -24.5730 C.3   423  MET423      0.1570
     72  C         -8.2030    1.8920  -25.7400 C.2   423  MET423      0.2261
     73  O         -8.0960    1.4050  -26.8730 O.2   423  MET423     -0.2867
     74  CB        -8.2820    0.3350  -23.7760 C.3   423  MET423      0.0387
     75  CG        -8.6580   -0.9150  -24.5490 C.3   423  MET423      0.0595
     76  SD       -10.2580   -1.5810  -24.0610 S.3   423  MET423     -0.1393
     77  CE       -10.4910   -2.8340  -25.3170 C.3   423  MET423      0.0692
     78  N         -7.5770    1.4600  -29.7870 N.3   427  MET427     -0.1245
     79  CA        -8.6170    1.0920  -30.7420 C.3   427  MET427      0.1570
     80  C         -8.7370    2.1260  -31.8530 C.2   427  MET427      0.2261
     81  O         -8.9800    1.7730  -33.0130 O.2   427  MET427     -0.2867
     82  CB        -9.9540    0.9240  -30.0250 C.3   427  MET427      0.0387
     83  CG       -10.3020   -0.5090  -29.6780 C.3   427  MET427      0.0595
     84  SD       -11.8620   -0.5760  -28.7880 S.3   427  MET427     -0.1393
     85  CE       -11.6800    0.8710  -27.7510 C.3   427  MET427      0.0692
     86  N         -6.1820    1.2030  -34.1110 N.3   430  ILE430     -0.1245
     87  CA        -6.5030    0.0060  -34.8860 C.3   430  ILE430      0.1561
     88  C         -7.4190    0.3500  -36.0550 C.2   430  ILE430      0.2260
     89  O         -7.1330    0.0090  -37.2080 O.2   430  ILE430     -0.2867
     90  CB        -7.1300   -1.0700  -33.9810 C.3   430  ILE430      0.0252
     91  CG1       -6.0810   -1.6390  -33.0270 C.3   430  ILE430      0.0019
     92  CG2       -7.7420   -2.1800  -34.8230 C.3   430  ILE430      0.0019
     93  CD1       -6.5600   -2.8300  -32.2330 C.3   430  ILE430      0.0001
     94  N        -16.4660    2.2500  -26.2990 N.3   454  PHE454     -0.1241
     95  CA       -15.7050    1.2010  -25.6340 C.3   454  PHE454      0.1605
     96  C        -14.7500    1.7500  -24.5850 C.2   454  PHE454      0.2264
     97  O        -14.2960    0.9900  -23.7230 O.2   454  PHE454     -0.2867
     98  CB       -14.9270    0.3760  -26.6580 C.3   454  PHE454      0.0534
     99  CG       -15.6990   -0.7790  -27.2190 C.ar  454  PHE454     -0.0203
    100  CD1      -16.9740   -1.0690  -26.7610 C.ar  454  PHE454     -0.0042
    101  CD2      -15.1490   -1.5790  -28.2060 C.ar  454  PHE454     -0.0042
    102  CE1      -17.6850   -2.1340  -27.2790 C.ar  454  PHE454     -0.0003
    103  CE2      -15.8540   -2.6450  -28.7270 C.ar  454  PHE454     -0.0003
    104  CZ       -17.1240   -2.9230  -28.2630 C.ar  454  PHE454     -0.0000
    105  N        -17.0080    2.0410  -21.7310 N.3   457  PHE457     -0.1227
    106  CA       -17.2140    0.6440  -21.3640 C.3   457  PHE457      0.1736
    107  C        -16.3050    0.2540  -20.2030 C.2   457  PHE457      0.2595
    108  O        -16.7730   -0.1560  -19.1350 O.2   457  PHE457     -0.2718
    109  CB       -16.9510   -0.2400  -22.5900 C.3   457  PHE457      0.0547
    110  CG       -17.4880   -1.6480  -22.4880 C.ar  457  PHE457     -0.0202
    111  CD1      -17.3410   -2.4000  -21.3320 C.ar  457  PHE457     -0.0042
    112  CD2      -18.1150   -2.2300  -23.5770 C.ar  457  PHE457     -0.0042
    113  CE1      -17.8260   -3.6900  -21.2600 C.ar  457  PHE457     -0.0003
    114  CE2      -18.6010   -3.5210  -23.5100 C.ar  457  PHE457     -0.0003
    115  CZ       -18.4560   -4.2510  -22.3490 C.ar  457  PHE457     -0.0000
    116  N        -14.9940    0.3840  -20.3980 N.am  458  PHE458     -0.1976
    117  CA       -14.0080   -0.0910  -19.4370 C.3   458  PHE458      0.1639
    118  C        -13.7920    0.8640  -18.2700 C.2   458  PHE458      0.2290
    119  O        -12.9280    0.5940  -17.4290 O.2   458  PHE458     -0.2864
    120  CB       -12.6740   -0.3460  -20.1450 C.3   458  PHE458      0.0560
    121  CG       -12.6680   -1.5780  -21.0070 C.ar  458  PHE458     -0.0200
    122  CD1      -13.3580   -1.6060  -22.2080 C.ar  458  PHE458     -0.0042
    123  CD2      -11.9680   -2.7080  -20.6170 C.ar  458  PHE458     -0.0042
    124  CE1      -13.3540   -2.7380  -23.0010 C.ar  458  PHE458     -0.0003
    125  CE2      -11.9590   -3.8430  -21.4060 C.ar  458  PHE458     -0.0003
    126  CZ       -12.6530   -3.8570  -22.5990 C.ar  458  PHE458     -0.0000
    127  N        -14.6480   -1.0230  -14.9700 N.3   461  PHE461     -0.1241
    128  CA       -14.2100   -2.4080  -14.9720 C.3   461  PHE461      0.1605
    129  C        -12.8170   -2.5260  -14.3650 C.2   461  PHE461      0.2264
    130  O        -12.0740   -1.5390  -14.3040 O.2   461  PHE461     -0.2867
    131  CB       -14.2310   -2.9690  -16.4020 C.3   461  PHE461      0.0534
    132  CG       -15.5320   -3.6290  -16.7640 C.ar  461  PHE461     -0.0203
    133  CD1      -15.8220   -4.9080  -16.3150 C.ar  461  PHE461     -0.0042
    134  CD2      -16.4740   -2.9650  -17.5320 C.ar  461  PHE461     -0.0042
    135  CE1      -17.0220   -5.5180  -16.6370 C.ar  461  PHE461     -0.0003
    136  CE2      -17.6760   -3.5690  -17.8560 C.ar  461  PHE461     -0.0003
    137  CZ       -17.9490   -4.8470  -17.4090 C.ar  461  PHE461     -0.0000
    138  N         -6.6670   -6.1370  -22.1670 N.3   469  TYR469     -0.1241
    139  CA        -7.0650   -5.7650  -23.5180 C.3   469  TYR469      0.1605
    140  C         -6.2400   -4.6120  -24.0720 C.2   469  TYR469      0.2264
    141  O         -6.2140   -4.4170  -25.2920 O.2   469  TYR469     -0.2867
    142  CB        -8.5530   -5.4180  -23.5450 C.3   469  TYR469      0.0534
    143  CG        -9.4390   -6.6410  -23.5680 C.ar  469  TYR469     -0.0201
    144  CD1       -9.6610   -7.3370  -24.7480 C.ar  469  TYR469     -0.0009
    145  CD2      -10.0400   -7.1100  -22.4070 C.ar  469  TYR469     -0.0009
    146  CE1      -10.4630   -8.4600  -24.7750 C.ar  469  TYR469      0.0417
    147  CE2      -10.8450   -8.2330  -22.4240 C.ar  469  TYR469      0.0417
    148  CZ       -11.0530   -8.9040  -23.6120 C.ar  469  TYR469      0.1957
    149  OH       -11.8530  -10.0220  -23.6380 O.3   469  TYR469     -0.2866
    150  N         -3.4440   -6.5130  -25.3570 N.3   472  SER472     -0.1202
    151  CA        -3.9840   -7.4090  -26.3730 C.3   472  SER472      0.2020
    152  C         -4.0650   -6.7160  -27.7250 C.2   472  SER472      0.2618
    153  O         -3.7670   -7.3210  -28.7620 O.2   472  SER472     -0.2717
    154  CB        -5.3620   -7.9180  -25.9510 C.3   472  SER472      0.2103
    155  OG        -6.0100   -8.5860  -27.0200 O.3   472  SER472     -0.2182
    156  N         -4.4630   -5.4450  -27.7330 N.am  473  ASN473     -0.1974
    157  CA        -4.5460   -4.6740  -28.9640 C.3   473  ASN473      0.1688
    158  C         -3.2180   -4.0480  -29.3590 C.2   473  ASN473      0.2292
    159  O         -3.0390   -3.6960  -30.5310 O.2   473  ASN473     -0.2864
    160  CB        -5.6180   -3.5910  -28.8270 C.3   473  ASN473      0.1181
    161  CG        -6.9860   -4.1690  -28.5230 C.2   473  ASN473      0.2629
    162  OD1       -7.1440   -5.3850  -28.4020 O.2   473  ASN473     -0.2716
    163  ND2       -7.9830   -3.3020  -28.3990 N.am  473  ASN473     -0.0877
    164  N         -2.0800   -6.5780  -31.5320 N.3   476  THR476     -0.1218
    165  CA        -2.7300   -6.4350  -32.8320 C.3   476  THR476      0.1862
    166  C         -2.0410   -5.3720  -33.6770 C.2   476  THR476      0.2287
    167  O         -1.8060   -5.5760  -34.8730 O.2   476  THR476     -0.2866
    168  CB        -4.2060   -6.0840  -32.6440 C.3   476  THR476      0.1770
    169  OG1       -4.9090   -7.2190  -32.1260 O.3   476  THR476     -0.2211
    170  CG2       -4.8340   -5.6610  -33.9670 C.3   476  THR476      0.0375
@<TRIPOS>BOND
     1    15    14    2
     2    89    88    2
     3    14    13    1
     4    88    87    1
     5    13    12    1
     6    13    16    1
     7    25    24    1
     8    25    19    1
     9    24    23    1
    10    87    86    1
    11    87    90    1
    12   167   166    2
    13    92    90    1
    14    17    16    1
    15    16    18    1
    16    19    20    1
    17    90    91    1
    18   170   168    1
    19    23    20    1
    20   166   165    1
    21    20    21    1
    22    91    93    1
    23    81    80    2
    24   165   168    1
    25   165   164    1
    26   168   169    1
    27    26    21   am
    28    26    27    1
    29    21    22    2
    30    80    79    1
    31    32    31    1
    32    31    30    1
    33    31    33    1
    34    10     9    1
    35    30    27    1
    36    79    82    1
    37    79    78    1
    38    27    28    1
    39    11     9    1
    40   159   158    2
    41     4     3    2
    42     9     8    2
    43    28    29    2
    44    82    83    1
    45    83    84    1
    46   158   157    1
    47     3     2    1
    48     8     7    1
    49   157   160    1
    50   157   156    1
    51   160   161    1
    52    84    85    1
    53   153   152    2
    54   103   104   ar
    55   103   101   ar
    56     7     6    1
    57    41    40    2
    58   161   162    2
    59   161   163   am
    60    34    35    1
    61   104   102   ar
    62     5     2    1
    63     5     6    1
    64   101    99   ar
    65     2     1    1
    66   156   152   am
    67   152   151    1
    68    38    35    1
    69    38    39    1
    70    40    39    1
    71    40    42   am
    72    35    36    1
    73   102   100   ar
    74    99   100   ar
    75    99    98    1
    76   155   154    1
    77    73    72    2
    78    98    95    1
    79   151   154    1
    80   151   150    1
    81    94    95    1
    82    43    36   am
    83    43    44    1
    84    36    37    2
    85    48    49    1
    86    48    47    1
    87    49    50    1
    88    72    71    1
    89    47    44    1
    90    95    96    1
    91    77    76    1
    92   141   140    2
    93    44    45    1
    94   146   144   ar
    95   146   148   ar
    96   144   143   ar
    97    96    97    2
    98    71    74    1
    99    71    70    1
   100    75    76    1
   101    75    74    1
   102   140   139    1
   103    45    46    2
   104   149   148    1
   105   148   147   ar
   106   112   114   ar
   107   112   110   ar
   108   143   142    1
   109   143   145   ar
   110   142   139    1
   111   139   138    1
   112   114   115   ar
   113   124   126   ar
   114   124   122   ar
   115   126   125   ar
   116   109   110    1
   117   109   106    1
   118   110   111   ar
   119   147   145   ar
   120   115   113   ar
   121   122   121   ar
   122    51    52    1
   123    55    56    1
   124    55    52    1
   125   105   106    1
   126    57    56   ar
   127    57    59   ar
   128   125   123   ar
   129   106   107    1
   130    56    58   ar
   131   111   113   ar
   132    52    53    1
   133   121   123   ar
   134   121   120    1
   135    59    61   ar
   136    58    60   ar
   137   116   107   am
   138   116   117    1
   139   107   108    2
   140   120   117    1
   141    62    53   am
   142    62    63    1
   143    53    54    2
   144    61    60   ar
   145    68    67    1
   146    67    66    1
   147    67    69    1
   148   117   118    1
   149    66    63    1
   150    63    64    1
   151   118   119    2
   152    64    65    2
   153   136   134   ar
   154   136   137   ar
   155   134   132   ar
   156   137   135   ar
   157   132   131    1
   158   132   133   ar
   159   135   133   ar
   160   131   128    1
   161   128   127    1
   162   128   129    1
   163   129   130    2
