@<TRIPOS>MOLECULE
tmp/6al9A00.pdb
 124 116 0 0 0
SMALL
GASTEIGER

@<TRIPOS>ATOM
      1  N        -15.5360  -11.0120   17.7270 N.3    25  ARG25      -0.1245
      2  CA       -16.7680  -10.7930   16.9850 C.3    25  ARG25       0.1563
      3  C        -16.4710  -10.6400   15.5010 C.2    25  ARG25       0.2260
      4  O        -17.2950  -11.0430   14.6510 O.2    25  ARG25      -0.2867
      5  CB       -17.5140   -9.5720   17.5220 C.3    25  ARG25       0.0307
      6  CG       -18.9360   -9.4230   17.0200 C.3    25  ARG25       0.0489
      7  CD       -19.4550   -8.0170   17.2910 C.3    25  ARG25       0.2205
      8  NE       -20.9050   -7.9320   17.2160 N.pl3  25  ARG25      -0.0865
      9  CZ       -21.5890   -7.7940   16.0860 C.cat  25  ARG25       0.5346
     10  NH1      -20.9680   -7.7250   14.9020 N.pl3  25  ARG25       0.1354
     11  NH2      -22.9120   -7.7290   16.1410 N.pl3  25  ARG25       0.1354
     12  N        -17.7270  -13.1070   12.4490 N.3    29  ALA29      -0.1245
     13  CA       -18.2140  -12.5440   11.1850 C.3    29  ALA29       0.1562
     14  C        -17.3990  -13.0270    9.9810 C.2    29  ALA29       0.2260
     15  O        -17.9080  -13.1030    8.8600 O.2    29  ALA29      -0.2867
     16  CB       -18.2480  -11.0140   11.2300 C.3    29  ALA29       0.0290
     17  N        -18.8870  -16.3190    9.1900 N.3    32  ILE32      -0.1245
     18  CA       -20.1570  -16.0990    8.5350 C.3    32  ILE32       0.1561
     19  C        -19.9300  -15.7210    7.0770 C.2    32  ILE32       0.2260
     20  O        -20.6100  -16.2240    6.2040 O.2    32  ILE32      -0.2867
     21  CB       -20.9930  -15.0020    9.2370 C.3    32  ILE32       0.0252
     22  CG1      -21.5300  -15.5010   10.5840 C.3    32  ILE32       0.0019
     23  CG2      -22.1600  -14.5860    8.3730 C.3    32  ILE32       0.0019
     24  CD1      -22.1010  -14.4320   11.4940 C.3    32  ILE32       0.0001
     25  N        -21.1950  -17.9810    3.6280 N.3    36  LYS36      -0.1245
     26  CA       -22.2500  -17.3260    2.8690 C.3    36  LYS36       0.1561
     27  C        -21.7730  -16.5480    1.6690 C.2    36  LYS36       0.2260
     28  O        -22.2720  -15.4510    1.4280 O.2    36  LYS36      -0.2867
     29  CB       -23.0260  -16.4010    3.7860 C.3    36  LYS36       0.0271
     30  CG       -24.0540  -17.1560    4.5810 C.3    36  LYS36       0.0035
     31  CD       -25.2190  -17.5280    3.6810 C.3    36  LYS36       0.0206
     32  CE       -26.2230  -16.3940    3.6700 C.3    36  LYS36       0.1093
     33  NZ       -27.0030  -16.4400    4.9360 N.3    36  LYS36      -0.1314
     34  N        -23.5740   -9.1030    1.9020 N.3    41  ILE41      -0.1231
     35  CA       -23.1340   -8.9400    3.2860 C.3    41  ILE41       0.1692
     36  C        -24.1450   -8.1640    4.1150 C.2    41  ILE41       0.2592
     37  O        -24.5200   -8.6030    5.2000 O.2    41  ILE41      -0.2718
     38  CB       -21.7600   -8.2960    3.3700 C.3    41  ILE41       0.0266
     39  CG1      -20.6980   -9.3020    2.9250 C.3    41  ILE41       0.0019
     40  CG2      -21.4750   -7.8630    4.7940 C.3    41  ILE41       0.0020
     41  CD1      -19.2950   -8.7370    2.8710 C.3    41  ILE41       0.0001
     42  N        -24.6080   -7.0280    3.6010 N.am   42  TYR42      -0.1962
     43  CA       -25.5320   -6.1850    4.3530 C.3    42  TYR42       0.1771
     44  C        -26.8560   -6.9400    4.5740 C.2    42  TYR42       0.2619
     45  O        -27.5740   -7.2240    3.6180 O.2    42  TYR42      -0.2715
     46  CB       -25.7420   -4.8740    3.6020 C.3    42  TYR42       0.0574
     47  CG       -26.5490   -3.8040    4.3070 C.ar   42  TYR42      -0.0198
     48  CD1      -26.4500   -3.5860    5.6860 C.ar   42  TYR42      -0.0009
     49  CD2      -27.4060   -2.9830    3.5800 C.ar   42  TYR42      -0.0009
     50  CE1      -27.2010   -2.5970    6.3060 C.ar   42  TYR42       0.0417
     51  CE2      -28.1450   -1.9970    4.1860 C.ar   42  TYR42       0.0417
     52  CZ       -28.0440   -1.8100    5.5420 C.ar   42  TYR42       0.1957
     53  OH       -28.7920   -0.8240    6.1060 O.3    42  TYR42      -0.2866
     54  N        -27.1350   -7.2970    5.8330 N.am   43  CYS43      -0.1968
     55  CA       -28.4390   -7.8230    6.2440 C.3    43  CYS43       0.1712
     56  C        -29.1380   -6.8900    7.2410 C.2    43  CYS43       0.2296
     57  O        -29.0110   -7.0390    8.4650 O.2    43  CYS43      -0.2864
     58  CB       -28.3250   -9.2440    6.8010 C.3    43  CYS43       0.0983
     59  SG       -29.9190  -10.1180    6.9230 S.3    43  CYS43      -0.0798
     60  N        -31.4080   -8.4140   10.1210 N.3    46  ARG46      -0.1231
     61  CA       -30.5560   -8.8710   11.2280 C.3    46  ARG46       0.1694
     62  C        -30.0150   -7.7090   12.0990 C.2    46  ARG46       0.2591
     63  O        -30.0620   -7.7960   13.3280 O.2    46  ARG46      -0.2718
     64  CB       -29.3880   -9.7200   10.6750 C.3    46  ARG46       0.0321
     65  CG       -28.3110  -10.1350   11.6740 C.3    46  ARG46       0.0489
     66  CD       -28.8030  -11.1480   12.7050 C.3    46  ARG46       0.2205
     67  NE       -27.7350  -11.5370   13.6280 N.pl3  46  ARG46      -0.0865
     68  CZ       -27.9120  -11.9930   14.8670 C.cat  46  ARG46       0.5346
     69  NH1      -29.1230  -12.1350   15.3800 N.pl3  46  ARG46       0.1354
     70  NH2      -26.8640  -12.3050   15.6090 N.pl3  46  ARG46       0.1354
     71  N        -29.5090   -6.6420   11.4780 N.am   47  GLU47      -0.1979
     72  CA       -28.9930   -5.4910   12.2400 C.3    47  GLU47       0.1602
     73  C        -30.0820   -4.9150   13.1440 C.2    47  GLU47       0.2287
     74  O        -29.8090   -4.5720   14.3040 O.2    47  GLU47      -0.2864
     75  CB       -28.4360   -4.3890   11.3300 C.3    47  GLU47       0.0415
     76  CG       -27.1480   -4.7840   10.6130 C.3    47  GLU47       0.1163
     77  CD       -26.5320   -3.6360    9.8140 C.2    47  GLU47       0.3649
     78  OE1      -27.0710   -2.5060    9.8950 O.co2  47  GLU47      -0.2457
     79  OE2      -25.5120   -3.8620    9.0950 O.co2  47  GLU47      -0.2457
     80  N        -30.8590   -7.3460   16.0360 N.3    50  ILE50      -0.1245
     81  CA       -29.8410   -7.1610   17.0860 C.3    50  ILE50       0.1561
     82  C        -30.1570   -5.9590   17.9910 C.2    50  ILE50       0.2260
     83  O        -30.2660   -6.1000   19.2080 O.2    50  ILE50      -0.2867
     84  CB       -28.4330   -7.0340   16.4640 C.3    50  ILE50       0.0252
     85  CG1      -27.9860   -8.4250   15.9840 C.3    50  ILE50       0.0019
     86  CG2      -27.4380   -6.4480   17.4560 C.3    50  ILE50       0.0019
     87  CD1      -26.6340   -8.4650   15.3210 C.3    50  ILE50       0.0001
     88  N        -21.3800   -2.4500   13.1990 N.3    75  PHE75      -0.1241
     89  CA       -21.8320   -3.0330   11.9320 C.3    75  PHE75       0.1605
     90  C        -21.0230   -2.5200   10.7270 C.2    75  PHE75       0.2264
     91  O        -20.7050   -3.2800    9.8390 O.2    75  PHE75      -0.2867
     92  CB       -23.3230   -2.7980   11.6630 C.3    75  PHE75       0.0534
     93  CG       -24.2510   -3.4100   12.6710 C.ar   75  PHE75      -0.0203
     94  CD1      -24.0130   -4.6530   13.2070 C.ar   75  PHE75      -0.0042
     95  CD2      -25.4030   -2.7190   13.0690 C.ar   75  PHE75      -0.0042
     96  CE1      -24.8810   -5.1710   14.1380 C.ar   75  PHE75      -0.0003
     97  CE2      -26.2770   -3.2390   13.9910 C.ar   75  PHE75      -0.0003
     98  CZ       -26.0220   -4.4590   14.5290 C.ar   75  PHE75      -0.0000
     99  N        -17.7360   -4.3580   10.9820 N.3    78  SER78      -0.1202
    100  CA       -17.9740   -5.7630   10.6620 C.3    78  SER78       0.2020
    101  C        -18.2010   -5.9790    9.1760 C.2    78  SER78       0.2618
    102  O        -17.7100   -6.9550    8.6060 O.2    78  SER78      -0.2717
    103  CB       -19.2060   -6.2590   11.4320 C.3    78  SER78       0.2103
    104  OG       -19.4980   -7.6100   11.1740 O.3    78  SER78      -0.2182
    105  N        -18.9400   -5.0620    8.5560 N.am   79  ARG79      -0.1979
    106  CA       -19.2340   -5.1260    7.1290 C.3    79  ARG79       0.1597
    107  C        -17.9930   -4.9680    6.2830 C.2    79  ARG79       0.2287
    108  O        -17.7370   -5.7950    5.4110 O.2    79  ARG79      -0.2864
    109  CB       -20.2480   -4.0480    6.7380 C.3    79  ARG79       0.0334
    110  CG       -21.5740   -4.6190    6.2980 C.3    79  ARG79       0.0492
    111  CD       -22.5500   -3.5360    5.8930 C.3    79  ARG79       0.2205
    112  NE       -23.3320   -3.0850    7.0290 N.pl3  79  ARG79      -0.0865
    113  CZ       -23.4310   -1.8170    7.4240 C.cat  79  ARG79       0.5346
    114  NH1      -22.7990   -0.8460    6.7760 N.pl3  79  ARG79       0.1354
    115  NH2      -24.1830   -1.5160    8.4690 N.pl3  79  ARG79       0.1354
    116  N        -15.5960   -7.9760    6.6510 N.3    82  GLN82      -0.1245
    117  CA       -16.0710   -9.1330    5.8750 C.3    82  GLN82       0.1566
    118  C        -15.7860   -8.9750    4.3750 C.2    82  GLN82       0.2260
    119  O        -15.2800   -9.9070    3.7430 O.2    82  GLN82      -0.2867
    120  CB       -17.5780   -9.3530    6.0630 C.3    82  GLN82       0.0367
    121  CG       -17.9910  -10.0360    7.3530 C.3    82  GLN82       0.0905
    122  CD       -19.4970  -10.1090    7.4920 C.2    82  GLN82       0.2608
    123  OE1      -20.0980   -9.4150    8.2950 O.2    82  GLN82      -0.2717
    124  NE2      -20.1120  -10.9360    6.6820 N.am   82  GLN82      -0.0878
@<TRIPOS>BOND
     1    28    27    2
     2    27    26    1
     3    34    35    1
     4    26    25    1
     5    26    29    1
     6    41    39    1
     7    39    38    1
     8    35    38    1
     9    35    36    1
    10    38    40    1
    11    49    51   ar
    12    49    47   ar
    13    42    36   am
    14    42    43    1
    15    46    47    1
    16    46    43    1
    17    45    44    2
    18    32    31    1
    19    32    33    1
    20    31    30    1
    21   119   118    2
    22    29    30    1
    23    36    37    2
    24    51    52   ar
    25    47    48   ar
    26    43    44    1
    27   118   117    1
    28    44    54   am
    29   108   107    2
    30    52    53    1
    31    52    50   ar
    32    48    50   ar
    33    54    55    1
    34   117   120    1
    35   117   116    1
    36   111   110    1
    37   111   112    1
    38   120   121    1
    39    20    19    2
    40    55    58    1
    41    55    56    1
    42   107   106    1
    43   110   109    1
    44   124   122   am
    45   109   106    1
    46   114   113    1
    47    58    59    1
    48   112   113    2
    49    19    18    1
    50   106   105    1
    51    56    57    2
    52   121   122    1
    53   113   115    1
    54   122   123    2
    55    23    21    1
    56    18    17    1
    57    18    21    1
    58   105   101   am
    59   102   101    2
    60    15    14    2
    61    79    77   ar
    62   101   100    1
    63    21    22    1
    64    77    78   ar
    65    77    76    1
    66    91    90    2
    67    14    13    1
    68    60    61    1
    69    22    24    1
    70    76    75    1
    71   100    99    1
    72   100   103    1
    73    64    61    1
    74    64    65    1
    75    90    89    1
    76   104   103    1
    77    13    16    1
    78    13    12    1
    79    61    62    1
    80    75    72    1
    81    71    62   am
    82    71    72    1
    83    92    89    1
    84    92    93    1
    85    65    66    1
    86    89    88    1
    87    62    63    2
    88    72    73    1
    89    93    95   ar
    90    93    94   ar
    91    66    67    1
    92    95    97   ar
    93    73    74    2
    94    94    96   ar
    95    67    68    2
    96    97    98   ar
    97    96    98   ar
    98     4     3    2
    99    68    69    1
   100    68    70    1
   101    10     9    1
   102    87    85    1
   103     3     2    1
   104    85    84    1
   105    80    81    1
   106     9    11    1
   107     9     8    2
   108    84    81    1
   109    84    86    1
   110     2     5    1
   111     2     1    1
   112     6     7    1
   113     6     5    1
   114    81    82    1
   115     8     7    1
   116    82    83    2
