@<TRIPOS>MOLECULE
tmp/6al9B00.pdb
 115 108 0 0 0
SMALL
GASTEIGER

@<TRIPOS>ATOM
      1  N        -18.6570    0.8040   31.4390 N.3    26  ARG26      -0.1245
      2  CA       -17.6900    1.8440   31.0770 C.3    26  ARG26       0.1563
      3  C        -18.3000    3.2220   31.1940 C.2    26  ARG26       0.2260
      4  O        -17.6160    4.2010   31.5050 O.2    26  ARG26      -0.2867
      5  CB       -17.1090    1.6170   29.6750 C.3    26  ARG26       0.0307
      6  CG       -15.8700    2.4410   29.3750 C.3    26  ARG26       0.0489
      7  CD       -15.5770    2.4200   27.8750 C.3    26  ARG26       0.2205
      8  NE       -14.1900    2.7230   27.5460 N.pl3  26  ARG26      -0.0865
      9  CZ       -13.6660    3.9450   27.5680 C.cat  26  ARG26       0.5346
     10  NH1      -14.4230    5.0040   27.8590 N.pl3  26  ARG26       0.1354
     11  NH2      -12.3890    4.1300   27.2600 N.pl3  26  ARG26       0.1354
     12  N        -17.2230    6.2160   33.7530 N.3    30  ALA30      -0.1245
     13  CA       -17.1180    7.5600   33.2020 C.3    30  ALA30       0.1562
     14  C        -17.9980    8.5420   33.9770 C.2    30  ALA30       0.2260
     15  O        -17.6940    9.7270   34.0480 O.2    30  ALA30      -0.2867
     16  CB       -17.4980    7.5540   31.7170 C.3    30  ALA30       0.0290
     17  N        -15.9400    9.4730   36.9570 N.3    33  ILE33      -0.1245
     18  CA       -14.8850   10.4000   36.5750 C.3    33  ILE33       0.1561
     19  C        -15.4380   11.7970   36.3670 C.2    33  ILE33       0.2260
     20  O        -14.8430   12.7690   36.8110 O.2    33  ILE33      -0.2867
     21  CB       -14.1390    9.9490   35.3050 C.3    33  ILE33       0.0252
     22  CG1      -13.2180    8.7610   35.6010 C.3    33  ILE33       0.0019
     23  CG2      -13.2860   11.0810   34.7350 C.3    33  ILE33       0.0019
     24  CD1      -12.8740    7.9720   34.3590 C.3    33  ILE33       0.0001
     25  N        -15.1970   17.9670   28.7170 N.3    42  ILE42      -0.1231
     26  CA       -14.8270   16.6510   29.2350 C.3    42  ILE42       0.1692
     27  C        -13.7150   16.0970   28.3570 C.2    42  ILE42       0.2592
     28  O        -13.0500   15.1150   28.7020 O.2    42  ILE42      -0.2718
     29  CB       -16.0440   15.6950   29.1610 C.3    42  ILE42       0.0266
     30  CG1      -17.1570   16.1730   30.0870 C.3    42  ILE42       0.0019
     31  CG2      -15.6530   14.2720   29.4970 C.3    42  ILE42       0.0020
     32  CD1      -16.7640   16.2090   31.5470 C.3    42  ILE42       0.0001
     33  N        -13.5090   16.7370   27.2090 N.am   43  TYR43      -0.1962
     34  CA       -12.5730   16.2370   26.2060 C.3    43  TYR43       0.1771
     35  C        -11.1490   16.2300   26.7700 C.2    43  TYR43       0.2619
     36  O        -10.5820   17.2950   27.0280 O.2    43  TYR43      -0.2715
     37  CB       -12.6620   17.1230   24.9620 C.3    43  TYR43       0.0574
     38  CG       -11.9160   16.6430   23.7230 C.ar   43  TYR43      -0.0198
     39  CD1      -11.8260   15.2970   23.3870 C.ar   43  TYR43      -0.0009
     40  CD2      -11.3580   17.5660   22.8530 C.ar   43  TYR43      -0.0009
     41  CE1      -11.1720   14.8960   22.2400 C.ar   43  TYR43       0.0417
     42  CE2      -10.7110   17.1750   21.6990 C.ar   43  TYR43       0.0417
     43  CZ       -10.6110   15.8480   21.3990 C.ar   43  TYR43       0.1957
     44  OH        -9.9510   15.4760   20.2430 O.3    43  TYR43      -0.2866
     45  N        -10.6010   15.0270   26.9870 N.am   44  CYS44      -0.1968
     46  CA        -9.1660   14.8600   27.2590 C.3    44  CYS44       0.1712
     47  C         -8.4730   14.0680   26.1290 C.2    44  CYS44       0.2296
     48  O         -8.3000   12.8440   26.2150 O.2    44  CYS44      -0.2864
     49  CB        -8.8990   14.2220   28.6320 C.3    44  CYS44       0.0983
     50  SG        -7.1470   14.3250   29.0870 S.3    44  CYS44      -0.0798
     51  N         -5.3800   11.6420   26.8870 N.3    47  ARG47      -0.1231
     52  CA        -5.8330   10.3850   27.4380 C.3    47  ARG47       0.1694
     53  C         -6.3950    9.4320   26.3570 C.2    47  ARG47       0.2591
     54  O         -6.0280    8.2470   26.3280 O.2    47  ARG47      -0.2718
     55  CB        -6.8740   10.6510   28.5260 C.3    47  ARG47       0.0321
     56  CG        -7.6420    9.4320   29.0460 C.3    47  ARG47       0.0489
     57  CD        -6.7630    8.4500   29.7930 C.3    47  ARG47       0.2205
     58  NE        -7.5600    7.3420   30.2830 N.pl3  47  ARG47      -0.0865
     59  CZ        -7.0890    6.1260   30.5380 C.cat  47  ARG47       0.5346
     60  NH1       -5.8090    5.8330   30.3500 N.pl3  47  ARG47       0.1354
     61  NH2       -7.9140    5.1860   30.9640 N.pl3  47  ARG47       0.1354
     62  N         -7.2660    9.9490   25.4760 N.am   48  GLU48      -0.1979
     63  CA        -7.8230    9.1660   24.3770 C.3    48  GLU48       0.1602
     64  C         -6.7130    8.5550   23.5450 C.2    48  GLU48       0.2287
     65  O         -6.7890    7.3870   23.1730 O.2    48  GLU48      -0.2864
     66  CB        -8.7180   10.0260   23.4770 C.3    48  GLU48       0.0415
     67  CG       -10.0250   10.4840   24.1190 C.3    48  GLU48       0.1163
     68  CD       -10.9610   11.1850   23.1400 C.2    48  GLU48       0.3649
     69  OE1      -10.6140   11.2660   21.9300 O.co2  48  GLU48      -0.2457
     70  OE2      -12.0510   11.6700   23.5850 O.co2  48  GLU48      -0.2457
     71  N         -4.9230    5.7550   25.3610 N.3    51  ILE51      -0.1245
     72  CA        -5.7340    4.5360   25.3000 C.3    51  ILE51       0.1561
     73  C         -5.5000    3.7950   23.9750 C.2    51  ILE51       0.2260
     74  O         -5.1170    2.6110   23.9670 O.2    51  ILE51      -0.2867
     75  CB        -7.2530    4.8410   25.5000 C.3    51  ILE51       0.0252
     76  CG1       -7.4990    5.2470   26.9500 C.3    51  ILE51       0.0019
     77  CG2       -8.0950    3.6230   25.1770 C.3    51  ILE51       0.0019
     78  CD1       -8.9120    5.6650   27.3090 C.3    51  ILE51       0.0001
     79  N        -15.5660    6.9540   22.4930 N.3    76  PHE76      -0.1241
     80  CA       -15.2030    8.2060   23.1560 C.3    76  PHE76       0.1605
     81  C        -16.3000    9.2590   22.9600 C.2    76  PHE76       0.2264
     82  O        -16.5990    9.9860   23.9070 O.2    76  PHE76      -0.2867
     83  CB       -13.8700    8.7860   22.6450 C.3    76  PHE76       0.0534
     84  CG       -12.6370    7.9480   22.9580 C.ar   76  PHE76      -0.0203
     85  CD1      -12.5110    7.2520   24.1320 C.ar   76  PHE76      -0.0042
     86  CD2      -11.6160    7.8650   22.0480 C.ar   76  PHE76      -0.0042
     87  CE1      -11.3960    6.4970   24.3960 C.ar   76  PHE76      -0.0003
     88  CE2      -10.4930    7.1160   22.3020 C.ar   76  PHE76      -0.0003
     89  CZ       -10.3870    6.4230   23.4750 C.ar   76  PHE76      -0.0000
     90  N        -19.1180    8.1380   25.3340 N.3    79  SER79      -0.1202
     91  CA       -18.6710    8.4620   26.6940 C.3    79  SER79       0.2020
     92  C        -18.6560    9.9630   27.0190 C.2    79  SER79       0.2618
     93  O        -19.0780   10.3650   28.1090 O.2    79  SER79      -0.2717
     94  CB       -17.2890    7.8480   26.9300 C.3    79  SER79       0.2103
     95  OG       -16.8360    8.0860   28.2500 O.3    79  SER79      -0.2182
     96  N        -18.1740   10.7700   26.0750 N.am   80  ARG80      -0.1979
     97  CA       -18.0940   12.2300   26.2250 C.3    80  ARG80       0.1597
     98  C        -19.4700   12.8700   26.3540 C.2    80  ARG80       0.2287
     99  O        -19.7180   13.6390   27.2840 O.2    80  ARG80      -0.2864
    100  CB       -17.4040   12.8630   25.0090 C.3    80  ARG80       0.0334
    101  CG       -16.1350   13.6190   25.3070 C.3    80  ARG80       0.0492
    102  CD       -15.5930   14.3020   24.0570 C.3    80  ARG80       0.2205
    103  NE       -14.6650   13.4140   23.3800 N.pl3  80  ARG80      -0.0865
    104  CZ       -14.7560   13.0380   22.1010 C.cat  80  ARG80       0.5346
    105  NH1      -15.7340   13.5020   21.3210 N.pl3  80  ARG80       0.1354
    106  NH2      -13.8570   12.1960   21.5910 N.pl3  80  ARG80       0.1354
    107  N        -21.1700   11.9230   29.7090 N.3    83  GLN83      -0.1245
    108  CA       -20.5970   12.6780   30.8260 C.3    83  GLN83       0.1566
    109  C        -21.1140   14.1240   30.8630 C.2    83  GLN83       0.2260
    110  O        -21.4790   14.6420   31.9310 O.2    83  GLN83      -0.2867
    111  CB       -19.0690   12.6920   30.7360 C.3    83  GLN83       0.0367
    112  CG       -18.3910   11.4210   31.2070 C.3    83  GLN83       0.0905
    113  CD       -16.8860   11.4250   30.9480 C.2    83  GLN83       0.2608
    114  OE1      -16.4430   11.2200   29.8280 O.2    83  GLN83      -0.2717
    115  NE2      -16.1080   11.6350   31.9840 N.am   83  GLN83      -0.0878
@<TRIPOS>BOND
     1    44    43    1
     2   105   104    1
     3    43    42   ar
     4    43    41   ar
     5   106   104    1
     6    42    40   ar
     7    69    68   ar
     8    86    88   ar
     9    86    84   ar
    10   104   103    2
    11    41    39   ar
    12    88    89   ar
    13    79    80    1
    14    83    84    1
    15    83    80    1
    16    40    38   ar
    17    84    85   ar
    18    81    80    1
    19    81    82    2
    20    68    70   ar
    21    68    67    1
    22    65    64    2
    23   103   102    1
    24    39    38   ar
    25    89    87   ar
    26    66    67    1
    27    66    63    1
    28    64    63    1
    29    38    37    1
    30    74    73    2
    31    73    72    1
    32   102   101    1
    33    85    87   ar
    34    63    62    1
    35    37    34    1
    36   100   101    1
    37   100    97    1
    38    77    75    1
    39    72    71    1
    40    72    75    1
    41    90    91    1
    42    62    53   am
    43    75    76    1
    44    96    97    1
    45    96    92   am
    46    47    48    2
    47    47    46    1
    48    34    35    1
    49    34    33    1
    50    97    98    1
    51    54    53    2
    52    98    99    2
    53    53    52    1
    54    91    94    1
    55    91    92    1
    56    35    45   am
    57    35    36    2
    58    51    52    1
    59    94    95    1
    60    76    78    1
    61    45    46    1
    62    92    93    2
    63    33    27   am
    64    46    49    1
    65    11     9    1
    66    52    55    1
    67     8     9    2
    68     8     7    1
    69     9    10    1
    70     7     6    1
    71    27    28    2
    72    27    26    1
    73    55    56    1
    74    49    50    1
    75    25    26    1
    76    56    57    1
    77    29    26    1
    78    29    31    1
    79    29    30    1
    80     6     5    1
    81     5     2    1
    82   107   108    1
    83    57    58    1
    84   114   113    2
    85    30    32    1
    86    58    59    2
    87    60    59    1
    88    59    61    1
    89   111   108    1
    90   111   112    1
    91   108   109    1
    92   109   110    2
    93   113   112    1
    94   113   115   am
    95     2     3    1
    96     2     1    1
    97     3     4    2
    98    16    13    1
    99    13    12    1
   100    13    14    1
   101    14    15    2
   102    24    22    1
   103    23    21    1
   104    21    22    1
   105    21    18    1
   106    19    18    1
   107    19    20    2
   108    18    17    1
