@<TRIPOS>MOLECULE
tmp/6alaB00.pdb
 143 139 0 0 0
SMALL
GASTEIGER

@<TRIPOS>ATOM
      1  N         40.3630   13.3570   16.5770 N.3    27  TYR27      -0.1241
      2  CA        41.3380   12.2800   16.5500 C.3    27  TYR27       0.1605
      3  C         42.6570   12.8240   17.1500 C.2    27  TYR27       0.2264
      4  O         43.3390   13.6560   16.5390 O.2    27  TYR27      -0.2867
      5  CB        41.5920   11.8240   15.1030 C.3    27  TYR27       0.0534
      6  CG        40.4840   11.0870   14.4220 C.ar   27  TYR27      -0.0201
      7  CD1       39.3570   11.7380   13.9390 C.ar   27  TYR27      -0.0009
      8  CD2       40.5910    9.7240   14.1960 C.ar   27  TYR27      -0.0009
      9  CE1       38.3310   11.0270   13.2900 C.ar   27  TYR27       0.0417
     10  CE2       39.6060    9.0170   13.5310 C.ar   27  TYR27       0.0417
     11  CZ        38.4650    9.6610   13.0930 C.ar   27  TYR27       0.1957
     12  OH        37.5120    8.8780   12.4520 O.3    27  TYR27      -0.2866
     13  N         34.9330    7.1680   20.8660 N.3    55  HIS55      -0.1226
     14  CA        34.3170    6.4350   19.7890 C.3    55  HIS55       0.1752
     15  C         35.1180    5.1740   19.4890 C.2    55  HIS55       0.2596
     16  O         34.5160    4.1180   19.2940 O.2    55  HIS55      -0.2718
     17  CB        34.1900    7.3130   18.5450 C.3    55  HIS55       0.0759
     18  CG        33.7290    6.5740   17.3260 C.ar   55  HIS55       0.0818
     19  ND1       32.4000    6.3250   17.0680 N.ar   55  HIS55      -0.2268
     20  CD2       34.4210    6.0090   16.3090 C.ar   55  HIS55       0.1154
     21  CE1       32.2890    5.6480   15.9370 C.ar   55  HIS55       0.1986
     22  NE2       33.5000    5.4440   15.4590 N.ar   55  HIS55      -0.2212
     23  N         36.4530    5.2920   19.4420 N.am   56  ALA56      -0.1966
     24  CA        37.3260    4.1560   19.1610 C.3    56  ALA56       0.1728
     25  C         38.7920    4.4350   19.5300 C.2    56  ALA56       0.2616
     26  O         39.2110    5.5890   19.6630 O.2    56  ALA56      -0.2715
     27  CB        37.2200    3.7450   17.7010 C.3    56  ALA56       0.0334
     28  N         39.5490    3.3640   19.7600 N.am   57  MET57      -0.1963
     29  CA        40.9920    3.4530   19.7800 C.3    57  MET57       0.1736
     30  C         41.5890    2.4450   18.7930 C.2    57  MET57       0.2616
     31  O         41.0630    1.3210   18.6580 O.2    57  MET57      -0.2715
     32  CB        41.4840    3.1780   21.1810 C.3    57  MET57       0.0427
     33  CG        40.8350    4.0870   22.2170 C.3    57  MET57       0.0599
     34  SD        41.6380    3.8980   23.8000 S.3    57  MET57      -0.1393
     35  CE        41.1480    2.2200   24.2730 C.3    57  MET57       0.0692
     36  N         42.6270    2.8500   18.0720 N.am   58  LEU58      -0.1977
     37  CA        43.4740    1.8930   17.3220 C.3    58  LEU58       0.1596
     38  C         44.9000    1.9290   17.8090 C.2    58  LEU58       0.2287
     39  O         45.4170    3.0070   18.1570 O.2    58  LEU58      -0.2864
     40  CB        43.5250    2.2050   15.8480 C.3    58  LEU58       0.0297
     41  CG        42.2250    2.0820   15.0860 C.3    58  LEU58       0.0022
     42  CD1       42.3730    2.8730   13.7900 C.3    58  LEU58       0.0001
     43  CD2       41.9110    0.6300   14.8270 C.3    58  LEU58       0.0001
     44  N         39.4450   -1.1060   19.3700 N.3    89  TRP89      -0.1241
     45  CA        38.5020   -1.0720   20.5010 C.3    89  TRP89       0.1605
     46  C         37.3530   -0.1330   20.2220 C.2    89  TRP89       0.2264
     47  O         37.5410    0.9330   19.6530 O.2    89  TRP89      -0.2867
     48  CB        39.2130   -0.6530   21.8080 C.3    89  TRP89       0.0550
     49  CG        38.2880   -0.4840   23.0830 C.ar   89  TRP89       0.0003
     50  CD1       38.0930   -1.3980   24.0840 C.ar   89  TRP89       0.0946
     51  CD2       37.4760    0.6520   23.4330 C.ar   89  TRP89       0.0152
     52  NE1       37.2270   -0.9060   25.0230 N.ar   89  TRP89      -0.2442
     53  CE2       36.8420    0.3530   24.6570 C.ar   89  TRP89       0.0810
     54  CE3       37.2390    1.9110   22.8410 C.ar   89  TRP89       0.0012
     55  CZ2       35.9730    1.2640   25.2950 C.ar   89  TRP89       0.0191
     56  CZ3       36.3880    2.8100   23.4860 C.ar   89  TRP89       0.0001
     57  CH2       35.7700    2.4820   24.6900 C.ar   89  TRP89       0.0015
     58  N         45.9340    5.9020   18.5130 N.3   118  GLN118     -0.1245
     59  CA        44.9370    6.8200   17.9770 C.3   118  GLN118      0.1566
     60  C         43.6570    6.7770   18.8230 C.2   118  GLN118      0.2260
     61  O         42.9900    5.7670   18.8720 O.2   118  GLN118     -0.2867
     62  CB        44.5830    6.3940   16.5680 C.3   118  GLN118      0.0367
     63  CG        43.3330    7.0590   16.0420 C.3   118  GLN118      0.0905
     64  CD        43.1380    6.8810   14.5600 C.2   118  GLN118      0.2608
     65  OE1       42.0980    6.4180   14.1230 O.2   118  GLN118     -0.2717
     66  NE2       44.1150    7.2820   13.7890 N.am  118  GLN118     -0.0878
     67  N         39.9620    8.2160   18.9080 N.3   120  HIS120     -0.1241
     68  CA        38.8670    8.9370   18.2670 C.3   120  HIS120      0.1621
     69  C         37.7590    9.2210   19.3270 C.2   120  HIS120      0.2264
     70  O         36.9480    8.3420   19.6710 O.2   120  HIS120     -0.2867
     71  CB        38.3850    8.1350   17.0490 C.3   120  HIS120      0.0745
     72  CG        37.1790    8.6870   16.3770 C.ar  120  HIS120      0.0817
     73  ND1       36.6060    8.0660   15.3010 N.ar  120  HIS120     -0.2268
     74  CD2       36.4030    9.7560   16.6510 C.ar  120  HIS120      0.1154
     75  CE1       35.5230    8.7240   14.9370 C.ar  120  HIS120      0.1986
     76  NE2       35.3830    9.7600   15.7370 N.ar  120  HIS120     -0.2212
     77  N         36.9120   -9.0170   15.1510 N.3   188  ARG188     -0.1245
     78  CA        36.1940   -7.8750   15.6200 C.3   188  ARG188      0.1563
     79  C         35.4990   -7.2430   14.4540 C.2   188  ARG188      0.2260
     80  O         36.0590   -7.1400   13.3750 O.2   188  ARG188     -0.2867
     81  CB        37.1560   -6.8840   16.2150 C.3   188  ARG188      0.0307
     82  CG        36.5080   -5.5830   16.6340 C.3   188  ARG188      0.0489
     83  CD        37.5380   -4.7000   17.2760 C.3   188  ARG188      0.2205
     84  NE        37.0750   -3.3450   17.5770 N.pl3 188  ARG188     -0.0865
     85  CZ        37.0140   -2.3290   16.7300 C.cat 188  ARG188      0.5346
     86  NH1       37.3600   -2.4440   15.4540 N.pl3 188  ARG188      0.1354
     87  NH2       36.5820   -1.1650   17.1700 N.pl3 188  ARG188      0.1354
     88  N         32.9550   -3.8320   13.1600 N.3   190  HIS190     -0.1241
     89  CA        32.7450   -2.4340   13.4400 C.3   190  HIS190      0.1621
     90  C         31.8550   -1.7460   12.3980 C.2   190  HIS190      0.2264
     91  O         32.0700   -1.9100   11.1840 O.2   190  HIS190     -0.2867
     92  CB        34.0690   -1.6870   13.5060 C.3   190  HIS190      0.0745
     93  CG        33.8970   -0.2460   13.8180 C.ar  190  HIS190      0.0817
     94  ND1       33.6880    0.2140   15.0970 N.ar  190  HIS190     -0.2268
     95  CD2       33.7980    0.8280   13.0080 C.ar  190  HIS190      0.1154
     96  CE1       33.5260    1.5250   15.0690 C.ar  190  HIS190      0.1986
     97  NE2       33.5680    1.9190   13.8110 N.ar  190  HIS190     -0.2212
     98  N         29.0400    2.0320   12.5730 N.3   192  HIS192     -0.1241
     99  CA        28.4360    3.0810   13.4100 C.3   192  HIS192      0.1621
    100  C         26.9610    2.7620   13.5800 C.2   192  HIS192      0.2264
    101  O         26.6200    1.5810   13.5030 O.2   192  HIS192     -0.2867
    102  CB        28.7080    4.4520   12.8060 C.3   192  HIS192      0.0745
    103  CG        30.1600    4.7290   12.6290 C.ar  192  HIS192      0.0817
    104  ND1       30.6230    5.8140   11.9340 N.ar  192  HIS192     -0.2268
    105  CD2       31.2490    4.0610   13.0500 C.ar  192  HIS192      0.1154
    106  CE1       31.9360    5.8140   11.9480 C.ar  192  HIS192      0.1986
    107  NE2       32.3390    4.7620   12.6200 N.ar  192  HIS192     -0.2212
    108  N         32.8340    7.3950    6.1030 N.3   255  GLY255     -0.1210
    109  CA        33.4800    8.6120    6.6280 C.3   255  GLY255      0.1956
    110  C         34.0960    8.5730    8.0260 C.2   255  GLY255      0.2612
    111  O         34.0090    7.5630    8.7480 O.2   255  GLY255     -0.2717
    112  N         34.6990    9.7050    8.3910 N.am  256  GLY256     -0.1956
    113  CA        35.4410    9.8790    9.6430 C.3   256  GLY256      0.1869
    114  C         34.6290   10.1640   10.9150 C.2   256  GLY256      0.2309
    115  O         35.1850   10.0970   12.0280 O.2   256  GLY256     -0.2863
    116  N         30.8650    2.9960    8.4080 N.3   262  MET262     -0.1245
    117  CA        32.0700    2.2110    8.3000 C.3   262  MET262      0.1570
    118  C         31.6550    0.7480    8.3100 C.2   262  MET262      0.2261
    119  O         30.7270    0.3730    9.0240 O.2   262  MET262     -0.2867
    120  CB        32.9970    2.4940    9.4750 C.3   262  MET262      0.0387
    121  CG        34.4600    2.4650    9.1060 C.3   262  MET262      0.0595
    122  SD        34.8620    4.0160    8.3280 S.3   262  MET262     -0.1393
    123  CE        36.2370    3.5080    7.3470 C.3   262  MET262      0.0692
    124  N         33.8350   -2.6110    8.8500 N.3   264  ASN264     -0.1240
    125  CA        35.1470   -3.2260    9.0740 C.3   264  ASN264      0.1653
    126  C         35.0410   -4.5820    9.6560 C.2   264  ASN264      0.2266
    127  O         34.1950   -4.8140   10.5280 O.2   264  ASN264     -0.2867
    128  CB        36.0100   -2.4110   10.0320 C.3   264  ASN264      0.1155
    129  CG        36.1560   -0.9690    9.6090 C.2   264  ASN264      0.2627
    130  OD1       36.3200   -0.0930   10.4530 O.2   264  ASN264     -0.2716
    131  ND2       36.0730   -0.7050    8.3080 N.am  264  ASN264     -0.0877
    132  N         37.9910   -6.9750   11.3990 N.3   266  TYR266     -0.1241
    133  CA        39.3620   -7.1830   11.8160 C.3   266  TYR266      0.1605
    134  C         39.5130   -8.6720   12.1680 C.2   266  TYR266      0.2264
    135  O         38.7380   -9.1910   13.0160 O.2   266  TYR266     -0.2867
    136  CB        39.6490   -6.3440   13.0650 C.3   266  TYR266      0.0534
    137  CG        39.6880   -4.8640   12.8390 C.ar  266  TYR266     -0.0201
    138  CD1       38.5260   -4.1390   12.6000 C.ar  266  TYR266     -0.0009
    139  CD2       40.9020   -4.1770   12.8680 C.ar  266  TYR266     -0.0009
    140  CE1       38.5580   -2.7510   12.4010 C.ar  266  TYR266      0.0417
    141  CE2       40.9620   -2.8020   12.6700 C.ar  266  TYR266      0.0417
    142  CZ        39.7910   -2.0720   12.4260 C.ar  266  TYR266      0.1957
    143  OH        39.8800   -0.6900   12.2240 O.3   266  TYR266     -0.2866
@<TRIPOS>BOND
     1   108   109    1
     2   109   110    1
     3   123   122    1
     4   110   112   am
     5   110   111    2
     6   117   118    1
     7   117   116    1
     8   117   120    1
     9   131   129   am
    10   118   119    2
    11   122   121    1
    12   112   113    1
    13   124   125    1
    14   125   126    1
    15   125   128    1
    16   121   120    1
    17   129   128    1
    18   129   130    2
    19   113   114    1
    20   126   127    2
    21   114   115    2
    22    91    90    2
    23   132   133    1
    24   133   134    1
    25   133   136    1
    26   104   106   ar
    27   104   103   ar
    28   106   107   ar
    29   134   135    2
    30   143   142    1
    31    90    89    1
    32   140   142   ar
    33   140   138   ar
    34   142   141   ar
    35    12    11    1
    36    98    99    1
    37   138   137   ar
    38   107   105   ar
    39   103   102    1
    40   103   105   ar
    41   141   139   ar
    42   102    99    1
    43   137   139   ar
    44   137   136    1
    45    95    97   ar
    46    95    93   ar
    47    11     9   ar
    48    11    10   ar
    49    88    89    1
    50     9     7   ar
    51    80    79    2
    52    99   100    1
    53    89    92    1
    54   101   100    2
    55    92    93    1
    56    10     8   ar
    57    66    64   am
    58    42    41    1
    59    97    96   ar
    60    93    94   ar
    61     7     6   ar
    62    65    64    2
    63     8     6   ar
    64     6     5    1
    65    79    78    1
    66    64    63    1
    67    43    41    1
    68    75    73   ar
    69    75    76   ar
    70    96    94   ar
    71    41    40    1
    72     5     2    1
    73    77    78    1
    74    73    72   ar
    75    86    85    1
    76    22    21   ar
    77    22    20   ar
    78    78    81    1
    79    76    74   ar
    80    40    37    1
    81    21    19   ar
    82    63    62    1
    83    81    82    1
    84    20    18   ar
    85    72    74   ar
    86    72    71    1
    87     4     3    2
    88     2     1    1
    89     2     3    1
    90    62    59    1
    91    82    83    1
    92    85    87    1
    93    85    84    2
    94    71    68    1
    95    19    18   ar
    96    83    84    1
    97    37    38    1
    98    37    36    1
    99    18    17    1
   100    27    24    1
   101    38    39    2
   102    59    58    1
   103    59    60    1
   104    36    30   am
   105    68    67    1
   106    68    69    1
   107    17    14    1
   108    31    30    2
   109    30    29    1
   110    60    61    2
   111    24    23    1
   112    24    25    1
   113    16    15    2
   114    69    70    2
   115    44    45    1
   116    23    15   am
   117    15    14    1
   118    25    26    2
   119    25    28   am
   120    47    46    2
   121    28    29    1
   122    29    32    1
   123    14    13    1
   124    46    45    1
   125    45    48    1
   126    32    33    1
   127    48    49    1
   128    33    34    1
   129    54    51   ar
   130    54    56   ar
   131    49    51   ar
   132    49    50   ar
   133    51    53   ar
   134    56    57   ar
   135    34    35    1
   136    50    52   ar
   137    53    52   ar
   138    53    55   ar
   139    57    55   ar
