@<TRIPOS>MOLECULE
tmp/6albA01.pdb
 135 131 0 0 0
SMALL
GASTEIGER

@<TRIPOS>ATOM
      1  N         39.1330    3.7530   11.6430 N.3    27  PRO27      -0.2116
      2  CA        38.4580    4.7910   12.4230 C.3    27  PRO27       0.1372
      3  C         36.9350    4.7860   12.3230 C.2    27  PRO27       0.2244
      4  O         36.2790    5.6780   12.8540 O.2    27  PRO27      -0.2868
      5  CB        39.0070    6.0600   11.7910 C.3    27  PRO27       0.0268
      6  CG        39.0410    5.7040   10.3440 C.3    27  PRO27       0.0207
      7  CD        39.4150    4.2250   10.2770 C.3    27  PRO27       0.0892
      8  N         34.4980    5.4740   15.2180 N.3    30  LEU30      -0.1231
      9  CA        34.7370    6.5920   16.1270 C.3    30  LEU30       0.1678
     10  C         33.5830    7.5930   16.2320 C.2    30  LEU30       0.2434
     11  O         33.3210    8.0650   17.3490 O.2    30  LEU30      -0.2733
     12  CB        36.0520    7.2820   15.7340 C.3    30  LEU30       0.0284
     13  CG        37.2910    6.4810   16.1600 C.3    30  LEU30       0.0019
     14  CD1       38.6170    7.1180   15.6760 C.3    30  LEU30       0.0001
     15  CD2       37.3060    6.3160   17.6730 C.3    30  LEU30       0.0001
     16  N         32.8620    7.9590   15.1580 N.am   31  PRO31      -0.2718
     17  CA        31.6770    8.8160   15.3480 C.3    31  PRO31       0.1535
     18  C         30.5480    8.1290   16.0880 C.2    31  PRO31       0.2598
     19  O         29.5630    8.8030   16.4450 O.2    31  PRO31      -0.2715
     20  CB        31.2330    9.1490   13.9130 C.3    31  PRO31       0.0310
     21  CG        32.3290    8.7590   13.0310 C.3    31  PRO31       0.0237
     22  CD        33.0570    7.6420   13.7430 C.3    31  PRO31       0.0939
     23  N         30.6420    6.8130   16.2880 N.am   32  PHE32      -0.1974
     24  CA        29.5300    6.0230   16.7900 C.3    32  PHE32       0.1639
     25  C         29.7590    5.4450   18.1790 C.2    32  PHE32       0.2290
     26  O         28.8900    4.7220   18.6790 O.2    32  PHE32      -0.2864
     27  CB        29.2260    4.8980   15.8040 C.3    32  PHE32       0.0560
     28  CG        28.9190    5.3920   14.4170 C.ar   32  PHE32      -0.0200
     29  CD1       27.6470    5.8360   14.0940 C.ar   32  PHE32      -0.0042
     30  CD2       29.9190    5.4440   13.4460 C.ar   32  PHE32      -0.0042
     31  CE1       27.3760    6.3010   12.8130 C.ar   32  PHE32      -0.0003
     32  CE2       29.6570    5.9050   12.1750 C.ar   32  PHE32      -0.0003
     33  CZ        28.3880    6.3470   11.8470 C.ar   32  PHE32      -0.0000
     34  N         29.8550    6.9490   21.0930 N.3    34  GLN34      -0.1245
     35  CA        29.2500    7.7300   22.1540 C.3    34  GLN34       0.1566
     36  C         28.0590    8.4810   21.5620 C.2    34  GLN34       0.2260
     37  O         28.0030    8.6860   20.3450 O.2    34  GLN34      -0.2867
     38  CB        30.2590    8.7170   22.7510 C.3    34  GLN34       0.0367
     39  CG        30.8120    9.7070   21.7260 C.3    34  GLN34       0.0905
     40  CD        31.7570    9.0580   20.7060 C.2    34  GLN34       0.2608
     41  OE1       32.8030    8.5050   21.0710 O.2    34  GLN34      -0.2717
     42  NE2       31.3760    9.1040   19.4270 N.am   34  GLN34      -0.0878
     43  N         25.6420   11.1310   20.0150 N.3    36  VAL36      -0.1245
     44  CA        25.7570   12.4130   19.3230 C.3    36  VAL36       0.1561
     45  C         25.4850   13.5420   20.3090 C.2    36  VAL36       0.2260
     46  O         24.5100   13.4990   21.0700 O.2    36  VAL36      -0.2867
     47  CB        24.7760   12.4610   18.1340 C.3    36  VAL36       0.0252
     48  CG1       24.7960   13.8250   17.4370 C.3    36  VAL36       0.0019
     49  CG2       25.0790   11.3610   17.1300 C.3    36  VAL36       0.0019
     50  N         29.4810   19.2510   19.3210 N.3    41  LEU41      -0.1231
     51  CA        29.7890   19.2060   17.8960 C.3    41  LEU41       0.1693
     52  C         29.3060   20.4350   17.1350 C.2    41  LEU41       0.2593
     53  O         29.6130   20.5620   15.9450 O.2    41  LEU41      -0.2718
     54  CB        29.1700   17.9560   17.2630 C.3    41  LEU41       0.0284
     55  CG        29.5950   16.6020   17.8290 C.3    41  LEU41       0.0019
     56  CD1       28.6370   15.5290   17.3380 C.3    41  LEU41       0.0001
     57  CD2       31.0330   16.2580   17.4230 C.3    41  LEU41       0.0001
     58  N         28.5440   21.3210   17.7670 N.am   42  GLY42      -0.1942
     59  CA        28.1030   22.5220   17.0750 C.3    42  GLY42       0.2014
     60  C         27.2060   22.2630   15.8850 C.2    42  GLY42       0.2638
     61  O         27.3370   22.9350   14.8570 O.2    42  GLY42      -0.2714
     62  N         26.3000   21.2950   15.9980 N.am   43  ILE43      -0.1977
     63  CA        25.3170   21.0090   14.9500 C.3    43  ILE43       0.1596
     64  C         23.9340   21.1600   15.5640 C.2    43  ILE43       0.2287
     65  O         23.2860   20.1600   15.9110 O.2    43  ILE43      -0.2864
     66  CB        25.5130   19.6050   14.3690 C.3    43  ILE43       0.0276
     67  CG1       25.8220   18.6410   15.5150 C.3    43  ILE43       0.0022
     68  CG2       26.6170   19.6240   13.3190 C.3    43  ILE43       0.0022
     69  CD1       25.8790   17.1960   15.1270 C.3    43  ILE43       0.0001
     70  N         20.5050   18.9250   14.8840 N.3    46  TYR46      -0.1241
     71  CA        20.5470   17.4660   14.8200 C.3    46  TYR46       0.1605
     72  C         19.2220   16.8460   15.2280 C.2    46  TYR46       0.2264
     73  O         18.6680   16.0130   14.5030 O.2    46  TYR46      -0.2867
     74  CB        21.6740   16.9340   15.6950 C.3    46  TYR46       0.0534
     75  CG        21.8050   15.4300   15.6540 C.ar   46  TYR46      -0.0201
     76  CD1       22.5120   14.8020   14.6370 C.ar   46  TYR46      -0.0009
     77  CD2       21.2220   14.6420   16.6350 C.ar   46  TYR46      -0.0009
     78  CE1       22.6350   13.4360   14.5940 C.ar   46  TYR46       0.0417
     79  CE2       21.3430   13.2740   16.6060 C.ar   46  TYR46       0.0417
     80  CZ        22.0470   12.6770   15.5910 C.ar   46  TYR46       0.1957
     81  OH        22.1590   11.3140   15.5750 O.3    46  TYR46      -0.2866
     82  N         22.4690    8.0530   10.9960 N.3    85  ALA85      -0.1245
     83  CA        23.6720    8.6820   10.4490 C.3    85  ALA85       0.1562
     84  C         23.5720    8.8980    8.9460 C.2    85  ALA85       0.2260
     85  O         24.0850    9.8950    8.4300 O.2    85  ALA85      -0.2867
     86  CB        24.9050    7.8480   10.7760 C.3    85  ALA85       0.0290
     87  N         21.0930   12.0450    8.6330 N.3    88  TYR88      -0.1227
     88  CA        21.6190   13.3370    9.0450 C.3    88  TYR88       0.1736
     89  C         22.8030   13.7690    8.1860 C.2    88  TYR88       0.2595
     90  O         22.9020   14.9370    7.8010 O.2    88  TYR88      -0.2718
     91  CB        22.0240   13.3230   10.5170 C.3    88  TYR88       0.0548
     92  CG        22.5000   14.7020   10.8830 C.ar   88  TYR88      -0.0200
     93  CD1       21.5860   15.7260   11.1090 C.ar   88  TYR88      -0.0009
     94  CD2       23.8620   15.0090   10.9260 C.ar   88  TYR88      -0.0009
     95  CE1       22.0160   17.0090   11.4220 C.ar   88  TYR88       0.0417
     96  CE2       24.2980   16.3040   11.2210 C.ar   88  TYR88       0.0417
     97  CZ        23.3620   17.2930   11.4650 C.ar   88  TYR88       0.1957
     98  OH        23.7760   18.5690   11.7630 O.3    88  TYR88      -0.2866
     99  N         23.7310   12.8620    7.9050 N.am   89  ASN89      -0.1974
    100  CA        24.9660   13.2300    7.2250 C.3    89  ASN89       0.1688
    101  C         24.8400   13.1480    5.7100 C.2    89  ASN89       0.2292
    102  O         24.1010   12.3170    5.1650 O.2    89  ASN89      -0.2864
    103  CB        26.1080   12.3390    7.6980 C.3    89  ASN89       0.1181
    104  CG        26.2210   12.3230    9.2230 C.2    89  ASN89       0.2629
    105  OD1       26.9610   13.1210    9.8130 O.2    89  ASN89      -0.2716
    106  ND2       25.4510   11.4360    9.8690 N.am   89  ASN89      -0.0877
    107  N         32.6410   12.1510    5.5710 N.3    94  ARG94      -0.1231
    108  CA        33.3320   11.0910    6.2930 C.3    94  ARG94       0.1694
    109  C         32.3690   10.2420    7.1270 C.2    94  ARG94       0.2591
    110  O         32.4010    9.0050    7.0700 O.2    94  ARG94      -0.2718
    111  CB        34.3900   11.7340    7.1850 C.3    94  ARG94       0.0321
    112  CG        35.5070   10.8320    7.6450 C.3    94  ARG94       0.0489
    113  CD        36.7440   11.6660    7.8920 C.3    94  ARG94       0.2205
    114  NE        37.2930   12.0870    6.6090 N.pl3  94  ARG94      -0.0865
    115  CZ        38.3070   11.4810    6.0030 C.cat  94  ARG94       0.5346
    116  NH1       38.7380   11.9180    4.8240 N.pl3  94  ARG94       0.1354
    117  NH2       38.8990   10.4430    6.5850 N.pl3  94  ARG94       0.1354
    118  N         31.5120   10.8870    7.9210 N.am   95  VAL95      -0.1980
    119  CA        30.6740   10.1430    8.8640 C.3    95  VAL95       0.1595
    120  C         29.7780    9.1600    8.1150 C.2    95  VAL95       0.2287
    121  O         29.6180    8.0000    8.5270 O.2    95  VAL95      -0.2864
    122  CB        29.8610   11.1120    9.7460 C.3    95  VAL95       0.0276
    123  CG1       28.8310   10.3510   10.6100 C.3    95  VAL95       0.0022
    124  CG2       30.7910   11.9430   10.6610 C.3    95  VAL95       0.0022
    125  N         31.8180    6.2330    6.8260 N.3    98  PHE98      -0.1241
    126  CA        32.1100    5.3660    7.9720 C.3    98  PHE98       0.1605
    127  C         30.8970    4.4940    8.3040 C.2    98  PHE98       0.2264
    128  O         31.0290    3.2910    8.5690 O.2    98  PHE98      -0.2867
    129  CB        32.5080    6.1870    9.2030 C.3    98  PHE98       0.0534
    130  CG        33.9010    6.7860    9.1450 C.ar   98  PHE98      -0.0203
    131  CD1       34.7310    6.5870    8.0480 C.ar   98  PHE98      -0.0042
    132  CD2       34.3820    7.5260   10.2170 C.ar   98  PHE98      -0.0042
    133  CE1       36.0080    7.1370    8.0090 C.ar   98  PHE98      -0.0003
    134  CE2       35.6640    8.0820   10.1920 C.ar   98  PHE98      -0.0003
    135  CZ        36.4780    7.8880    9.0830 C.ar   98  PHE98      -0.0000
@<TRIPOS>BOND
     1   116   115    1
     2   102   101    2
     3   107   108    1
     4   101   100    1
     5   115   117    1
     6   115   114    2
     7   108   109    1
     8   108   111    1
     9   114   113    1
    10   125   126    1
    11   110   109    2
    12   109   118   am
    13   111   112    1
    14   100   103    1
    15   100    99    1
    16   112   113    1
    17   103   104    1
    18    90    89    2
    19    99    89   am
    20   118   119    1
    21   126   127    1
    22   126   129    1
    23   133   131   ar
    24   133   135   ar
    25   131   130   ar
    26   120   121    2
    27   120   119    1
    28    89    88    1
    29   127   128    2
    30    85    84    2
    31    87    88    1
    32   119   122    1
    33    84    83    1
    34    88    91    1
    35   135   134   ar
    36   130   129    1
    37   130   132   ar
    38   104   105    2
    39   104   106   am
    40   122   123    1
    41   122   124    1
    42   134   132   ar
    43     7     6    1
    44     7     1    1
    45     6     5    1
    46    83    86    1
    47    83    82    1
    48    91    92    1
    49    92    94   ar
    50    92    93   ar
    51    94    96   ar
    52    93    95   ar
    53    96    97   ar
    54    95    97   ar
    55    97    98    1
    56     1     2    1
    57     5     2    1
    58    33    32   ar
    59    33    31   ar
    60    32    30   ar
    61     3     2    1
    62     3     4    2
    63    31    29   ar
    64    21    22    1
    65    21    20    1
    66    68    66    1
    67    30    28   ar
    68    22    16    1
    69    20    17    1
    70    29    28   ar
    71    66    63    1
    72    66    67    1
    73    28    27    1
    74    73    72    2
    75    78    76   ar
    76    78    80   ar
    77    76    75   ar
    78    71    70    1
    79    71    72    1
    80    71    74    1
    81    61    60    2
    82    63    64    1
    83    63    62    1
    84    69    67    1
    85    16    17    1
    86    16    10   am
    87     8     9    1
    88    17    18    1
    89    64    65    2
    90    81    80    1
    91    80    79   ar
    92    75    74    1
    93    75    77   ar
    94    14    13    1
    95    12     9    1
    96    12    13    1
    97    27    24    1
    98    60    62   am
    99    60    59    1
   100    53    52    2
   101    18    23   am
   102    18    19    2
   103     9    10    1
   104    13    15    1
   105    10    11    2
   106    23    24    1
   107    79    77   ar
   108    24    25    1
   109    59    58    1
   110    49    47    1
   111    52    58   am
   112    52    51    1
   113    54    55    1
   114    54    51    1
   115    56    55    1
   116    57    55    1
   117    48    47    1
   118    51    50    1
   119    47    44    1
   120    25    26    2
   121    44    43    1
   122    44    45    1
   123    42    40   am
   124    45    46    2
   125    37    36    2
   126    40    41    2
   127    40    39    1
   128    34    35    1
   129    36    35    1
   130    39    38    1
   131    35    38    1
