@<TRIPOS>MOLECULE
tmp/6alcB00.pdb
 115 111 0 0 0
SMALL
GASTEIGER

@<TRIPOS>ATOM
      1  N         -6.7160   22.5680   26.2720 N.3    27  LEU27      -0.1231
      2  CA        -7.9240   21.8600   25.8460 C.3    27  LEU27       0.1678
      3  C         -7.6860   20.7110   24.8680 C.2    27  LEU27       0.2434
      4  O         -8.3560   19.6770   25.0260 O.2    27  LEU27      -0.2733
      5  CB        -9.0210   22.8080   25.3460 C.3    27  LEU27       0.0284
      6  CG        -9.4900   23.7730   26.4260 C.3    27  LEU27       0.0019
      7  CD1      -10.6300   24.6490   25.8930 C.3    27  LEU27       0.0001
      8  CD2       -9.9350   23.0280   27.6920 C.3    27  LEU27       0.0001
      9  N         -6.8140   20.8180   23.8640 N.am   28  PRO28      -0.2718
     10  CA        -6.5460   19.6400   23.0150 C.3    28  PRO28       0.1535
     11  C         -5.8800   18.5130   23.7660 C.2    28  PRO28       0.2598
     12  O         -5.7600   17.4310   23.1950 O.2    28  PRO28      -0.2715
     13  CB        -5.5550   20.1640   21.9640 C.3    28  PRO28       0.0310
     14  CG        -5.6930   21.6790   21.9940 C.3    28  PRO28       0.0237
     15  CD        -6.0850   22.0070   23.4080 C.3    28  PRO28       0.0939
     16  N         -5.3800   18.7450   24.9830 N.am   29  PHE29      -0.1974
     17  CA        -4.5580   17.7940   25.7040 C.3    29  PHE29       0.1639
     18  C         -5.2300   17.2210   26.9540 C.2    29  PHE29       0.2290
     19  O         -4.5890   16.4310   27.6550 O.2    29  PHE29      -0.2864
     20  CB        -3.2460   18.4830   26.1160 C.3    29  PHE29       0.0560
     21  CG        -2.5230   19.0840   24.9600 C.ar   29  PHE29      -0.0200
     22  CD1       -1.7130   18.2860   24.1590 C.ar   29  PHE29      -0.0042
     23  CD2       -2.7380   20.4170   24.5950 C.ar   29  PHE29      -0.0042
     24  CE1       -1.0560   18.8500   23.0560 C.ar   29  PHE29      -0.0003
     25  CE2       -2.1250   20.9690   23.4840 C.ar   29  PHE29      -0.0003
     26  CZ        -1.3070   20.1830   22.7010 C.ar   29  PHE29      -0.0000
     27  N         -6.3910   11.6810   22.6620 N.3    33  VAL33      -0.1245
     28  CA        -6.8520   11.9330   21.2980 C.3    33  VAL33       0.1561
     29  C         -7.7760   10.8030   20.8630 C.2    33  VAL33       0.2260
     30  O         -7.4290    9.6200   20.9680 O.2    33  VAL33      -0.2867
     31  CB        -5.6850   12.0880   20.3160 C.3    33  VAL33       0.0252
     32  CG1       -6.2420   12.3350   18.8850 C.3    33  VAL33       0.0019
     33  CG2       -4.7400   13.2320   20.7550 C.3    33  VAL33       0.0019
     34  N        -12.6810   12.9900   16.0570 N.3    38  LEU38      -0.1245
     35  CA       -12.1530   14.1410   15.3380 C.3    38  LEU38       0.1561
     36  C        -12.1020   13.9300   13.8380 C.2    38  LEU38       0.2260
     37  O        -11.8750   14.9030   13.1150 O.2    38  LEU38      -0.2867
     38  CB       -10.7440   14.4060   15.8300 C.3    38  LEU38       0.0270
     39  CG       -10.5750   14.9640   17.2460 C.3    38  LEU38       0.0019
     40  CD1       -9.1510   14.7490   17.7670 C.3    38  LEU38       0.0001
     41  CD2      -10.8830   16.4670   17.1920 C.3    38  LEU38       0.0001
     42  N         -9.8450   11.8680   12.1370 N.3    40  ILE40      -0.1245
     43  CA        -8.4270   11.8940   11.7470 C.3    40  ILE40       0.1561
     44  C         -7.8350   10.4850   11.7910 C.2    40  ILE40       0.2260
     45  O         -7.0010   10.1750   12.6640 O.2    40  ILE40      -0.2867
     46  CB        -7.5980   12.9130   12.5590 C.3    40  ILE40       0.0252
     47  CG1       -7.7610   12.7470   14.0990 C.3    40  ILE40       0.0019
     48  CG2       -7.8980   14.3330   12.1060 C.3    40  ILE40       0.0019
     49  CD1       -6.7440   13.5210   14.9880 C.3    40  ILE40       0.0001
     50  N         -4.0470    9.3380   12.6520 N.3    43  TYR43      -0.1241
     51  CA        -3.3870    9.7380   13.8940 C.3    43  TYR43       0.1605
     52  C         -2.5070    8.6220   14.4640 C.2    43  TYR43       0.2264
     53  O         -1.3260    8.8410   14.7640 O.2    43  TYR43      -0.2867
     54  CB        -4.4250   10.2710   14.9060 C.3    43  TYR43       0.0534
     55  CG        -3.7740   10.7720   16.1710 C.ar   43  TYR43      -0.0201
     56  CD1       -3.1710   12.0130   16.1950 C.ar   43  TYR43      -0.0009
     57  CD2       -3.6340    9.9640   17.3060 C.ar   43  TYR43      -0.0009
     58  CE1       -2.5140   12.4890   17.3570 C.ar   43  TYR43       0.0417
     59  CE2       -2.9480   10.4240   18.4670 C.ar   43  TYR43       0.0417
     60  CZ        -2.3820   11.6820   18.4630 C.ar   43  TYR43       0.1957
     61  OH        -1.7080   12.1320   19.5700 O.3    43  TYR43      -0.2866
     62  N          2.3460   16.0050   19.7300 N.3    82  ALA82      -0.1245
     63  CA         1.5360   17.0490   19.1130 C.3    82  ALA82       0.1562
     64  C          2.3380   17.8840   18.1110 C.2    82  ALA82       0.2260
     65  O          1.7970   18.2830   17.0720 O.2    82  ALA82      -0.2867
     66  CB         0.9120   17.9270   20.2060 C.3    82  ALA82       0.0290
     67  N          2.4460   15.5380   14.9530 N.3    85  TYR85      -0.1227
     68  CA         1.2190   15.2920   14.2140 C.3    85  TYR85       0.1736
     69  C          0.6630   16.5640   13.5940 C.2    85  TYR85       0.2595
     70  O          0.1980   16.5470   12.4340 O.2    85  TYR85      -0.2718
     71  CB         0.1740   14.6060   15.1200 C.3    85  TYR85       0.0548
     72  CG        -1.0770   14.3810   14.3160 C.ar   85  TYR85      -0.0200
     73  CD1       -1.1360   13.3330   13.3960 C.ar   85  TYR85      -0.0009
     74  CD2       -2.1460   15.2730   14.3680 C.ar   85  TYR85      -0.0009
     75  CE1       -2.2510   13.1640   12.5920 C.ar   85  TYR85       0.0417
     76  CE2       -3.2530   15.0930   13.5750 C.ar   85  TYR85       0.0417
     77  CZ        -3.3090   14.0230   12.7140 C.ar   85  TYR85       0.1957
     78  OH        -4.4060   13.8360   11.8730 O.3    85  TYR85      -0.2866
     79  N          0.7190   17.6850   14.2920 N.am   86  ASN86      -0.1974
     80  CA         0.0960   18.9180   13.8190 C.3    86  ASN86       0.1688
     81  C          1.0850   19.8200   13.0540 C.2    86  ASN86       0.2292
     82  O          2.3040   19.7410   13.2150 O.2    86  ASN86      -0.2864
     83  CB        -0.4770   19.6560   15.0260 C.3    86  ASN86       0.1181
     84  CG        -1.5070   18.8060   15.7740 C.2    86  ASN86       0.2629
     85  OD1       -2.6720   18.6990   15.3550 O.2    86  ASN86      -0.2716
     86  ND2       -1.0640   18.1600   16.8870 N.am   86  ASN86      -0.0877
     87  N         -3.4760   25.5970   15.2030 N.3    91  ARG91      -0.1231
     88  CA        -3.8530   25.9590   16.5650 C.3    91  ARG91       0.1694
     89  C         -3.2590   24.9840   17.5710 C.2    91  ARG91       0.2591
     90  O         -2.7080   25.3950   18.6010 O.2    91  ARG91      -0.2718
     91  CB        -5.3850   25.9570   16.6710 C.3    91  ARG91       0.0321
     92  CG        -5.9090   26.2990   18.0250 C.3    91  ARG91       0.0489
     93  CD        -7.4270   26.1980   17.9770 C.3    91  ARG91       0.2205
     94  NE        -7.9560   27.2580   17.1280 N.pl3  91  ARG91      -0.0865
     95  CZ        -8.9980   27.1360   16.3140 C.cat  91  ARG91       0.5346
     96  NH1       -9.6500   25.9830   16.2080 N.pl3  91  ARG91       0.1354
     97  NH2       -9.4160   28.1840   15.6110 N.pl3  91  ARG91       0.1354
     98  N         -3.3980   23.6790   17.3030 N.am   92  VAL92      -0.1980
     99  CA        -2.9460   22.6880   18.2750 C.3    92  VAL92       0.1595
    100  C         -1.4280   22.7540   18.4490 C.2    92  VAL92       0.2287
    101  O         -0.9080   22.6290   19.5630 O.2    92  VAL92      -0.2864
    102  CB        -3.4790   21.2710   17.9500 C.3    92  VAL92       0.0276
    103  CG1       -2.8470   20.2470   18.8780 C.3    92  VAL92       0.0022
    104  CG2       -5.0070   21.2180   18.0980 C.3    92  VAL92       0.0022
    105  N         -0.7510   25.8070   20.6280 N.3    95  PHE95      -0.1241
    106  CA        -1.1690   25.5550   22.0030 C.3    95  PHE95       0.1605
    107  C         -0.1310   24.6850   22.6950 C.2    95  PHE95       0.2264
    108  O          0.1870   24.9030   23.8690 O.2    95  PHE95      -0.2867
    109  CB        -2.5610   24.8840   22.0500 C.3    95  PHE95       0.0534
    110  CG        -3.7330   25.7980   21.7480 C.ar   95  PHE95      -0.0203
    111  CD1       -3.5670   27.1160   21.4050 C.ar   95  PHE95      -0.0042
    112  CD2       -5.0120   25.3090   21.8540 C.ar   95  PHE95      -0.0042
    113  CE1       -4.6690   27.9400   21.1490 C.ar   95  PHE95      -0.0003
    114  CE2       -6.1210   26.1220   21.5850 C.ar   95  PHE95      -0.0003
    115  CZ        -5.9350   27.4380   21.2490 C.ar   95  PHE95      -0.0000
@<TRIPOS>BOND
     1    43    44    1
     2    43    42    1
     3    43    46    1
     4    44    45    2
     5    78    77    1
     6    48    46    1
     7    70    69    2
     8    46    47    1
     9    75    77   ar
    10    75    73   ar
    11    50    51    1
    12    77    76   ar
    13    81    82    2
    14    81    80    1
    15    37    36    2
    16    73    72   ar
    17    76    74   ar
    18    69    68    1
    19    69    79   am
    20    80    79    1
    21    80    83    1
    22    36    35    1
    23    51    52    1
    24    51    54    1
    25    47    49    1
    26    68    67    1
    27    68    71    1
    28    72    74   ar
    29    72    71    1
    30    52    53    2
    31    54    55    1
    32    83    84    1
    33    87    88    1
    34    35    38    1
    35    35    34    1
    36    85    84    2
    37    97    95    1
    38    84    86   am
    39    38    39    1
    40    55    56   ar
    41    55    57   ar
    42    56    58   ar
    43    96    95    1
    44    95    94    2
    45    88    91    1
    46    88    89    1
    47    91    92    1
    48    65    64    2
    49    94    93    1
    50    41    39    1
    51    39    40    1
    52    98    89   am
    53    98    99    1
    54    57    59   ar
    55    58    60   ar
    56    89    90    2
    57   102   104    1
    58   102    99    1
    59   102   103    1
    60    93    92    1
    61    64    63    1
    62    99   100    1
    63   100   101    2
    64    60    59   ar
    65    60    61    1
    66    32    31    1
    67    63    62    1
    68    63    66    1
    69    31    33    1
    70    31    28    1
    71   105   106    1
    72    29    30    2
    73    29    28    1
    74   113   115   ar
    75   113   111   ar
    76   115   114   ar
    77    28    27    1
    78   111   110   ar
    79   114   112   ar
    80   110   112   ar
    81   110   109    1
    82    13    14    1
    83    13    10    1
    84    14    15    1
    85   106   109    1
    86   106   107    1
    87   107   108    2
    88    26    24   ar
    89    26    25   ar
    90    10    11    1
    91    10     9    1
    92    24    22   ar
    93    12    11    2
    94    15     9    1
    95    25    23   ar
    96    11    16   am
    97     9     3   am
    98    22    21   ar
    99    23    21   ar
   100     3     4    2
   101     3     2    1
   102    21    20    1
   103    16    17    1
   104     5     2    1
   105     5     6    1
   106    17    20    1
   107    17    18    1
   108     2     1    1
   109     7     6    1
   110     6     8    1
   111    18    19    2
