@<TRIPOS>MOLECULE
tmp/6aljD00.pdb
 179 170 0 0 0
SMALL
GASTEIGER

@<TRIPOS>ATOM
      1  N        449.8380 -121.0010   92.9740 N.3   112  VAL112     -0.1245
      2  CA       448.4400 -121.3530   92.7220 C.3   112  VAL112      0.1561
      3  C        448.2880 -122.8700   92.6220 C.2   112  VAL112      0.2260
      4  O        447.7100 -123.4920   93.5220 O.2   112  VAL112     -0.2867
      5  CB       447.8980 -120.6300   91.4710 C.3   112  VAL112      0.0252
      6  CG1      446.4460 -120.9980   91.2270 C.3   112  VAL112      0.0019
      7  CG2      448.0450 -119.1030   91.6540 C.3   112  VAL112      0.0019
      8  N        446.9820 -125.4150   95.6460 N.3   116  GLY116     -0.1225
      9  CA       445.7490 -126.1900   95.5190 C.3   116  GLY116      0.1811
     10  C        445.9530 -127.6900   95.6920 C.2   116  GLY116      0.2280
     11  O        445.1140 -128.3740   96.2890 O.2   116  GLY116     -0.2866
     12  N        446.5510 -128.2810   99.5230 N.3   119  LYS119     -0.1231
     13  CA       445.3010 -128.0810  100.2610 C.3   119  LYS119      0.1693
     14  C        444.2650 -129.1540   99.9590 C.2   119  LYS119      0.2592
     15  O        443.4720 -129.5110  100.8400 O.2   119  LYS119     -0.2718
     16  CB       444.7270 -126.7000   99.9400 C.3   119  LYS119      0.0285
     17  CG       445.4740 -125.5810  100.6570 C.3   119  LYS119      0.0035
     18  CD       444.7820 -124.2510  100.4820 C.3   119  LYS119      0.0206
     19  CE       445.4950 -123.2010  101.3220 C.3   119  LYS119      0.1093
     20  NZ       444.8280 -121.8620  101.2730 N.3   119  LYS119     -0.1314
     21  N        444.2280 -129.6530   98.7240 N.am  120  THR120     -0.1953
     22  CA       443.2800 -130.7160   98.3800 C.3   120  THR120      0.1897
     23  C        443.6010 -132.0080   99.1290 C.2   120  THR120      0.2313
     24  O        442.6990 -132.6760   99.6490 O.2   120  THR120     -0.2863
     25  CB       443.2970 -130.9430   96.8670 C.3   120  THR120      0.1794
     26  OG1      442.7480 -129.7860   96.2070 O.3   120  THR120     -0.2208
     27  CG2      442.4920 -132.1650   96.4820 C.3   120  THR120      0.0378
     28  N        445.7060 -129.0240   81.0390 N.3   161  ASN161     -0.1225
     29  CA       445.7280 -127.6060   81.4340 C.3   161  ASN161      0.1785
     30  C        446.0260 -127.3900   82.9210 C.2   161  ASN161      0.2597
     31  O        446.5470 -126.3390   83.2990 O.2   161  ASN161     -0.2718
     32  CB       444.4050 -126.9190   81.0520 C.3   161  ASN161      0.1169
     33  CG       443.1990 -127.5830   81.6720 C.2   161  ASN161      0.2627
     34  OD1      443.1790 -128.7930   81.8590 O.2   161  ASN161     -0.2716
     35  ND2      442.1740 -126.7920   81.9830 N.am  161  ASN161     -0.0877
     36  N        445.7290 -128.3600   83.7720 N.am  162  PHE162     -0.1976
     37  CA       446.1320 -128.3300   85.1810 C.3   162  PHE162      0.1639
     38  C        446.6130 -129.7300   85.5240 C.2   162  PHE162      0.2290
     39  O        445.9220 -130.4800   86.2150 O.2   162  PHE162     -0.2864
     40  CB       444.9670 -127.9120   86.0850 C.3   162  PHE162      0.0560
     41  CG       444.6320 -126.4560   85.9970 C.ar  162  PHE162     -0.0200
     42  CD1      443.6960 -125.9970   85.0690 C.ar  162  PHE162     -0.0042
     43  CD2      445.2730 -125.5320   86.8230 C.ar  162  PHE162     -0.0042
     44  CE1      443.3940 -124.6460   84.9710 C.ar  162  PHE162     -0.0003
     45  CE2      444.9670 -124.1660   86.7330 C.ar  162  PHE162     -0.0003
     46  CZ       444.0290 -123.7290   85.8110 C.ar  162  PHE162     -0.0000
     47  N        447.2740 -130.4120   89.4350 N.3   165  LEU165     -0.1231
     48  CA       446.1040 -130.0960   90.2440 C.3   165  LEU165      0.1693
     49  C        444.9530 -131.0550   89.9590 C.2   165  LEU165      0.2591
     50  O        444.2970 -131.5380   90.8900 O.2   165  LEU165     -0.2718
     51  CB       445.6830 -128.6520   90.0100 C.3   165  LEU165      0.0284
     52  CG       444.5710 -128.1200   90.9050 C.3   165  LEU165      0.0019
     53  CD1      445.0220 -128.1450   92.3410 C.3   165  LEU165      0.0001
     54  CD2      444.2290 -126.6900   90.4720 C.3   165  LEU165      0.0001
     55  N        444.6790 -131.3450   88.6830 N.am  166  MET166     -0.1979
     56  CA       443.5940 -132.2780   88.3800 C.3   166  MET166      0.1605
     57  C        443.9320 -133.6860   88.8430 C.2   166  MET166      0.2287
     58  O        443.0340 -134.4320   89.2590 O.2   166  MET166     -0.2864
     59  CB       443.2790 -132.2710   86.8830 C.3   166  MET166      0.0413
     60  CG       442.1730 -131.2990   86.4940 C.3   166  MET166      0.0598
     61  SD       442.5240 -130.4620   84.9460 S.3   166  MET166     -0.1393
     62  CE       441.2440 -129.2090   84.8570 C.3   166  MET166      0.0692
     63  N        442.9090 -133.4810   92.4000 N.3   169  TRP169     -0.1241
     64  CA       441.4570 -133.4230   92.5220 C.3   169  TRP169      0.1605
     65  C        440.8450 -134.7930   92.3130 C.2   169  TRP169      0.2264
     66  O        439.8240 -135.1280   92.9160 O.2   169  TRP169     -0.2867
     67  CB       440.8660 -132.4590   91.4930 C.3   169  TRP169      0.0550
     68  CG       440.9580 -131.0170   91.8350 C.ar  169  TRP169      0.0003
     69  CD1      441.7890 -130.4300   92.7420 C.ar  169  TRP169      0.0946
     70  CD2      440.2020 -129.9680   91.2430 C.ar  169  TRP169      0.0152
     71  NE1      441.5940 -129.0620   92.7560 N.ar  169  TRP169     -0.2442
     72  CE2      440.6210 -128.7570   91.8410 C.ar  169  TRP169      0.0810
     73  CE3      439.1900 -129.9310   90.2740 C.ar  169  TRP169      0.0012
     74  CZ2      440.0630 -127.5240   91.5020 C.ar  169  TRP169      0.0191
     75  CZ3      438.6380 -128.7020   89.9320 C.ar  169  TRP169      0.0001
     76  CH2      439.0730 -127.5160   90.5490 C.ar  169  TRP169      0.0015
     77  N        437.8600 -135.3970   82.8760 N.3   236  THR236     -0.1218
     78  CA       437.8880 -133.9530   82.6820 C.3   236  THR236      0.1862
     79  C        438.5300 -133.6770   81.3320 C.2   236  THR236      0.2287
     80  O        439.6360 -134.1570   81.0670 O.2   236  THR236     -0.2866
     81  CB       438.6680 -133.2490   83.8000 C.3   236  THR236      0.1770
     82  OG1      438.0590 -133.5490   85.0670 O.3   236  THR236     -0.2211
     83  CG2      438.6690 -131.7400   83.5820 C.3   236  THR236      0.0375
     84  N        433.6790 -133.4950   83.8730 N.3   260  GLU260     -0.1245
     85  CA       433.8420 -132.0460   83.8970 C.3   260  GLU260      0.1567
     86  C        434.3040 -131.6190   82.5150 C.2   260  GLU260      0.2260
     87  O        435.3930 -132.0070   82.0820 O.2   260  GLU260     -0.2867
     88  CB       434.8410 -131.6030   84.9710 C.3   260  GLU260      0.0388
     89  CG       434.8560 -130.0460   85.2470 C.3   260  GLU260      0.1160
     90  CD       435.0730 -129.1410   83.9900 C.2   260  GLU260      0.3649
     91  OE1      434.1450 -128.3860   83.6230 O.co2 260  GLU260     -0.2457
     92  OE2      436.1410 -129.1890   83.3410 O.co2 260  GLU260     -0.2457
     93  N        443.6060 -116.0880   82.9590 N.3   288  PHE288     -0.1241
     94  CA       444.3470 -116.9510   83.8700 C.3   288  PHE288      0.1605
     95  C        444.7410 -118.2540   83.1790 C.2   288  PHE288      0.2264
     96  O        443.9610 -118.8220   82.4140 O.2   288  PHE288     -0.2867
     97  CB       443.5150 -117.2510   85.1040 C.3   288  PHE288      0.0534
     98  CG       444.1810 -118.2070   86.0520 C.ar  288  PHE288     -0.0203
     99  CD1      445.4180 -117.9090   86.5940 C.ar  288  PHE288     -0.0042
    100  CD2      443.5830 -119.4010   86.3710 C.ar  288  PHE288     -0.0042
    101  CE1      446.0520 -118.7950   87.4490 C.ar  288  PHE288     -0.0003
    102  CE2      444.2130 -120.2900   87.2330 C.ar  288  PHE288     -0.0003
    103  CZ       445.4350 -119.9820   87.7660 C.ar  288  PHE288     -0.0000
    104  N        441.3640 -122.6080   80.8220 N.3   293  CYS293     -0.1221
    105  CA       440.6840 -122.9280   82.0580 C.3   293  CYS293      0.1808
    106  C        439.1970 -123.0900   81.8110 C.2   293  CYS293      0.2601
    107  O        438.5740 -122.2240   81.1930 O.2   293  CYS293     -0.2717
    108  CB       440.9540 -121.8380   83.0760 C.3   293  CYS293      0.0970
    109  SG       440.2390 -122.2030   84.6450 S.3   293  CYS293     -0.0800
    110  N        438.6350 -124.2050   82.2810 N.am  294  CYS294     -0.1956
    111  CA       437.1990 -124.5250   82.0130 C.3   294  CYS294      0.1843
    112  C        436.2990 -123.4590   82.5930 C.2   294  CYS294      0.2626
    113  O        435.1640 -123.2960   82.0940 O.2   294  CYS294     -0.2714
    114  CB       436.8010 -125.8930   82.5530 C.3   294  CYS294      0.0997
    115  SG       436.9550 -126.0590   84.3050 S.3   294  CYS294     -0.0797
    116  N        436.7900 -122.7130   83.5880 N.am  295  THR295     -0.1950
    117  CA       435.9860 -121.6870   84.2530 C.3   295  THR295      0.1897
    118  C        436.0390 -120.3070   83.5870 C.2   295  THR295      0.2313
    119  O        435.4360 -119.3550   84.0920 O.2   295  THR295     -0.2863
    120  CB       436.4450 -121.4890   85.6940 C.3   295  THR295      0.1794
    121  OG1      437.8050 -121.0650   85.6700 O.3   295  THR295     -0.2208
    122  CG2      436.3050 -122.8090   86.5120 C.3   295  THR295      0.0378
    123  N        436.7610 -116.9620   89.9100 N.3   449  ASN449     -0.1240
    124  CA       437.7560 -118.0290   90.0760 C.3   449  ASN449      0.1653
    125  C        438.1390 -118.2280   91.5380 C.2   449  ASN449      0.2266
    126  O        439.2850 -118.5700   91.8400 O.2   449  ASN449     -0.2867
    127  CB       439.0190 -117.7630   89.2390 C.3   449  ASN449      0.1155
    128  CG       438.9030 -118.3350   87.8150 C.2   449  ASN449      0.2627
    129  OD1      438.0330 -119.1500   87.5450 O.2   449  ASN449     -0.2716
    130  ND2      439.7760 -117.9030   86.9150 N.am  449  ASN449     -0.0877
    131  N        438.0050 -120.5680   94.0800 N.3   451  LEU451     -0.1231
    132  CA       437.7560 -121.9890   94.2440 C.3   451  LEU451      0.1693
    133  C        438.4630 -122.4340   95.5150 C.2   451  LEU451      0.2592
    134  O        439.5720 -121.9810   95.7980 O.2   451  LEU451     -0.2718
    135  CB       438.2410 -122.7780   93.0250 C.3   451  LEU451      0.0284
    136  CG       437.4720 -122.6100   91.7030 C.3   451  LEU451      0.0019
    137  CD1      437.8590 -123.7250   90.7680 C.3   451  LEU451      0.0001
    138  CD2      435.9880 -122.7160   91.9670 C.3   451  LEU451      0.0001
    139  N        437.8040 -123.2770   96.3020 N.am  452  ASN452     -0.1960
    140  CA       438.3380 -123.7000   97.5930 C.3   452  ASN452      0.1819
    141  C        438.1380 -125.1960   97.7390 C.2   452  ASN452      0.2621
    142  O        437.1700 -125.7480   97.2180 O.2   452  ASN452     -0.2715
    143  CB       437.6560 -122.9570   98.7490 C.3   452  ASN452      0.1195
    144  CG       438.1820 -121.5540   98.9020 C.2   452  ASN452      0.2630
    145  OD1      439.3530 -121.3570   99.2150 O.2   452  ASN452     -0.2716
    146  ND2      437.3440 -120.5650   98.6010 N.am  452  ASN452     -0.0877
    147  N        439.0650 -125.8510   98.4500 N.am  453  ALA453     -0.1977
    148  CA       438.9350 -127.2890   98.6850 C.3   453  ALA453      0.1597
    149  C        437.5990 -127.6440   99.3300 C.2   453  ALA453      0.2287
    150  O        437.0480 -128.7220   99.0680 O.2   453  ALA453     -0.2864
    151  CB       440.0980 -127.7960   99.5520 C.3   453  ALA453      0.0319
    152  N        432.2140 -128.2240   93.2000 N.3   457  PHE457     -0.1241
    153  CA       432.4100 -127.6120   91.8900 C.3   457  PHE457      0.1605
    154  C        431.9760 -128.5830   90.7950 C.2   457  PHE457      0.2264
    155  O        432.3300 -129.7650   90.8390 O.2   457  PHE457     -0.2867
    156  CB       433.8880 -127.2290   91.7340 C.3   457  PHE457      0.0534
    157  CG       434.2430 -126.7380   90.3770 C.ar  457  PHE457     -0.0203
    158  CD1      434.0740 -125.4070   90.0470 C.ar  457  PHE457     -0.0042
    159  CD2      434.7430 -127.6120   89.4190 C.ar  457  PHE457     -0.0042
    160  CE1      434.3930 -124.9460   88.7770 C.ar  457  PHE457     -0.0003
    161  CE2      435.0660 -127.1590   88.1390 C.ar  457  PHE457     -0.0003
    162  CZ       434.8920 -125.8260   87.8220 C.ar  457  PHE457     -0.0000
    163  N        432.8230 -132.2060   92.3050 N.3   468  GLU468     -0.1231
    164  CA       434.1310 -132.4460   92.8910 C.3   468  GLU468      0.1699
    165  C        434.4080 -131.3910   93.9570 C.2   468  GLU468      0.2592
    166  O        433.8600 -130.2860   93.9160 O.2   468  GLU468     -0.2718
    167  CB       435.2410 -132.3800   91.8340 C.3   468  GLU468      0.0402
    168  CG       435.2000 -133.4710   90.7730 C.3   468  GLU468      0.1161
    169  CD       436.2380 -133.2060   89.6940 C.2   468  GLU468      0.3649
    170  OE1      435.9790 -132.3620   88.7920 O.co2 468  GLU468     -0.2457
    171  OE2      437.3240 -133.8170   89.7700 O.co2 468  GLU468     -0.2457
    172  N        435.3210 -131.7270   94.8700 N.am  469  MET469     -0.1979
    173  CA       435.7300 -130.8990   96.0020 C.3   469  MET469      0.1605
    174  C        434.6250 -130.8630   97.0560 C.2   469  MET469      0.2287
    175  O        433.5060 -131.3280   96.8160 O.2   469  MET469     -0.2864
    176  CB       436.1240 -129.4730   95.5580 C.3   469  MET469      0.0413
    177  CG       437.2760 -129.4290   94.5560 C.3   469  MET469      0.0598
    178  SD       438.6270 -130.5550   95.0040 S.3   469  MET469     -0.1393
    179  CE       439.4760 -129.5990   96.2140 C.3   469  MET469      0.0692
@<TRIPOS>BOND
     1   104   105    1
     2    28    29    1
     3    32    29    1
     4    32    33    1
     5    80    79    2
     6   107   106    2
     7    79    78    1
     8    29    30    1
     9    33    34    2
    10    33    35   am
    11   106   105    1
    12   106   110   am
    13   111   110    1
    14   111   114    1
    15   111   112    1
    16   105   108    1
    17    87    86    2
    18   113   112    2
    19    96    95    2
    20    86    85    1
    21   114   115    1
    22   112   116   am
    23    78    77    1
    24    78    81    1
    25    30    31    2
    26    30    36   am
    27    93    94    1
    28   108   109    1
    29    95    94    1
    30    92    90   ar
    31    83    81    1
    32   118   119    2
    33   118   117    1
    34   116   117    1
    35    91    90   ar
    36    36    37    1
    37    81    82    1
    38    94    97    1
    39    84    85    1
    40    85    88    1
    41    90    89    1
    42   117   120    1
    43    62    61    1
    44    61    60    1
    45    44    42   ar
    46    44    46   ar
    47    88    89    1
    48    42    41   ar
    49    97    98    1
    50    37    38    1
    51    37    40    1
    52    38    39    2
    53   121   120    1
    54   120   122    1
    55    46    45   ar
    56    41    40    1
    57    41    43   ar
    58    98   100   ar
    59    98    99   ar
    60   100   102   ar
    61    60    59    1
    62    99   101   ar
    63    45    43   ar
    64    59    56    1
    65   130   128   am
    66   102   103   ar
    67   101   103   ar
    68   129   128    2
    69   128   127    1
    70   162   161   ar
    71   162   160   ar
    72   161   159   ar
    73    56    55    1
    74    56    57    1
    75    55    49   am
    76   160   158   ar
    77   170   169   ar
    78    57    58    2
    79   127   124    1
    80   159   157   ar
    81    47    48    1
    82   169   171   ar
    83   169   168    1
    84   123   124    1
    85    75    73   ar
    86    75    76   ar
    87    49    48    1
    88    49    50    2
    89    51    48    1
    90    51    52    1
    91   158   157   ar
    92   124   125    1
    93    73    70   ar
    94   157   156    1
    95    54    52    1
    96    76    74   ar
    97   137   136    1
    98   168   167    1
    99   154   155    2
   100   154   153    1
   101    52    53    1
   102     6     5    1
   103    70    68   ar
   104    70    72   ar
   105     5     7    1
   106     5     2    1
   107    67    68    1
   108    67    64    1
   109    74    72   ar
   110   125   126    2
   111   136   138    1
   112   136   135    1
   113   156   153    1
   114   167   164    1
   115    68    69   ar
   116    72    71   ar
   117   153   152    1
   118   163   164    1
   119    65    64    1
   120    65    66    2
   121    63    64    1
   122     3     2    1
   123     3     4    2
   124     2     1    1
   125    69    71   ar
   126   164   165    1
   127   135   132    1
   128   166   165    2
   129   165   172   am
   130   131   132    1
   131   132   133    1
   132   177   178    1
   133   177   176    1
   134   172   173    1
   135   178   179    1
   136   133   134    2
   137   133   139   am
   138     9     8    1
   139     9    10    1
   140   176   173    1
   141    10    11    2
   142   173   174    1
   143    26    25    1
   144   139   140    1
   145    27    25    1
   146   175   174    2
   147    25    22    1
   148   142   141    2
   149   140   141    1
   150   140   143    1
   151   141   147   am
   152    22    21    1
   153    22    23    1
   154   147   148    1
   155   146   144   am
   156   148   149    1
   157   148   151    1
   158    21    14   am
   159   143   144    1
   160   144   145    2
   161   150   149    2
   162    23    24    2
   163    12    13    1
   164    16    13    1
   165    16    17    1
   166    14    13    1
   167    14    15    2
   168    18    17    1
   169    18    19    1
   170    20    19    1
