@<TRIPOS>MOLECULE
tmp/6allA00.pdb
 179 175 0 0 0
SMALL
GASTEIGER

@<TRIPOS>ATOM
      1  N         46.4080   37.9160   44.4330 N.3    23  GLU23      -0.1231
      2  CA        45.9990   37.5900   43.0800 C.3    23  GLU23       0.1699
      3  C         46.4440   38.7130   42.1590 C.2    23  GLU23       0.2592
      4  O         46.5730   39.8670   42.5740 O.2    23  GLU23      -0.2718
      5  CB        44.4830   37.3620   42.9750 C.3    23  GLU23       0.0402
      6  CG        44.0510   36.6590   41.6960 C.3    23  GLU23       0.1161
      7  CD        44.8920   35.4230   41.4050 C.2    23  GLU23       0.3649
      8  OE1       44.6690   34.3800   42.0700 O.co2  23  GLU23      -0.2457
      9  OE2       45.7880   35.5060   40.5260 O.co2  23  GLU23      -0.2457
     10  N         46.6810   38.3630   40.9000 N.am   24  TRP24      -0.1976
     11  CA        47.3030   39.3140   39.9890 C.3    24  TRP24       0.1640
     12  C         46.3590   40.4560   39.6280 C.2    24  TRP24       0.2290
     13  O         46.7840   41.6190   39.5850 O.2    24  TRP24      -0.2864
     14  CB        47.7970   38.5810   38.7440 C.3    24  TRP24       0.0576
     15  CG        48.9440   37.6540   39.0560 C.ar   24  TRP24       0.0006
     16  CD1       49.6750   37.6160   40.2090 C.ar   24  TRP24       0.0946
     17  CD2       49.4790   36.6270   38.2090 C.ar   24  TRP24       0.0152
     18  NE1       50.6350   36.6360   40.1290 N.ar   24  TRP24      -0.2442
     19  CE2       50.5370   36.0160   38.9110 C.ar   24  TRP24       0.0810
     20  CE3       49.1710   36.1720   36.9220 C.ar   24  TRP24       0.0012
     21  CZ2       51.2860   34.9730   38.3700 C.ar   24  TRP24       0.0191
     22  CZ3       49.9170   35.1400   36.3850 C.ar   24  TRP24       0.0001
     23  CH2       50.9600   34.5500   37.1080 C.ar   24  TRP24       0.0015
     24  N         56.8340   35.5030   37.1350 N.3    45  ASN45      -0.1240
     25  CA        55.9640   35.2850   35.9860 C.3    45  ASN45       0.1653
     26  C         54.6620   36.0840   36.0650 C.2    45  ASN45       0.2266
     27  O         53.8900   36.0670   35.1040 O.2    45  ASN45      -0.2867
     28  CB        55.6730   33.7950   35.8260 C.3    45  ASN45       0.1155
     29  CG        55.4640   33.1250   37.1400 C.2    45  ASN45       0.2627
     30  OD1       55.4700   33.7860   38.1700 O.2    45  ASN45      -0.2716
     31  ND2       55.2820   31.8180   37.1270 N.am   45  ASN45      -0.0877
     32  N         53.6360   37.2320   32.7300 N.3    49  TRP49      -0.1241
     33  CA        52.3440   36.9140   32.1360 C.3    49  TRP49       0.1605
     34  C         51.3590   38.0720   32.1310 C.2    49  TRP49       0.2264
     35  O         50.4730   38.1100   31.2690 O.2    49  TRP49      -0.2867
     36  CB        51.7070   35.7220   32.8530 C.3    49  TRP49       0.0550
     37  CG        52.4780   34.4560   32.6790 C.ar   49  TRP49       0.0003
     38  CD1       52.8400   33.5850   33.6620 C.ar   49  TRP49       0.0946
     39  CD2       52.9820   33.9090   31.4500 C.ar   49  TRP49       0.0152
     40  NE1       53.5410   32.5310   33.1270 N.ar   49  TRP49      -0.2442
     41  CE2       53.6410   32.7050   31.7720 C.ar   49  TRP49       0.0810
     42  CE3       52.9400   34.3180   30.1110 C.ar   49  TRP49       0.0012
     43  CZ2       54.2600   31.9070   30.8040 C.ar   49  TRP49       0.0191
     44  CZ3       53.5580   33.5240   29.1510 C.ar   49  TRP49       0.0001
     45  CH2       54.2080   32.3320   29.5050 C.ar   49  TRP49       0.0015
     46  N         50.4480   32.1000   44.4790 N.3    66  ARG66      -0.1245
     47  CA        49.0310   32.3780   44.6680 C.3    66  ARG66       0.1563
     48  C         48.3140   31.1540   45.2210 C.2    66  ARG66       0.2260
     49  O         47.3870   31.2780   46.0300 O.2    66  ARG66      -0.2867
     50  CB        48.3880   32.8100   43.3510 C.3    66  ARG66       0.0307
     51  CG        48.9820   34.0370   42.7110 C.3    66  ARG66       0.0489
     52  CD        48.5520   34.1520   41.2590 C.3    66  ARG66       0.2205
     53  NE        49.1320   33.0990   40.4300 N.pl3  66  ARG66      -0.0865
     54  CZ        48.5020   32.5010   39.4210 C.cat  66  ARG66       0.5346
     55  NH1       47.2590   32.8480   39.1050 N.pl3  66  ARG66       0.1354
     56  NH2       49.1180   31.5510   38.7270 N.pl3  66  ARG66       0.1354
     57  N         41.4940   36.5180   46.0300 N.3    85  ALA85      -0.1245
     58  CA        40.2490   36.0040   45.4970 C.3    85  ALA85       0.1562
     59  C         39.5550   35.1880   46.5760 C.2    85  ALA85       0.2260
     60  O         40.2020   34.4300   47.3090 O.2    85  ALA85      -0.2867
     61  CB        40.5070   35.1490   44.2580 C.3    85  ALA85       0.0290
     62  N         37.7550   32.6980   46.0940 N.3    87  PHE87      -0.1227
     63  CA        37.9600   31.2910   45.7510 C.3    87  PHE87       0.1736
     64  C         39.2280   30.7340   46.3920 C.2    87  PHE87       0.2595
     65  O         39.2200   29.6200   46.9250 O.2    87  PHE87      -0.2718
     66  CB        38.0130   31.1310   44.2310 C.3    87  PHE87       0.0547
     67  CG        38.2960   29.7240   43.7690 C.ar   87  PHE87      -0.0202
     68  CD1       37.3220   28.7390   43.8560 C.ar   87  PHE87      -0.0042
     69  CD2       39.5280   29.3950   43.2230 C.ar   87  PHE87      -0.0042
     70  CE1       37.5720   27.4460   43.4270 C.ar   87  PHE87      -0.0003
     71  CE2       39.7900   28.1010   42.7900 C.ar   87  PHE87      -0.0003
     72  CZ        38.8050   27.1230   42.8960 C.ar   87  PHE87      -0.0000
     73  N         40.3280   31.4920   46.3480 N.am   88  ARG88      -0.1980
     74  CA        41.6010   31.0570   46.9160 C.3    88  ARG88       0.1597
     75  C         41.7290   31.3280   48.4100 C.2    88  ARG88       0.2287
     76  O         42.5320   30.6680   49.0760 O.2    88  ARG88      -0.2864
     77  CB        42.7700   31.7420   46.1940 C.3    88  ARG88       0.0334
     78  CG        43.3140   30.9680   45.0010 C.3    88  ARG88       0.0492
     79  CD        44.6480   31.5200   44.5390 C.3    88  ARG88       0.2205
     80  NE        44.7480   31.5780   43.0840 N.pl3  88  ARG88      -0.0865
     81  CZ        45.0630   30.5430   42.3080 C.cat  88  ARG88       0.5346
     82  NH1       45.3030   29.3550   42.8490 N.pl3  88  ARG88       0.1354
     83  NH2       45.1280   30.6970   40.9880 N.pl3  88  ARG88       0.1354
     84  N         35.2880   37.8900   43.9600 N.3   106  ASP106     -0.1225
     85  CA        35.0400   36.7530   43.1100 C.3   106  ASP106      0.1790
     86  C         34.3590   37.2460   41.8460 C.2   106  ASP106      0.2439
     87  O         33.4850   38.1190   41.9270 O.2   106  ASP106     -0.2733
     88  CB        34.1650   35.6960   43.7880 C.3   106  ASP106      0.1423
     89  CG        33.9760   34.4760   42.9300 C.2   106  ASP106      0.3668
     90  OD1       34.8530   33.5870   42.9330 O.co2 106  ASP106     -0.2456
     91  OD2       32.9520   34.4200   42.2270 O.co2 106  ASP106     -0.2456
     92  N         34.7180   36.7000   40.6810 N.am  107  PRO107     -0.2729
     93  CA        34.1450   37.2090   39.4270 C.3   107  PRO107      0.1401
     94  C         32.6430   37.0330   39.3220 C.2   107  PRO107      0.2269
     95  O         32.0520   37.5770   38.3870 O.2   107  PRO107     -0.2865
     96  CB        34.8320   36.4110   38.3370 C.3   107  PRO107      0.0296
     97  CG        36.2340   36.0860   38.8760 C.3   107  PRO107      0.0237
     98  CD        35.9560   35.8160   40.3640 C.3   107  PRO107      0.0939
     99  N         42.3140   31.4200   25.2640 N.3   167  GLN167     -0.1245
    100  CA        43.6630   31.3360   25.8000 C.3   167  GLN167      0.1566
    101  C         44.1270   29.8990   25.5970 C.2   167  GLN167      0.2260
    102  O         43.4390   28.9650   26.0220 O.2   167  GLN167     -0.2867
    103  CB        43.6780   31.7310   27.2770 C.3   167  GLN167      0.0367
    104  CG        45.0060   31.5260   27.9820 C.3   167  GLN167      0.0905
    105  CD        44.9300   31.8250   29.4670 C.2   167  GLN167      0.2608
    106  OE1       44.4010   31.0310   30.2430 O.2   167  GLN167     -0.2717
    107  NE2       45.4530   32.9730   29.8680 N.am  167  GLN167     -0.0878
    108  N         47.3790   26.8170   25.4570 N.3   169  PHE169     -0.1241
    109  CA        48.6060   26.3160   26.0710 C.3   169  PHE169      0.1605
    110  C         48.6050   24.7950   25.9230 C.2   169  PHE169      0.2264
    111  O         47.6510   24.2060   25.4070 O.2   169  PHE169     -0.2867
    112  CB        48.7230   26.7480   27.5390 C.3   169  PHE169      0.0534
    113  CG        47.5460   26.3570   28.3920 C.ar  169  PHE169     -0.0203
    114  CD1       47.5360   25.1480   29.0720 C.ar  169  PHE169     -0.0042
    115  CD2       46.4590   27.2050   28.5310 C.ar  169  PHE169     -0.0042
    116  CE1       46.4630   24.7910   29.8650 C.ar  169  PHE169     -0.0003
    117  CE2       45.3740   26.8540   29.3190 C.ar  169  PHE169     -0.0003
    118  CZ        45.3750   25.6500   29.9890 C.ar  169  PHE169     -0.0000
    119  N         41.3460   27.4970   26.2980 N.3   178  ARG178     -0.1245
    120  CA        40.3600   28.1190   27.1670 C.3   178  ARG178      0.1563
    121  C         39.5490   29.0700   26.2900 C.2   178  ARG178      0.2260
    122  O         39.8270   30.2670   26.1930 O.2   178  ARG178     -0.2867
    123  CB        41.0380   28.8180   28.3390 C.3   178  ARG178      0.0307
    124  CG        41.5040   27.8560   29.4260 C.3   178  ARG178      0.0489
    125  CD        41.4920   28.4990   30.8060 C.3   178  ARG178      0.2205
    126  NE        42.8240   28.9100   31.2230 N.pl3 178  ARG178     -0.0865
    127  CZ        43.5090   28.3610   32.2200 C.cat 178  ARG178      0.5346
    128  NH1       42.9940   27.3640   32.9240 N.pl3 178  ARG178      0.1354
    129  NH2       44.7200   28.8140   32.5030 N.pl3 178  ARG178      0.1354
    130  N         34.8900   30.8230   30.6640 N.3   209  PHE209     -0.1241
    131  CA        35.5240   30.0600   29.6000 C.3   209  PHE209      0.1605
    132  C         35.1190   28.6080   29.7550 C.2   209  PHE209      0.2264
    133  O         34.5470   28.2030   30.7680 O.2   209  PHE209     -0.2867
    134  CB        37.0590   30.1860   29.6180 C.3   209  PHE209      0.0534
    135  CG        37.7030   29.6990   30.8990 C.ar  209  PHE209     -0.0203
    136  CD1       37.9460   28.3460   31.1140 C.ar  209  PHE209     -0.0042
    137  CD2       38.0760   30.6030   31.8930 C.ar  209  PHE209     -0.0042
    138  CE1       38.5280   27.9060   32.3090 C.ar  209  PHE209     -0.0003
    139  CE2       38.6780   30.1710   33.0790 C.ar  209  PHE209     -0.0003
    140  CZ        38.8990   28.8290   33.2890 C.ar  209  PHE209     -0.0000
    141  N         37.3340   25.0680   29.3200 N.3   211  GLN211     -0.1245
    142  CA        38.5640   24.3710   28.9750 C.3   211  GLN211      0.1566
    143  C         38.2240   23.1590   28.1160 C.2   211  GLN211      0.2260
    144  O         37.3490   22.3670   28.4730 O.2   211  GLN211     -0.2867
    145  CB        39.3160   23.9590   30.2410 C.3   211  GLN211      0.0367
    146  CG        40.8260   23.9880   30.0870 C.3   211  GLN211      0.0905
    147  CD        41.5570   24.2280   31.3990 C.2   211  GLN211      0.2608
    148  OE1       42.6760   24.7300   31.4020 O.2   211  GLN211     -0.2717
    149  NE2       40.9330   23.8660   32.5160 N.am  211  GLN211     -0.0878
    150  N         49.4890   31.3790   26.3130 N.3   230  ALA230     -0.1245
    151  CA        50.0270   31.5160   27.6620 C.3   230  ALA230      0.1562
    152  C         50.9890   30.3660   27.9240 C.2   230  ALA230      0.2260
    153  O         50.8790   29.6500   28.9270 O.2   230  ALA230     -0.2867
    154  CB        48.9070   31.5500   28.7020 C.3   230  ALA230      0.0290
    155  N         47.1900   39.4030   29.8910 N.3   265  TRP265     -0.1241
    156  CA        46.4340   38.7370   30.9490 C.3   265  TRP265      0.1605
    157  C         44.9450   39.0610   30.8490 C.2   265  TRP265      0.2264
    158  O         44.4930   40.0800   31.3800 O.2   265  TRP265     -0.2867
    159  CB        46.9820   39.1380   32.3200 C.3   265  TRP265      0.0550
    160  CG        46.4460   38.3200   33.4190 C.ar  265  TRP265      0.0003
    161  CD1       45.7640   38.7670   34.5050 C.ar  265  TRP265      0.0946
    162  CD2       46.5210   36.8930   33.5480 C.ar  265  TRP265      0.0152
    163  NE1       45.4030   37.7100   35.3070 N.ar  265  TRP265     -0.2442
    164  CE2       45.8620   36.5480   34.7450 C.ar  265  TRP265      0.0810
    165  CE3       47.0880   35.8750   32.7730 C.ar  265  TRP265      0.0012
    166  CZ2       45.7560   35.2270   35.1930 C.ar  265  TRP265      0.0191
    167  CZ3       46.9820   34.5610   33.2160 C.ar  265  TRP265      0.0001
    168  CH2       46.3220   34.2490   34.4160 C.ar  265  TRP265      0.0015
    169  N         42.5130   37.9850   32.3060 N.3   267  PHE267     -0.1241
    170  CA        41.8220   37.9740   33.5820 C.3   267  PHE267      0.1605
    171  C         42.3050   39.0870   34.4970 C.2   267  PHE267      0.2264
    172  O         42.1750   38.9740   35.7200 O.2   267  PHE267     -0.2867
    173  CB        41.9830   36.6090   34.2500 C.3   267  PHE267      0.0534
    174  CG        41.5820   35.4600   33.3680 C.ar  267  PHE267     -0.0203
    175  CD1       40.2460   35.2230   33.0800 C.ar  267  PHE267     -0.0042
    176  CD2       42.5400   34.6230   32.8140 C.ar  267  PHE267     -0.0042
    177  CE1       39.8810   34.1700   32.2690 C.ar  267  PHE267     -0.0003
    178  CE2       42.1730   33.5680   32.0020 C.ar  267  PHE267     -0.0003
    179  CZ        40.8480   33.3420   31.7300 C.ar  267  PHE267     -0.0000
@<TRIPOS>BOND
     1    99   100    1
     2   111   110    2
     3   108   109    1
     4   101   100    1
     5   101   102    2
     6   100   103    1
     7   110   109    1
     8   109   112    1
     9   122   121    2
    10   121   120    1
    11   119   120    1
    12   150   151    1
    13   120   123    1
    14   103   104    1
    15   112   113    1
    16   151   152    1
    17   151   154    1
    18   152   153    2
    19   104   105    1
    20   143   144    2
    21   143   142    1
    22   123   124    1
    23   113   115   ar
    24   113   114   ar
    25   115   117   ar
    26   142   141    1
    27   142   145    1
    28   114   116   ar
    29    44    45   ar
    30    44    42   ar
    31   117   118   ar
    32   124   125    1
    33   105   107   am
    34   105   106    2
    35    45    43   ar
    36   131   134    1
    37   131   132    1
    38   131   130    1
    39   134   135    1
    40   132   133    2
    41   116   118   ar
    42   155   156    1
    43   146   145    1
    44   146   147    1
    45    42    39   ar
    46    43    41   ar
    47   125   126    1
    48   157   156    1
    49   157   158    2
    50   135   136   ar
    51   135   137   ar
    52   156   159    1
    53   136   138   ar
    54   126   127    2
    55    35    34    2
    56   147   148    2
    57   147   149   am
    58    39    41   ar
    59    39    37   ar
    60   179   178   ar
    61   179   177   ar
    62    41    40   ar
    63   137   139   ar
    64   178   176   ar
    65    34    33    1
    66    33    32    1
    67    33    36    1
    68   127   129    1
    69   127   128    1
    70   177   175   ar
    71   169   170    1
    72   138   140   ar
    73   159   160    1
    74    37    36    1
    75    37    38   ar
    76   165   167   ar
    77   165   162   ar
    78   176   174   ar
    79   139   140   ar
    80   175   174   ar
    81    40    38   ar
    82   167   168   ar
    83   174   173    1
    84   160   162   ar
    85   160   161   ar
    86   162   164   ar
    87   170   173    1
    88   170   171    1
    89   168   166   ar
    90   171   172    2
    91   161   163   ar
    92   164   166   ar
    93   164   163   ar
    94    27    26    2
    95    28    25    1
    96    28    29    1
    97    25    26    1
    98    25    24    1
    99    22    20   ar
   100    22    23   ar
   101    20    17   ar
   102    23    21   ar
   103    31    29   am
   104    29    30    2
   105    17    19   ar
   106    17    15   ar
   107    96    97    1
   108    96    93    1
   109    21    19   ar
   110    95    94    2
   111    56    54    1
   112    14    15    1
   113    14    11    1
   114    97    98    1
   115    19    18   ar
   116    15    16   ar
   117    55    54    1
   118    94    93    1
   119    54    53    2
   120    93    92    1
   121    13    12    2
   122    12    11    1
   123    11    10    1
   124    18    16   ar
   125    98    92    1
   126    53    52    1
   127     9     7   ar
   128    92    86   am
   129    10     3   am
   130    83    81    1
   131    52    51    1
   132     7     6    1
   133     7     8   ar
   134     6     5    1
   135    86    87    2
   136    86    85    1
   137     3     4    2
   138     3     2    1
   139    91    89   ar
   140    81    82    1
   141    81    80    2
   142    51    50    1
   143    71    72   ar
   144    71    69   ar
   145    72    70   ar
   146    89    90   ar
   147    89    88    1
   148     5     2    1
   149     2     1    1
   150    80    79    1
   151    85    88    1
   152    85    84    1
   153    69    67   ar
   154    50    47    1
   155    70    68   ar
   156    67    68   ar
   157    67    66    1
   158    66    63    1
   159    61    58    1
   160    46    47    1
   161    79    78    1
   162    47    48    1
   163    78    77    1
   164    48    49    2
   165    58    57    1
   166    58    59    1
   167    63    62    1
   168    63    64    1
   169    77    74    1
   170    73    64   am
   171    73    74    1
   172    64    65    2
   173    59    60    2
   174    74    75    1
   175    75    76    2
