@<TRIPOS>MOLECULE
tmp/6aloA01.pdb
 117 107 0 0 0
SMALL
GASTEIGER

@<TRIPOS>ATOM
      1  N         13.6220   -2.5950   21.2940 N.3   125  VAL125     -0.1245
      2  CA        13.1360   -1.7470   22.3660 C.3   125  VAL125      0.1561
      3  C         13.4880   -2.4430   23.6770 C.2   125  VAL125      0.2260
      4  O         12.9210   -3.4850   24.0140 O.2   125  VAL125     -0.2867
      5  CB        11.6190   -1.5310   22.2610 C.3   125  VAL125      0.0252
      6  CG1       11.0990   -0.7190   23.4470 C.3   125  VAL125      0.0019
      7  CG2       11.2680   -0.8560   20.9410 C.3   125  VAL125      0.0019
      8  N         13.2020    5.0850   22.9040 N.3   137  SER137     -0.1217
      9  CA        12.5790    3.7910   23.1930 C.3   137  SER137      0.1889
     10  C         13.2690    3.0230   24.3170 C.2   137  SER137      0.2288
     11  O         12.6760    2.1220   24.9120 O.2   137  SER137     -0.2866
     12  CB        12.5890    2.9200   21.9350 C.3   137  SER137      0.2089
     13  OG        13.9290    2.6370   21.5400 O.3   137  SER137     -0.2183
     14  N          7.4570    7.0780   28.2350 N.3   144  LEU144     -0.1245
     15  CA         7.6220    7.4520   26.8430 C.3   144  LEU144      0.1561
     16  C          6.3010    8.0860   26.4230 C.2   144  LEU144      0.2260
     17  O          5.2790    7.4040   26.3250 O.2   144  LEU144     -0.2867
     18  CB         7.9550    6.2330   25.9800 C.3   144  LEU144      0.0270
     19  CG         8.3500    6.5320   24.5350 C.3   144  LEU144      0.0019
     20  CD1        9.7110    7.2050   24.4740 C.3   144  LEU144      0.0001
     21  CD2        8.3450    5.2630   23.6840 C.3   144  LEU144      0.0001
     22  N          2.9950    9.6020   20.8290 N.3   147  HIS147     -0.1241
     23  CA         3.5150   10.1340   19.5760 C.3   147  HIS147      0.1621
     24  C          3.0890    9.2970   18.3780 C.2   147  HIS147      0.2264
     25  O          2.8230    8.1100   18.5050 O.2   147  HIS147     -0.2867
     26  CB         5.0470   10.1540   19.6190 C.3   147  HIS147      0.0745
     27  CG         5.6590    8.8010   19.8220 C.ar  147  HIS147      0.0817
     28  ND1        5.8800    8.2640   21.0720 N.ar  147  HIS147     -0.2268
     29  CD2        6.1010    7.8780   18.9350 C.ar  147  HIS147      0.1154
     30  CE1        6.4250    7.0670   20.9480 C.ar  147  HIS147      0.1986
     31  NE2        6.5630    6.8060   19.6620 N.ar  147  HIS147     -0.2212
     32  N          4.7630    7.7100   15.2420 N.3   149  GLU149     -0.1245
     33  CA         6.1310    7.2980   14.9520 C.3   149  GLU149      0.1567
     34  C          6.7150    8.1540   13.8380 C.2   149  GLU149      0.2260
     35  O          6.0950    8.3260   12.7920 O.2   149  GLU149     -0.2867
     36  CB         6.2030    5.8220   14.5610 C.3   149  GLU149      0.0388
     37  CG         7.5890    5.2190   14.7540 C.3   149  GLU149      0.1160
     38  CD         7.8750    4.7990   16.1910 C.2   149  GLU149      0.3649
     39  OE1        7.1340    5.2230   17.1100 O.co2 149  GLU149     -0.2457
     40  OE2        8.8500    4.0270   16.3980 O.co2 149  GLU149     -0.2457
     41  N          3.3480    0.3230   12.7040 N.3   160  VAL160     -0.1245
     42  CA         4.5180    0.0130   13.5200 C.3   160  VAL160      0.1561
     43  C          4.2640   -1.3170   14.2150 C.2   160  VAL160      0.2260
     44  O          3.3000   -1.4510   14.9700 O.2   160  VAL160     -0.2867
     45  CB         4.7900    1.1080   14.5640 C.3   160  VAL160      0.0252
     46  CG1        6.0100    0.7580   15.4150 C.3   160  VAL160      0.0019
     47  CG2        4.9740    2.4530   13.8810 C.3   160  VAL160      0.0019
     48  N          5.3020   -4.3160   16.8380 N.3   162  LEU162     -0.1245
     49  CA         5.9950   -4.5150   18.1060 C.3   162  LEU162      0.1561
     50  C          5.7470   -5.9400   18.5580 C.2   162  LEU162      0.2260
     51  O          4.5990   -6.3010   18.8420 O.2   162  LEU162     -0.2867
     52  CB         5.4600   -3.5610   19.1720 C.3   162  LEU162      0.0270
     53  CG         5.7400   -2.0780   19.0080 C.3   162  LEU162      0.0019
     54  CD1        4.9840   -1.2970   20.0730 C.3   162  LEU162      0.0001
     55  CD2        7.2290   -1.7980   19.0920 C.3   162  LEU162      0.0001
     56  N          2.0010   -0.6180   26.8850 N.3   173  THR173     -0.1218
     57  CA         2.0820    0.3010   25.7740 C.3   173  THR173      0.1862
     58  C          0.8390    1.1680   25.8750 C.2   173  THR173      0.2287
     59  O         -0.2200    0.6890   26.2650 O.2   173  THR173     -0.2866
     60  CB         2.0780   -0.4780   24.4430 C.3   173  THR173      0.1770
     61  OG1        3.1830   -1.3910   24.4380 O.3   173  THR173     -0.2211
     62  CG2        2.1770    0.4500   23.2330 C.3   173  THR173      0.0375
     63  N          0.9750    6.5050   20.1070 N.3   295  HIS295     -0.1226
     64  CA         1.2880    5.4950   21.0970 C.3   295  HIS295      0.1752
     65  C          2.5040    5.9030   21.9150 C.2   295  HIS295      0.2597
     66  O          3.2670    6.7970   21.5320 O.2   295  HIS295     -0.2718
     67  CB         1.5480    4.1560   20.4070 C.3   295  HIS295      0.0759
     68  CG         2.8200    4.1390   19.6260 C.ar  295  HIS295      0.0818
     69  ND1        2.9410    4.7360   18.3910 N.ar  295  HIS295     -0.2268
     70  CD2        4.0410    3.6450   19.9290 C.ar  295  HIS295      0.1154
     71  CE1        4.1840    4.6010   17.9610 C.ar  295  HIS295      0.1986
     72  NE2        4.8720    3.9470   18.8800 N.ar  295  HIS295     -0.2212
     73  N          2.6770    5.2210   23.0360 N.am  296  GLY296     -0.1942
     74  CA         3.8140    5.4460   23.9230 C.3   296  GLY296      0.2014
     75  C          3.9880    4.2490   24.8290 C.2   296  GLY296      0.2638
     76  O          3.5320    3.1490   24.4980 O.2   296  GLY296     -0.2714
     77  N          4.6190    4.4620   25.9820 N.am  297  ARG297     -0.1977
     78  CA         4.8970    3.3820   26.9240 C.3   297  ARG297      0.1597
     79  C          4.9370    3.9240   28.3460 C.2   297  ARG297      0.2287
     80  O          5.5800    4.9390   28.6130 O.2   297  ARG297     -0.2864
     81  CB         6.2380    2.7230   26.6010 C.3   297  ARG297      0.0334
     82  CG         6.5130    1.4540   27.4030 C.3   297  ARG297      0.0492
     83  CD         7.9550    1.3800   27.8830 C.3   297  ARG297      0.2205
     84  NE         8.2880    2.4740   28.7990 N.pl3 297  ARG297     -0.0865
     85  CZ         9.1850    3.4370   28.5740 C.cat 297  ARG297      0.5346
     86  NH1        9.8950    3.4840   27.4510 N.pl3 297  ARG297      0.1354
     87  NH2        9.3810    4.3690   29.4930 N.pl3 297  ARG297      0.1354
     88  N         12.1710   -6.1740   30.1390 N.3   309  ARG309     -0.1245
     89  CA        11.2710   -6.0630   28.9990 C.3   309  ARG309      0.1563
     90  C         12.0400   -5.7880   27.7070 C.2   309  ARG309      0.2260
     91  O         12.9740   -4.9760   27.6770 O.2   309  ARG309     -0.2867
     92  CB        10.2770   -4.9310   29.2770 C.3   309  ARG309      0.0307
     93  CG         9.2730   -4.6280   28.1750 C.3   309  ARG309      0.0489
     94  CD         8.3650   -3.5030   28.6460 C.3   309  ARG309      0.2205
     95  NE         7.2370   -3.2400   27.7520 N.pl3 309  ARG309     -0.0865
     96  CZ         7.2470   -2.3940   26.7210 C.cat 309  ARG309      0.5346
     97  NH1        8.3410   -1.7080   26.3960 N.pl3 309  ARG309      0.1354
     98  NH2        6.1430   -2.2440   25.9990 N.pl3 309  ARG309      0.1354
     99  N         11.3480   -5.7200   23.3000 N.3   311  LEU311     -0.1245
    100  CA        10.5470   -5.8540   22.0860 C.3   311  LEU311      0.1561
    101  C         11.4330   -5.7890   20.8570 C.2   311  LEU311      0.2260
    102  O         12.4640   -5.1050   20.8530 O.2   311  LEU311     -0.2867
    103  CB         9.4970   -4.7350   21.9740 C.3   311  LEU311      0.0270
    104  CG         8.7420   -4.2420   23.2080 C.3   311  LEU311      0.0019
    105  CD1        7.8840   -3.0330   22.8450 C.3   311  LEU311      0.0001
    106  CD2        7.8780   -5.3400   23.7920 C.3   311  LEU311      0.0001
    107  N         11.0180   -4.5060   16.9080 N.3   313  ARG313     -0.1245
    108  CA        10.2000   -3.4700   16.3020 C.3   313  ARG313      0.1563
    109  C         10.5070   -3.3660   14.8160 C.2   313  ARG313      0.2260
    110  O         11.6210   -3.6520   14.3780 O.2   313  ARG313     -0.2867
    111  CB        10.4660   -2.1380   17.0080 C.3   313  ARG313      0.0307
    112  CG         9.6810   -0.9490   16.4790 C.3   313  ARG313      0.0489
    113  CD        10.0190    0.3030   17.2680 C.3   313  ARG313      0.2205
    114  NE        11.3340    0.8220   16.9040 N.pl3 313  ARG313     -0.0865
    115  CZ        11.9210    1.8720   17.4750 C.cat 313  ARG313      0.5346
    116  NH1       11.3180    2.5260   18.4630 N.pl3 313  ARG313      0.1354
    117  NH2       13.1230    2.2710   17.0550 N.pl3 313  ARG313      0.1354
@<TRIPOS>BOND
     1    41    42    1
     2    35    34    2
     3    42    43    1
     4    42    45    1
     5    34    33    1
     6    47    45    1
     7    43    44    2
     8   110   109    2
     9    36    37    1
    10    36    33    1
    11    45    46    1
    12    37    38    1
    13   109   108    1
    14    33    32    1
    15    38    40   ar
    16    38    39   ar
    17   108   107    1
    18   108   111    1
    19   112   111    1
    20   112   113    1
    21    48    49    1
    22   114   113    1
    23   114   115    2
    24   117   115    1
    25   115   116    1
    26    71    69   ar
    27    71    72   ar
    28    49    50    1
    29    49    52    1
    30    24    25    2
    31    24    23    1
    32    69    68   ar
    33    50    51    2
    34    72    70   ar
    35    29    31   ar
    36    29    27   ar
    37    53    55    1
    38    53    52    1
    39    53    54    1
    40    23    26    1
    41    23    22    1
    42    26    27    1
    43    68    70   ar
    44    68    67    1
    45    31    30   ar
    46    27    28   ar
    47    63    64    1
    48    67    64    1
    49   102   101    2
    50   101   100    1
    51     7     5    1
    52    30    28   ar
    53    64    65    1
    54     1     2    1
    55    66    65    2
    56    13    12    1
    57    65    73   am
    58    12     9    1
    59   103   100    1
    60   103   104    1
    61   100    99    1
    62     5     2    1
    63     5     6    1
    64     2     3    1
    65   105   104    1
    66     8     9    1
    67    73    74    1
    68     9    10    1
    69   104   106    1
    70    62    60    1
    71     3     4    2
    72    21    19    1
    73    74    75    1
    74    10    11    2
    75    61    60    1
    76    60    57    1
    77    20    19    1
    78    76    75    2
    79    19    18    1
    80    75    77   am
    81    57    58    1
    82    57    56    1
    83    58    59    2
    84    18    15    1
    85    77    78    1
    86    98    96    1
    87    17    16    2
    88    97    96    1
    89    16    15    1
    90    81    78    1
    91    81    82    1
    92    96    95    2
    93    15    14    1
    94    78    79    1
    95    82    83    1
    96    86    85    1
    97    91    90    2
    98    90    89    1
    99    95    94    1
   100    83    84    1
   101    93    94    1
   102    93    92    1
   103    79    80    2
   104    85    84    2
   105    85    87    1
   106    89    92    1
   107    89    88    1
