@<TRIPOS>MOLECULE
tmp/6alqA01.pdb
 135 130 0 0 0
SMALL
GASTEIGER

@<TRIPOS>ATOM
      1  N         18.6060    5.8980   12.5590 N.3   116  GLN116     -0.1245
      2  CA        18.0950    5.2550   13.7730 C.3   116  GLN116      0.1566
      3  C         18.6200    3.8210   13.8750 C.2   116  GLN116      0.2260
      4  O         18.5260    3.0450   12.9280 O.2   116  GLN116     -0.2867
      5  CB        16.5540    5.2860   13.8030 C.3   116  GLN116      0.0367
      6  CG        15.9370    4.7640   15.1030 C.3   116  GLN116      0.0905
      7  CD        14.4440    5.0480   15.2380 C.2   116  GLN116      0.2608
      8  OE1       13.8840    4.9510   16.3300 O.2   116  GLN116     -0.2717
      9  NE2       13.8000    5.4110   14.1390 N.am  116  GLN116     -0.0878
     10  N         14.1300   10.6640   26.0180 N.3   135  LEU135     -0.1231
     11  CA        12.9110   10.7130   25.2100 C.3   135  LEU135      0.1693
     12  C         12.8480    9.5770   24.1840 C.2   135  LEU135      0.2592
     13  O         11.9990    9.5900   23.2920 O.2   135  LEU135     -0.2718
     14  CB        12.8120   12.0740   24.5020 C.3   135  LEU135      0.0284
     15  CG        12.7510   13.2870   25.4350 C.3   135  LEU135      0.0019
     16  CD1       12.7880   14.5800   24.6310 C.3   135  LEU135      0.0001
     17  CD2       11.5140   13.2360   26.3240 C.3   135  LEU135      0.0001
     18  N         13.7330    8.5900   24.3090 N.am  136  VAL136     -0.1966
     19  CA        13.7910    7.5050   23.3340 C.3   136  VAL136      0.1727
     20  C         13.2230    6.2090   23.9190 C.2   136  VAL136      0.2616
     21  O         12.9650    6.1140   25.1180 O.2   136  VAL136     -0.2715
     22  CB        15.2150    7.3100   22.7680 C.3   136  VAL136      0.0290
     23  CG1       15.6500    8.5590   22.0090 C.3   136  VAL136      0.0023
     24  CG2       16.2170    6.9850   23.8670 C.3   136  VAL136      0.0023
     25  N         13.0320    5.2170   23.0570 N.am  137  SER137     -0.1950
     26  CA        12.3350    3.9850   23.4290 C.3   137  SER137      0.1924
     27  C         13.1100    3.1120   24.4180 C.2   137  SER137      0.2314
     28  O         12.5420    2.1830   24.9950 O.2   137  SER137     -0.2863
     29  CB        11.9990    3.1780   22.1740 C.3   137  SER137      0.2116
     30  OG        13.1740    2.8530   21.4660 O.3   137  SER137     -0.2180
     31  N          7.4160    7.0920   28.2130 N.3   144  LEU144     -0.1231
     32  CA         7.6180    7.4680   26.8250 C.3   144  LEU144      0.1693
     33  C          6.3190    8.1350   26.3830 C.2   144  LEU144      0.2593
     34  O          5.2850    7.4800   26.2810 O.2   144  LEU144     -0.2718
     35  CB         7.9510    6.2450   25.9620 C.3   144  LEU144      0.0284
     36  CG         8.3480    6.5270   24.5080 C.3   144  LEU144      0.0019
     37  CD1        9.6970    7.2280   24.4310 C.3   144  LEU144      0.0001
     38  CD2        8.3630    5.2460   23.6830 C.3   144  LEU144      0.0001
     39  N          6.3750    9.4500   26.1660 N.am  145  GLY145     -0.1942
     40  CA         5.1960   10.2370   25.8080 C.3   145  GLY145      0.2014
     41  C          4.5690    9.7740   24.5060 C.2   145  GLY145      0.2639
     42  O          5.2540    9.2290   23.6390 O.2   145  GLY145     -0.2714
     43  N          3.2640    9.9830   24.3680 N.am  146  TRP146     -0.1959
     44  CA         2.5630    9.5370   23.1550 C.3   146  TRP146      0.1771
     45  C          3.0680   10.2520   21.9070 C.2   146  TRP146      0.2619
     46  O          3.4730   11.4190   21.9560 O.2   146  TRP146     -0.2715
     47  CB         1.0360    9.6560   23.2700 C.3   146  TRP146      0.0590
     48  CG         0.5170   10.9650   23.8120 C.ar  146  TRP146      0.0006
     49  CD1        0.0970   11.2050   25.0830 C.ar  146  TRP146      0.0946
     50  CD2        0.3400   12.1920   23.0930 C.ar  146  TRP146      0.0152
     51  NE1       -0.3140   12.5050   25.2110 N.ar  146  TRP146     -0.2442
     52  CE2       -0.1780   13.1360   24.0040 C.ar  146  TRP146      0.0810
     53  CE3        0.5770   12.5900   21.7740 C.ar  146  TRP146      0.0012
     54  CZ2       -0.4650   14.4480   23.6400 C.ar  146  TRP146      0.0191
     55  CZ3        0.2900   13.8960   21.4130 C.ar  146  TRP146      0.0001
     56  CH2       -0.2270   14.8100   22.3410 C.ar  146  TRP146      0.0015
     57  N          3.0460    9.5360   20.7870 N.am  147  HIS147     -0.1973
     58  CA         3.5760   10.0620   19.5400 C.3   147  HIS147      0.1656
     59  C          3.1320    9.2430   18.3330 C.2   147  HIS147      0.2291
     60  O          2.8770    8.0430   18.4330 O.2   147  HIS147     -0.2864
     61  CB         5.1110   10.0720   19.5900 C.3   147  HIS147      0.0771
     62  CG         5.7160    8.7200   19.8110 C.ar  147  HIS147      0.0820
     63  ND1        5.8900    8.1780   21.0670 N.ar  147  HIS147     -0.2267
     64  CD2        6.1760    7.7930   18.9370 C.ar  147  HIS147      0.1154
     65  CE1        6.4390    6.9820   20.9590 C.ar  147  HIS147      0.1986
     66  NE2        6.6170    6.7220   19.6760 N.ar  147  HIS147     -0.2212
     67  N          4.7860    7.7070   15.2290 N.3   149  GLU149     -0.1231
     68  CA         6.1510    7.2790   14.9410 C.3   149  GLU149      0.1699
     69  C          6.7350    8.1360   13.8190 C.2   149  GLU149      0.2592
     70  O          6.1150    8.2940   12.7690 O.2   149  GLU149     -0.2718
     71  CB         6.1930    5.8050   14.5460 C.3   149  GLU149      0.0402
     72  CG         7.5720    5.1730   14.6860 C.3   149  GLU149      0.1161
     73  CD         7.9490    4.8370   16.1230 C.2   149  GLU149      0.3649
     74  OE1        7.1190    5.0340   17.0430 O.co2 149  GLU149     -0.2457
     75  OE2        9.0790    4.3380   16.3350 O.co2 149  GLU149     -0.2457
     76  N          7.9170    8.6960   14.0650 N.am  150  ASP150     -0.1974
     77  CA         8.6180    9.5320   13.0820 C.3   150  ASP150      0.1709
     78  C          7.7300   10.6250   12.5000 C.2   150  ASP150      0.2293
     79  O          7.7380   10.8830   11.2920 O.2   150  ASP150     -0.2864
     80  CB         9.2050    8.6460   11.9830 C.3   150  ASP150      0.1436
     81  CG        10.1500    7.6120   12.5380 C.2   150  ASP150      0.3671
     82  OD1       11.1590    8.0210   13.1430 O.co2 150  ASP150     -0.2456
     83  OD2        9.8880    6.4000   12.3940 O.co2 150  ASP150     -0.2456
     84  N         12.5550   13.2720   16.4480 N.3   201  ASP201     -0.1239
     85  CA        12.7660   12.8720   17.8340 C.3   201  ASP201      0.1674
     86  C         14.2260   12.4810   18.0540 C.2   201  ASP201      0.2266
     87  O         14.9900   12.3460   17.0970 O.2   201  ASP201     -0.2867
     88  CB        11.8280   11.7280   18.2200 C.3   201  ASP201      0.1410
     89  CG        12.1370   10.4560   17.4800 C.2   201  ASP201      0.3668
     90  OD1       13.1030    9.7710   17.8740 O.co2 201  ASP201     -0.2456
     91  OD2       11.4180   10.1550   16.5030 O.co2 201  ASP201     -0.2456
     92  N         15.8100    9.7890   18.7880 N.3   203  SER203     -0.1217
     93  CA        16.3580    8.5420   18.2390 C.3   203  SER203      0.1889
     94  C         17.1610    8.7750   16.9520 C.2   203  SER203      0.2288
     95  O         18.0080    7.9510   16.5950 O.2   203  SER203     -0.2866
     96  CB        15.2610    7.4890   18.0100 C.3   203  SER203      0.2089
     97  OG        14.4410    7.7960   16.8960 O.3   203  SER203     -0.2183
     98  N          3.3970   14.6560   17.9450 N.3   247  ASP247     -0.1239
     99  CA         4.2930   14.0930   18.9350 C.3   247  ASP247      0.1674
    100  C          4.2440   15.0170   20.1370 C.2   247  ASP247      0.2266
    101  O          4.5810   16.1930   20.0290 O.2   247  ASP247     -0.2867
    102  CB         5.7090   13.9940   18.3690 C.3   247  ASP247      0.1410
    103  CG         6.6960   13.3860   19.3520 C.2   247  ASP247      0.3668
    104  OD1        7.4030   12.4310   18.9750 O.co2 247  ASP247     -0.2456
    105  OD2        6.7700   13.8640   20.5010 O.co2 247  ASP247     -0.2456
    106  N          6.0900   15.5160   22.6510 N.3   249  ASP249     -0.1225
    107  CA         7.3440   16.1410   23.0780 C.3   249  ASP249      0.1805
    108  C          8.1010   16.8680   21.9570 C.2   249  ASP249      0.2597
    109  O          9.0740   17.5680   22.2350 O.2   249  ASP249     -0.2718
    110  CB         8.2690   15.0850   23.6890 C.3   249  ASP249      0.1424
    111  CG         7.7290   14.5090   24.9800 C.2   249  ASP249      0.3668
    112  OD1        7.3990   15.2840   25.8990 O.co2 249  ASP249     -0.2456
    113  OD2        7.6440   13.2730   25.0860 O.co2 249  ASP249     -0.2456
    114  N          7.6900   16.6850   20.7030 N.am  250  PHE250     -0.1976
    115  CA         8.4110   17.2800   19.5790 C.3   250  PHE250      0.1639
    116  C          7.5360   18.1220   18.6400 C.2   250  PHE250      0.2290
    117  O          8.0040   18.5410   17.5770 O.2   250  PHE250     -0.2864
    118  CB         9.1680   16.1880   18.8160 C.3   250  PHE250      0.0560
    119  CG        10.3010   15.5960   19.6040 C.ar  250  PHE250     -0.0200
    120  CD1       11.5260   16.2500   19.6720 C.ar  250  PHE250     -0.0042
    121  CD2       10.1390   14.4100   20.3040 C.ar  250  PHE250     -0.0042
    122  CE1       12.5720   15.7190   20.4060 C.ar  250  PHE250     -0.0003
    123  CE2       11.1790   13.8750   21.0450 C.ar  250  PHE250     -0.0003
    124  CZ        12.3970   14.5300   21.0980 C.ar  250  PHE250     -0.0000
    125  N         10.9970   -4.4160   16.9420 N.3   313  ARG313     -0.1245
    126  CA        10.1550   -3.4040   16.3170 C.3   313  ARG313      0.1563
    127  C         10.4720   -3.3010   14.8340 C.2   313  ARG313      0.2260
    128  O         11.6080   -3.5020   14.4210 O.2   313  ARG313     -0.2867
    129  CB        10.3690   -2.0440   16.9930 C.3   313  ARG313      0.0307
    130  CG         9.5650   -0.8920   16.4000 C.3   313  ARG313      0.0489
    131  CD         9.7700    0.3920   17.1900 C.3   313  ARG313      0.2205
    132  NE        11.1410    0.8870   17.0640 N.pl3 313  ARG313     -0.0865
    133  CZ        11.6660    1.8760   17.7880 C.cat 313  ARG313      0.5346
    134  NH1       10.9460    2.4900   18.7230 N.pl3 313  ARG313      0.1354
    135  NH2       12.9290    2.2430   17.5820 N.pl3 313  ARG313      0.1354
@<TRIPOS>BOND
     1    79    78    2
     2    80    81    1
     3    80    77    1
     4    83    81   ar
     5    78    77    1
     6    81    82   ar
     7     1     2    1
     8    70    69    2
     9     4     3    2
    10    77    76    1
    11     2     5    1
    12     2     3    1
    13     5     6    1
    14    69    76   am
    15    69    68    1
    16     9     7   am
    17   128   127    2
    18    71    72    1
    19    71    68    1
    20    72    73    1
    21   127   126    1
    22    68    67    1
    23     6     7    1
    24     7     8    2
    25    73    75   ar
    26    73    74   ar
    27   126   125    1
    28   126   129    1
    29   130   129    1
    30   130   131    1
    31    84    85    1
    32    91    89   ar
    33    95    94    2
    34    97    96    1
    35    94    93    1
    36   132   131    1
    37   132   133    2
    38    87    86    2
    39    89    90   ar
    40    89    88    1
    41   117   116    2
    42   135   133    1
    43   133   134    1
    44    85    86    1
    45    85    88    1
    46    98    99    1
    47    96    93    1
    48    93    92    1
    49    59    60    2
    50    59    58    1
    51   102    99    1
    52   102   103    1
    53   116   115    1
    54   118   115    1
    55   118   119    1
    56    99   100    1
    57    64    66   ar
    58    64    62   ar
    59   104   103   ar
    60   103   105   ar
    61    58    61    1
    62    58    57    1
    63   115   114    1
    64    61    62    1
    65   119   120   ar
    66   119   121   ar
    67   120   122   ar
    68    66    65   ar
    69    62    63   ar
    70   101   100    2
    71   121   123   ar
    72   122   124   ar
    73   114   108   am
    74    57    45   am
    75    65    63   ar
    76   123   124   ar
    77    55    53   ar
    78    55    56   ar
    79    30    29    1
    80    53    50   ar
    81    45    46    2
    82    45    44    1
    83   108   109    2
    84   108   107    1
    85    23    22    1
    86    29    26    1
    87    56    54   ar
    88   106   107    1
    89    22    19    1
    90    22    24    1
    91    25    26    1
    92    25    20   am
    93   107   110    1
    94    50    48   ar
    95    50    52   ar
    96    44    47    1
    97    44    43    1
    98    47    48    1
    99    13    12    2
   100    19    20    1
   101    19    18    1
   102    26    27    1
   103    42    41    2
   104    54    52   ar
   105    38    36    1
   106   110   111    1
   107    48    49   ar
   108    20    21    2
   109    52    51   ar
   110    12    18   am
   111    12    11    1
   112    43    41   am
   113    27    28    2
   114    37    36    1
   115    14    11    1
   116    14    15    1
   117    41    40    1
   118    36    35    1
   119    16    15    1
   120   111   113   ar
   121   111   112   ar
   122    49    51   ar
   123    11    10    1
   124    15    17    1
   125    40    39    1
   126    35    32    1
   127    39    33   am
   128    34    33    2
   129    33    32    1
   130    32    31    1
