@<TRIPOS>MOLECULE
tmp/6alzA00.pdb
 219 214 0 0 0
SMALL
GASTEIGER

@<TRIPOS>ATOM
      1  N         -3.3070   32.4120  -13.0700 N.3    58  ASP58      -0.1239
      2  CA        -2.4700   32.5710  -11.8860 C.3    58  ASP58       0.1674
      3  C         -3.2420   33.2180  -10.7430 C.2    58  ASP58       0.2266
      4  O         -3.9990   34.1710  -10.9400 O.2    58  ASP58      -0.2867
      5  CB        -1.2440   33.4230  -12.2220 C.3    58  ASP58       0.1410
      6  CG        -0.2970   32.7350  -13.1860 C.2    58  ASP58       0.3668
      7  OD1       -0.7560   31.8680  -13.9590 O.co2  58  ASP58      -0.2456
      8  OD2        0.9060   33.0740  -13.1830 O.co2  58  ASP58      -0.2456
      9  N         -1.3730   33.1670   -7.2780 N.3    60  HIS60      -0.1241
     10  CA        -0.1910   33.6670   -6.5760 C.3    60  HIS60       0.1621
     11  C         -0.5440   34.2090   -5.1930 C.2    60  HIS60       0.2264
     12  O         -0.2200   35.3430   -4.8410 O.2    60  HIS60      -0.2867
     13  CB         0.5350   34.7240   -7.4110 C.3    60  HIS60       0.0745
     14  CG         1.3780   34.1520   -8.5090 C.ar   60  HIS60       0.0817
     15  ND1        2.3870   33.2430   -8.2750 N.ar   60  HIS60      -0.2268
     16  CD2        1.3670   34.3670   -9.8460 C.ar   60  HIS60       0.1154
     17  CE1        2.9580   32.9180   -9.4220 C.ar   60  HIS60       0.1986
     18  NE2        2.3590   33.5870  -10.3900 N.ar   60  HIS60      -0.2212
     19  N          0.1480   27.9790  -10.5690 N.3    86  ASP86      -0.1239
     20  CA         0.6990   29.1590   -9.9010 C.3    86  ASP86       0.1674
     21  C         -0.2340   29.6340   -8.7810 C.2    86  ASP86       0.2266
     22  O         -0.8310   30.7120   -8.8260 O.2    86  ASP86      -0.2867
     23  CB         0.9840   30.2820  -10.9060 C.3    86  ASP86       0.1410
     24  CG         2.3120   30.1030  -11.6150 C.2    86  ASP86       0.3668
     25  OD1        2.9050   29.0090  -11.5040 O.co2  86  ASP86      -0.2456
     26  OD2        2.7620   31.0550  -12.2890 O.co2  86  ASP86      -0.2456
     27  N          4.8080   35.1470   -4.6010 N.3    90  ARG90      -0.1245
     28  CA         4.4850   36.5250   -4.9730 C.3    90  ARG90       0.1563
     29  C          3.4780   37.1760   -4.0290 C.2    90  ARG90       0.2260
     30  O          3.6940   38.3030   -3.5730 O.2    90  ARG90      -0.2867
     31  CB         3.9720   36.5920   -6.4160 C.3    90  ARG90       0.0307
     32  CG         5.0580   36.4370   -7.4710 C.3    90  ARG90       0.0489
     33  CD         6.1400   37.4950   -7.3140 C.3    90  ARG90       0.2205
     34  NE         7.2060   37.3370   -8.3000 N.pl3  90  ARG90      -0.0865
     35  CZ         8.3840   37.9490   -8.2330 C.cat  90  ARG90       0.5346
     36  NH1        8.6550   38.7630   -7.2220 N.pl3  90  ARG90       0.1354
     37  NH2        9.2940   37.7450   -9.1760 N.pl3  90  ARG90       0.1354
     38  N          4.6140   26.5420  -12.9690 N.3   118  ASN118     -0.1225
     39  CA         6.0550   26.5690  -12.7400 C.3   118  ASN118      0.1785
     40  C          6.4070   26.9470  -11.3070 C.2   118  ASN118      0.2597
     41  O          7.5160   26.6420  -10.8540 O.2   118  ASN118     -0.2718
     42  CB         6.7380   27.5300  -13.7170 C.3   118  ASN118      0.1169
     43  CG         6.3340   28.9750  -13.4980 C.2   118  ASN118      0.2627
     44  OD1        5.1520   29.2890  -13.3740 O.2   118  ASN118     -0.2716
     45  ND2        7.3200   29.8640  -13.4550 N.am  118  ASN118     -0.0877
     46  N          5.4980   27.5990  -10.5860 N.am  119  HIS119     -0.1975
     47  CA         5.7300   27.9060   -9.1820 C.3   119  HIS119      0.1656
     48  C          5.3310   26.7640   -8.2580 C.2   119  HIS119      0.2291
     49  O          5.5920   26.8410   -7.0530 O.2   119  HIS119     -0.2864
     50  CB         4.9900   29.1880   -8.7920 C.3   119  HIS119      0.0771
     51  CG         5.6570   30.4340   -9.2860 C.ar  119  HIS119      0.0820
     52  ND1        6.4470   31.2250   -8.4800 N.ar  119  HIS119     -0.2267
     53  CD2        5.6630   31.0190  -10.5080 C.ar  119  HIS119      0.1154
     54  CE1        6.9050   32.2470   -9.1810 C.ar  119  HIS119      0.1986
     55  NE2        6.4440   32.1450  -10.4150 N.ar  119  HIS119     -0.2212
     56  N          6.9420   24.1230   -8.4540 N.3   121  CYS121     -0.1235
     57  CA         8.2140   23.4190   -8.4130 C.3   121  CYS121      0.1677
     58  C          9.0140   23.9200   -7.2180 C.2   121  CYS121      0.2270
     59  O          9.0570   25.1250   -6.9500 O.2   121  CYS121     -0.2867
     60  CB         9.0090   23.6270   -9.7040 C.3   121  CYS121      0.0956
     61  SG        10.7950   23.4340   -9.5120 S.3   121  CYS121     -0.0801
     62  N         12.1950   24.2390   -6.4780 N.3   123  SER123     -0.1202
     63  CA        13.2950   25.1790   -6.6710 C.3   123  SER123      0.2020
     64  C         12.7900   26.5990   -6.8810 C.2   123  SER123      0.2618
     65  O         13.4930   27.5630   -6.5540 O.2   123  SER123     -0.2717
     66  CB        14.1620   24.7460   -7.8550 C.3   123  SER123      0.2103
     67  OG        14.3600   23.3420   -7.8620 O.3   123  SER123     -0.2182
     68  N         11.5770   26.7520   -7.4130 N.am  124  ILE124     -0.1979
     69  CA        11.0280   28.0840   -7.6390 C.3   124  ILE124      0.1595
     70  C         10.4120   28.6390   -6.3610 C.2   124  ILE124      0.2287
     71  O         10.7570   29.7420   -5.9220 O.2   124  ILE124     -0.2864
     72  CB        10.0090   28.0600   -8.7920 C.3   124  ILE124      0.0276
     73  CG1       10.7070   27.7570  -10.1200 C.3   124  ILE124      0.0022
     74  CG2        9.2700   29.3890   -8.8700 C.3   124  ILE124      0.0022
     75  CD1       11.7700   28.7660  -10.4910 C.3   124  ILE124      0.0001
     76  N         10.6750   32.3760   -4.2480 N.3   128  TYR128     -0.1241
     77  CA         9.7080   33.4160   -4.5750 C.3   128  TYR128      0.1605
     78  C          8.5640   33.5220   -3.5690 C.2   128  TYR128      0.2264
     79  O          7.5210   34.0980   -3.8930 O.2   128  TYR128     -0.2867
     80  CB         9.1650   33.1970   -5.9880 C.3   128  TYR128      0.0534
     81  CG        10.1830   33.5210   -7.0590 C.ar  128  TYR128     -0.0201
     82  CD1       10.3290   34.8160   -7.5380 C.ar  128  TYR128     -0.0009
     83  CD2       11.0110   32.5340   -7.5770 C.ar  128  TYR128     -0.0009
     84  CE1       11.2650   35.1180   -8.5100 C.ar  128  TYR128      0.0417
     85  CE2       11.9480   32.8260   -8.5490 C.ar  128  TYR128      0.0417
     86  CZ        12.0720   34.1190   -9.0120 C.ar  128  TYR128      0.1957
     87  OH        13.0050   34.4130   -9.9800 O.3   128  TYR128     -0.2866
     88  N         10.2800   18.9380  -11.5940 N.3   189  VAL189     -0.1231
     89  CA        10.2090   19.6510  -12.8660 C.3   189  VAL189      0.1678
     90  C         11.6340   19.8270  -13.3840 C.2   189  VAL189      0.2434
     91  O         12.4360   20.5090  -12.7310 O.2   189  VAL189     -0.2733
     92  CB         9.5060   21.0080  -12.7160 C.3   189  VAL189      0.0265
     93  CG1        9.5090   21.7570  -14.0390 C.3   189  VAL189      0.0020
     94  CG2        8.0840   20.8140  -12.2080 C.3   189  VAL189      0.0020
     95  N         11.9880   19.2330  -14.5220 N.am  190  PRO190     -0.2718
     96  CA        13.3480   19.3990  -15.0450 C.3   190  PRO190      0.1535
     97  C         13.5640   20.8030  -15.5870 C.2   190  PRO190      0.2598
     98  O         12.6210   21.5540  -15.8490 O.2   190  PRO190     -0.2715
     99  CB        13.4370   18.3510  -16.1640 C.3   190  PRO190      0.0310
    100  CG        12.1830   17.5090  -16.0450 C.3   190  PRO190      0.0237
    101  CD        11.1650   18.3740  -15.3830 C.3   190  PRO190      0.0939
    102  N         14.8390   21.1550  -15.7510 N.am  191  ASP191     -0.1972
    103  CA        15.2040   22.4660  -16.2750 C.3   191  ASP191      0.1709
    104  C         15.1070   22.5480  -17.7940 C.2   191  ASP191      0.2293
    105  O         15.3980   23.6080  -18.3600 O.2   191  ASP191     -0.2864
    106  CB        16.6180   22.8440  -15.8200 C.3   191  ASP191      0.1436
    107  CG        17.6360   21.7470  -16.0770 C.2   191  ASP191      0.3671
    108  OD1       17.3470   20.8250  -16.8680 O.co2 191  ASP191     -0.2456
    109  OD2       18.7340   21.8100  -15.4830 O.co2 191  ASP191     -0.2456
    110  N          6.4940   26.4890  -18.7080 N.3   200  TRP200     -0.1241
    111  CA         7.3710   27.6540  -18.7650 C.3   200  TRP200      0.1605
    112  C          7.2460   28.4750  -20.0460 C.2   200  TRP200      0.2264
    113  O          7.4440   29.6940  -20.0170 O.2   200  TRP200     -0.2867
    114  CB         8.8280   27.2180  -18.6040 C.3   200  TRP200      0.0550
    115  CG         9.2780   27.0220  -17.1920 C.ar  200  TRP200      0.0003
    116  CD1        9.4360   25.8340  -16.5400 C.ar  200  TRP200      0.0946
    117  CD2        9.6500   28.0440  -16.2600 C.ar  200  TRP200      0.0152
    118  NE1        9.8780   26.0530  -15.2580 N.ar  200  TRP200     -0.2442
    119  CE2       10.0170   27.4010  -15.0610 C.ar  200  TRP200      0.0810
    120  CE3        9.7020   29.4400  -16.3220 C.ar  200  TRP200      0.0012
    121  CZ2       10.4320   28.1060  -13.9340 C.ar  200  TRP200      0.0191
    122  CZ3       10.1170   30.1370  -15.2030 C.ar  200  TRP200      0.0001
    123  CH2       10.4760   29.4700  -14.0250 C.ar  200  TRP200      0.0015
    124  N         12.9080   35.0420  -22.2690 N.3   214  ASP214     -0.1225
    125  CA        13.5310   36.0050  -21.3690 C.3   214  ASP214      0.1805
    126  C         13.5680   35.5380  -19.9200 C.2   214  ASP214      0.2598
    127  O         14.2800   36.1460  -19.1120 O.2   214  ASP214     -0.2718
    128  CB        12.8020   37.3470  -21.4530 C.3   214  ASP214      0.1424
    129  CG        13.1600   38.1230  -22.7010 C.2   214  ASP214      0.3668
    130  OD1       14.0190   37.6430  -23.4700 O.co2 214  ASP214     -0.2456
    131  OD2       12.5860   39.2120  -22.9130 O.co2 214  ASP214     -0.2456
    132  N         12.8220   34.4900  -19.5660 N.am  215  ARG215     -0.1966
    133  CA        12.8720   33.9750  -18.2030 C.3   215  ARG215      0.1729
    134  C         14.1830   33.2600  -17.9020 C.2   215  ARG215      0.2617
    135  O         14.5120   33.0680  -16.7270 O.2   215  ARG215     -0.2715
    136  CB        11.6970   33.0270  -17.9500 C.3   215  ARG215      0.0348
    137  CG        10.3220   33.6500  -18.1530 C.3   215  ARG215      0.0492
    138  CD         9.2300   32.5890  -18.1240 C.3   215  ARG215      0.2205
    139  NE         7.9300   33.1190  -18.5250 N.pl3 215  ARG215     -0.0865
    140  CZ         7.0600   33.6780  -17.6880 C.cat 215  ARG215      0.5346
    141  NH1        7.3530   33.7840  -16.3990 N.pl3 215  ARG215      0.1354
    142  NH2        5.8990   34.1310  -18.1400 N.pl3 215  ARG215      0.1354
    143  N         14.9380   32.8710  -18.9250 N.am  216  GLY216     -0.1940
    144  CA        16.1420   32.0940  -18.7220 C.3   216  GLY216      0.2014
    145  C         15.9380   30.6010  -18.7700 C.2   216  GLY216      0.2638
    146  O         16.7910   29.8580  -18.2720 O.2   216  GLY216     -0.2714
    147  N         14.8330   30.1360  -19.3540 N.am  217  VAL217     -0.1977
    148  CA        14.4800   28.7190  -19.3870 C.3   217  VAL217      0.1596
    149  C         13.3800   28.5190  -20.4240 C.2   217  VAL217      0.2287
    150  O         12.5720   29.4190  -20.6600 O.2   217  VAL217     -0.2864
    151  CB        14.0360   28.2320  -17.9920 C.3   217  VAL217      0.0276
    152  CG1       12.9170   29.1070  -17.4610 C.3   217  VAL217      0.0022
    153  CG2       13.6150   26.7680  -18.0200 C.3   217  VAL217      0.0022
    154  N          0.3630   31.8810  -17.0490 N.3   242  HIS242     -0.1226
    155  CA         1.8080   32.0910  -16.9750 C.3   242  HIS242      0.1752
    156  C          2.2420   33.5530  -17.0730 C.2   242  HIS242      0.2596
    157  O          3.2340   33.9410  -16.4480 O.2   242  HIS242     -0.2718
    158  CB         2.5080   31.2670  -18.0620 C.3   242  HIS242      0.0759
    159  CG         3.9610   31.0190  -17.8000 C.ar  242  HIS242      0.0818
    160  ND1        4.4730   30.8550  -16.5310 N.ar  242  HIS242     -0.2268
    161  CD2        5.0080   30.8880  -18.6480 C.ar  242  HIS242      0.1154
    162  CE1        5.7750   30.6440  -16.6090 C.ar  242  HIS242      0.1986
    163  NE2        6.1240   30.6580  -17.8820 N.ar  242  HIS242     -0.2212
    164  N          1.5300   34.3720  -17.8460 N.am  243  GLN243     -0.1965
    165  CA         1.9340   35.7510  -18.1000 C.3   243  GLN243      0.1733
    166  C          0.8600   36.7170  -17.6260 C.2   243  GLN243      0.2616
    167  O         -0.3230   36.5390  -17.9360 O.2   243  GLN243     -0.2715
    168  CB         2.2160   35.9800  -19.5880 C.3   243  GLN243      0.0408
    169  CG         3.5440   35.4200  -20.0590 C.3   243  GLN243      0.0908
    170  CD         3.8550   35.7770  -21.5010 C.2   243  GLN243      0.2608
    171  OE1        3.1550   35.3560  -22.4230 O.2   243  GLN243     -0.2717
    172  NE2        4.9140   36.5540  -21.7030 N.am  243  GLN243     -0.0878
    173  N          1.2780   37.7470  -16.8900 N.am  244  VAL244     -0.1977
    174  CA         0.3540   38.7940  -16.4740 C.3   244  VAL244      0.1596
    175  C         -0.0480   39.6160  -17.6910 C.2   244  VAL244      0.2287
    176  O          0.7920   39.9790  -18.5260 O.2   244  VAL244     -0.2864
    177  CB         0.9820   39.6670  -15.3740 C.3   244  VAL244      0.0276
    178  CG1        2.2840   40.2990  -15.8500 C.3   244  VAL244      0.0022
    179  CG2        0.0020   40.7360  -14.9130 C.3   244  VAL244      0.0022
    180  N         -5.0100   35.2720  -16.6660 N.3   261  PHE261     -0.1241
    181  CA        -4.3180   35.7040  -15.4580 C.3   261  PHE261      0.1605
    182  C         -5.3690   36.2260  -14.4930 C.2   261  PHE261      0.2264
    183  O         -6.0430   37.2170  -14.7880 O.2   261  PHE261     -0.2867
    184  CB        -3.2720   36.7790  -15.7700 C.3   261  PHE261      0.0534
    185  CG        -2.2350   36.9530  -14.6950 C.ar  261  PHE261     -0.0203
    186  CD1       -2.4170   37.8780  -13.6810 C.ar  261  PHE261     -0.0042
    187  CD2       -1.0770   36.1920  -14.7020 C.ar  261  PHE261     -0.0042
    188  CE1       -1.4630   38.0410  -12.6920 C.ar  261  PHE261     -0.0003
    189  CE2       -0.1170   36.3530  -13.7180 C.ar  261  PHE261     -0.0003
    190  CZ        -0.3120   37.2770  -12.7110 C.ar  261  PHE261     -0.0000
    191  N         -1.3590   42.7000   -9.7750 N.3   266  TYR266     -0.1227
    192  CA        -0.3840   41.6360   -9.5570 C.3   266  TYR266      0.1736
    193  C          0.7730   42.0760   -8.6680 C.2   266  TYR266      0.2595
    194  O          1.5800   42.9260   -9.0590 O.2   266  TYR266     -0.2718
    195  CB         0.1400   41.1300  -10.9040 C.3   266  TYR266      0.0548
    196  CG         1.1490   40.0100  -10.8080 C.ar  266  TYR266     -0.0200
    197  CD1        1.0240   39.0120   -9.8490 C.ar  266  TYR266     -0.0009
    198  CD2        2.2220   39.9410  -11.6880 C.ar  266  TYR266     -0.0009
    199  CE1        1.9450   37.9860   -9.7620 C.ar  266  TYR266      0.0417
    200  CE2        3.1460   38.9190  -11.6100 C.ar  266  TYR266      0.0417
    201  CZ         3.0030   37.9440  -10.6460 C.ar  266  TYR266      0.1957
    202  OH         3.9210   36.9230  -10.5650 O.3   266  TYR266     -0.2866
    203  N          0.8430   41.4900   -7.4690 N.am  267  CYS267     -0.1970
    204  CA         1.8620   41.7460   -6.4530 C.3   267  CYS267      0.1712
    205  C          2.1640   43.2310   -6.2760 C.2   267  CYS267      0.2296
    206  O          3.3250   43.6240   -6.1230 O.2   267  CYS267     -0.2864
    207  CB         3.1440   40.9600   -6.7670 C.3   267  CYS267      0.0983
    208  SG         4.1050   41.4700   -8.2180 S.3   267  CYS267     -0.0798
    209  N          1.7260   45.8690  -10.7520 N.3   270  PHE270     -0.1241
    210  CA         0.9670   46.0370  -11.9850 C.3   270  PHE270      0.1605
    211  C         -0.4430   46.5490  -11.6990 C.2   270  PHE270      0.2264
    212  O         -0.9820   46.3900  -10.6020 O.2   270  PHE270     -0.2867
    213  CB         0.8980   44.7180  -12.7580 C.3   270  PHE270      0.0534
    214  CG         2.2440   44.1500  -13.1040 C.ar  270  PHE270     -0.0203
    215  CD1        2.9580   43.4010  -12.1810 C.ar  270  PHE270     -0.0042
    216  CD2        2.8010   44.3760  -14.3500 C.ar  270  PHE270     -0.0042
    217  CE1        4.2030   42.8870  -12.4980 C.ar  270  PHE270     -0.0003
    218  CE2        4.0430   43.8630  -14.6730 C.ar  270  PHE270     -0.0003
    219  CZ         4.7450   43.1180  -13.7460 C.ar  270  PHE270     -0.0000
@<TRIPOS>BOND
     1   130   129   ar
     2   131   129   ar
     3   129   128    1
     4   171   170    2
     5   124   125    1
     6   172   170   am
     7   170   169    1
     8   128   125    1
     9   125   126    1
    10   150   149    2
    11   149   148    1
    12   169   168    1
    13   112   113    2
    14   112   111    1
    15   126   132   am
    16   126   127    2
    17   168   165    1
    18   132   133    1
    19   148   147    1
    20   148   151    1
    21   147   145   am
    22   143   144    1
    23   143   134   am
    24   145   144    1
    25   145   146    2
    26   111   110    1
    27   111   114    1
    28   161   163   ar
    29   161   159   ar
    30   114   115    1
    31   176   175    2
    32   139   138    1
    33   139   140    2
    34   105   104    2
    35   133   136    1
    36   133   134    1
    37   137   138    1
    38   137   136    1
    39   142   140    1
    40   165   164    1
    41   165   166    1
    42   158   159    1
    43   158   155    1
    44   153   151    1
    45   151   152    1
    46   167   166    2
    47   134   135    2
    48   163   162   ar
    49   164   156   am
    50   159   160   ar
    51   104   103    1
    52   175   174    1
    53   140   141    1
    54   166   173   am
    55   115   116   ar
    56   115   117   ar
    57   156   155    1
    58   156   157    2
    59   154   155    1
    60   173   174    1
    61   108   107   ar
    62   180   181    1
    63   162   160   ar
    64   116   118   ar
    65   174   177    1
    66   120   117   ar
    67   120   122   ar
    68   103   106    1
    69   103   102    1
    70   117   119   ar
    71    99   100    1
    72    99    96    1
    73   107   106    1
    74   107   109   ar
    75   100   101    1
    76   178   177    1
    77    98    97    2
    78   184   181    1
    79   184   185    1
    80   102    97   am
    81    97    96    1
    82   181   182    1
    83   101    95    1
    84   177   179    1
    85   118   119   ar
    86   122   123   ar
    87   119   121   ar
    88    96    95    1
    89   183   182    2
    90   187   185   ar
    91   187   189   ar
    92   185   186   ar
    93   218   216   ar
    94   218   219   ar
    95    95    90   am
    96   216   214   ar
    97    93    92    1
    98   123   121   ar
    99     7     6   ar
   100   219   217   ar
   101   189   190   ar
   102    42    43    1
   103    42    39    1
   104   186   188   ar
   105    43    45   am
   106    43    44    2
   107    90    89    1
   108    90    91    2
   109     6     8   ar
   110     6     5    1
   111   214   213    1
   112   214   215   ar
   113     1     2    1
   114    38    39    1
   115    89    92    1
   116    89    88    1
   117   213   210    1
   118    39    40    1
   119    92    94    1
   120   190   188   ar
   121   217   215   ar
   122    26    24   ar
   123     5     2    1
   124   210   211    1
   125   210   209    1
   126     2     3    1
   127   211   212    2
   128   198   200   ar
   129   198   196   ar
   130    24    25   ar
   131    24    23    1
   132   200   201   ar
   133    40    41    2
   134    40    46   am
   135     4     3    2
   136    23    20    1
   137   195   196    1
   138   195   192    1
   139   196   197   ar
   140   201   202    1
   141   201   199   ar
   142    46    47    1
   143    19    20    1
   144    53    55   ar
   145    53    51   ar
   146    75    73    1
   147    55    54   ar
   148    18    16   ar
   149    18    17   ar
   150    73    72    1
   151    87    86    1
   152    20    21    1
   153   197   199   ar
   154    16    14   ar
   155   191   192    1
   156    60    61    1
   157    60    57    1
   158   192   193    1
   159    17    15   ar
   160    51    50    1
   161    51    52   ar
   162    47    50    1
   163    47    48    1
   164    54    52   ar
   165    37    35    1
   166   194   193    2
   167    86    85   ar
   168    86    84   ar
   169    74    72    1
   170    22    21    2
   171    72    69    1
   172   193   203   am
   173    85    83   ar
   174    84    82   ar
   175    14    15   ar
   176    14    13    1
   177    56    57    1
   178    57    58    1
   179    34    35    2
   180    34    33    1
   181    48    49    2
   182    35    36    1
   183   208   207    1
   184    67    66    1
   185    66    63    1
   186    69    68    1
   187    69    70    1
   188    83    81   ar
   189    82    81   ar
   190    32    33    1
   191    32    31    1
   192   203   204    1
   193    68    64   am
   194    13    10    1
   195     9    10    1
   196    58    59    2
   197    81    80    1
   198    64    63    1
   199    64    65    2
   200   207   204    1
   201    63    62    1
   202    10    11    1
   203   204   205    1
   204    31    28    1
   205    70    71    2
   206   205   206    2
   207    80    77    1
   208    11    12    2
   209    28    27    1
   210    28    29    1
   211    77    76    1
   212    77    78    1
   213    29    30    2
   214    79    78    2
