@<TRIPOS>MOLECULE
tmp/6am0A00.pdb
 213 205 0 0 0
SMALL
GASTEIGER

@<TRIPOS>ATOM
      1  N        -24.6400   39.7940   -6.2970 N.3    44  GLU44      -0.1245
      2  CA       -25.6780   39.0060   -5.6410 C.3    44  GLU44       0.1567
      3  C        -26.2720   39.7490   -4.4510 C.2    44  GLU44       0.2260
      4  O        -27.4990   39.8540   -4.3200 O.2    44  GLU44      -0.2867
      5  CB       -25.0870   37.6700   -5.2060 C.3    44  GLU44       0.0388
      6  CG       -26.0660   36.7060   -4.6030 C.3    44  GLU44       0.1160
      7  CD       -25.3850   35.4270   -4.1880 C.2    44  GLU44       0.3649
      8  OE1      -24.4790   35.4930   -3.3320 O.co2  44  GLU44      -0.2457
      9  OE2      -25.7380   34.3630   -4.7330 O.co2  44  GLU44      -0.2457
     10  N        -30.2290   40.9310   -4.1180 N.3    48  TRP48      -0.1241
     11  CA       -31.0350   40.6400   -2.9360 C.3    48  TRP48       0.1605
     12  C        -31.5280   41.9230   -2.2810 C.2    48  TRP48       0.2264
     13  O        -32.6970   42.0310   -1.8960 O.2    48  TRP48      -0.2867
     14  CB       -30.2250   39.8250   -1.9330 C.3    48  TRP48       0.0550
     15  CG       -30.0080   38.4080   -2.3120 C.ar   48  TRP48       0.0003
     16  CD1      -30.7880   37.6420   -3.1290 C.ar   48  TRP48       0.0946
     17  CD2      -28.9310   37.5740   -1.8840 C.ar   48  TRP48       0.0152
     18  NE1      -30.2600   36.3770   -3.2340 N.ar   48  TRP48      -0.2442
     19  CE2      -29.1170   36.3110   -2.4800 C.ar   48  TRP48       0.0810
     20  CE3      -27.8240   37.7730   -1.0540 C.ar   48  TRP48       0.0012
     21  CZ2      -28.2380   35.2530   -2.2700 C.ar   48  TRP48       0.0191
     22  CZ3      -26.9530   36.7240   -0.8500 C.ar   48  TRP48       0.0001
     23  CH2      -27.1650   35.4780   -1.4530 C.ar   48  TRP48       0.0015
     24  N        -34.3250   43.5180   -4.3060 N.3    51  THR51      -0.1203
     25  CA       -35.5690   42.7710   -4.1550 C.3    51  THR51       0.1994
     26  C        -36.2090   43.0110   -2.7950 C.2    51  THR51       0.2617
     27  O        -37.4310   43.1660   -2.6970 O.2    51  THR51      -0.2717
     28  CB       -35.3070   41.2790   -4.3540 C.3    51  THR51       0.1784
     29  OG1      -34.7980   41.0500   -5.6740 O.3    51  THR51      -0.2211
     30  CG2      -36.5880   40.4850   -4.1590 C.3    51  THR51       0.0376
     31  N        -35.4030   43.0500   -1.7340 N.am   52  ASP52      -0.1973
     32  CA       -35.9680   43.0850   -0.3900 C.3    52  ASP52       0.1709
     33  C        -36.3450   44.4850    0.0560 C.2    52  ASP52       0.2293
     34  O        -37.3150   44.6460    0.8020 O.2    52  ASP52      -0.2864
     35  CB       -34.9890   42.4980    0.6240 C.3    52  ASP52       0.1436
     36  CG       -34.7540   41.0240    0.4210 C.2    52  ASP52       0.3671
     37  OD1      -35.6600   40.3240   -0.0810 O.co2  52  ASP52      -0.2456
     38  OD2      -33.6520   40.5650    0.7760 O.co2  52  ASP52      -0.2456
     39  N        -19.1160   28.3910   -6.3970 N.3    98  LYS98      -0.1231
     40  CA       -19.8320   28.0270   -5.1770 C.3    98  LYS98       0.1693
     41  C        -19.7810   26.5300   -4.9120 C.2    98  LYS98       0.2591
     42  O        -19.7990   26.1100   -3.7490 O.2    98  LYS98      -0.2718
     43  CB       -21.2900   28.4750   -5.2510 C.3    98  LYS98       0.0285
     44  CG       -21.5340   29.9600   -5.0970 C.3    98  LYS98       0.0035
     45  CD       -22.9870   30.1890   -4.7140 C.3    98  LYS98       0.0206
     46  CE       -23.5650   31.4210   -5.3710 C.3    98  LYS98       0.1093
     47  NZ       -25.0020   31.5780   -5.0200 N.3    98  LYS98      -0.1314
     48  N        -19.7110   25.7130   -5.9710 N.am   99  LYS99      -0.1980
     49  CA       -19.8470   24.2630   -5.8180 C.3    99  LYS99       0.1596
     50  C        -18.8850   23.6600   -4.7960 C.2    99  LYS99       0.2287
     51  O        -19.1710   22.5940   -4.2390 O.2    99  LYS99      -0.2864
     52  CB       -19.6400   23.5710   -7.1660 C.3    99  LYS99       0.0298
     53  CG       -20.8500   23.5810   -8.0750 C.3    99  LYS99       0.0038
     54  CD       -20.5970   22.7360   -9.3090 C.3    99  LYS99       0.0206
     55  CE       -21.8220   22.6940  -10.2070 C.3    99  LYS99       0.1093
     56  NZ       -21.6250   21.7940  -11.3810 N.3    99  LYS99      -0.1314
     57  N        -19.1800   24.0410    3.7850 N.3   103  VAL103     -0.1245
     58  CA       -20.4640   24.3800    4.3890 C.3   103  VAL103      0.1561
     59  C        -20.4440   23.9130    5.8360 C.2   103  VAL103      0.2260
     60  O        -20.2030   22.7300    6.1090 O.2   103  VAL103     -0.2867
     61  CB       -21.6380   23.7470    3.6280 C.3   103  VAL103      0.0252
     62  CG1      -22.9270   23.8950    4.4230 C.3   103  VAL103      0.0019
     63  CG2      -21.7790   24.3860    2.2640 C.3   103  VAL103      0.0019
     64  N        -36.9930   27.9620    0.0560 N.3   122  ILE122     -0.1245
     65  CA       -38.1580   28.5400   -0.6190 C.3   122  ILE122      0.1561
     66  C        -38.7960   27.5360   -1.5710 C.2   122  ILE122      0.2260
     67  O        -40.0110   27.3050   -1.5320 O.2   122  ILE122     -0.2867
     68  CB       -37.7660   29.8450   -1.3340 C.3   122  ILE122      0.0252
     69  CG1      -37.6930   30.9810   -0.3190 C.3   122  ILE122      0.0019
     70  CG2      -38.7560   30.1810   -2.4360 C.3   122  ILE122      0.0019
     71  CD1      -38.9570   31.1430    0.5040 C.3   122  ILE122      0.0001
     72  N        -38.8710   21.5360   -1.2640 N.3   125  LYS125     -0.1231
     73  CA       -37.9070   20.4650   -1.4750 C.3   125  LYS125      0.1693
     74  C        -37.8220   19.5550   -0.2550 C.2   125  LYS125      0.2592
     75  O        -38.8010   18.8980    0.1150 O.2   125  LYS125     -0.2718
     76  CB       -36.5340   21.0660   -1.8010 C.3   125  LYS125      0.0285
     77  CG       -35.6880   20.2910   -2.8000 C.3   125  LYS125      0.0035
     78  CD       -34.3680   21.0190   -3.0480 C.3   125  LYS125      0.0206
     79  CE       -33.7140   20.5870   -4.3570 C.3   125  LYS125      0.1093
     80  NZ       -32.5540   21.4520   -4.7420 N.3   125  LYS125     -0.1314
     81  N        -36.6680   19.5420    0.3970 N.am  126  HIS126     -0.1976
     82  CA       -36.4240   18.6700    1.5330 C.3   126  HIS126      0.1656
     83  C        -36.0810   19.5130    2.7660 C.2   126  HIS126      0.2291
     84  O        -36.1490   20.7450    2.7440 O.2   126  HIS126     -0.2864
     85  CB       -35.3190   17.6690    1.1870 C.3   126  HIS126      0.0771
     86  CG       -35.4620   17.0500   -0.1710 C.ar  126  HIS126      0.0820
     87  ND1      -34.4130   16.9670   -1.0610 N.ar  126  HIS126     -0.2267
     88  CD2      -36.5220   16.4770   -0.7890 C.ar  126  HIS126      0.1154
     89  CE1      -34.8200   16.3770   -2.1700 C.ar  126  HIS126      0.1986
     90  NE2      -36.0960   16.0680   -2.0300 N.ar  126  HIS126     -0.2212
     91  N        -27.3970   25.7890    7.9960 N.3   131  ARG131     -0.1231
     92  CA       -26.0530   25.6460    7.4570 C.3   131  ARG131      0.1694
     93  C        -25.7460   26.8520    6.5820 C.2   131  ARG131      0.2593
     94  O        -26.6330   27.6340    6.2310 O.2   131  ARG131     -0.2718
     95  CB       -25.9180   24.3430    6.6670 C.3   131  ARG131      0.0321
     96  CG       -26.8200   24.2760    5.4500 C.3   131  ARG131      0.0489
     97  CD       -26.8240   22.8920    4.8300 C.3   131  ARG131      0.2205
     98  NE       -27.4570   22.9070    3.5180 N.pl3 131  ARG131     -0.0865
     99  CZ       -28.7720   22.9100    3.3280 C.cat 131  ARG131      0.5346
    100  NH1      -29.5930   22.8960    4.3680 N.pl3 131  ARG131      0.1354
    101  NH2      -29.2640   22.9300    2.0970 N.pl3 131  ARG131      0.1354
    102  N        -24.4710   26.9970    6.2370 N.am  132  GLY132     -0.1942
    103  CA       -24.0830   28.0950    5.3690 C.3   132  GLY132      0.2014
    104  C        -22.6650   27.9260    4.8790 C.2   132  GLY132      0.2638
    105  O        -21.9080   27.0800    5.3660 O.2   132  GLY132     -0.2714
    106  N        -22.3150   28.7570    3.9020 N.am  133  LYS133     -0.1977
    107  CA       -21.0030   28.6940    3.2750 C.3   133  LYS133      0.1596
    108  C        -19.9730   29.4600    4.0980 C.2   133  LYS133      0.2287
    109  O        -20.2860   30.4750    4.7280 O.2   133  LYS133     -0.2864
    110  CB       -21.0730   29.2470    1.8520 C.3   133  LYS133      0.0298
    111  CG       -21.9580   28.4210    0.9240 C.3   133  LYS133      0.0038
    112  CD       -22.4280   29.2170   -0.2900 C.3   133  LYS133      0.0206
    113  CE       -23.3850   30.3340    0.1100 C.3   133  LYS133      0.1093
    114  NZ       -24.5750   29.8300    0.8560 N.3   133  LYS133     -0.1314
    115  N        -29.7240   32.2020    9.4960 N.3   151  GLN151     -0.1245
    116  CA       -30.8010   31.3470    9.0130 C.3   151  GLN151      0.1566
    117  C        -31.9260   31.1870   10.0260 C.2   151  GLN151      0.2260
    118  O        -33.0700   30.9330    9.6320 O.2   151  GLN151     -0.2867
    119  CB       -30.2560   29.9710    8.6440 C.3   151  GLN151      0.0367
    120  CG       -29.2490   30.0000    7.5290 C.3   151  GLN151      0.0905
    121  CD       -29.5180   28.9330    6.5050 C.2   151  GLN151      0.2608
    122  OE1      -29.5840   27.7480    6.8290 O.2   151  GLN151     -0.2717
    123  NE2      -29.6920   29.3470    5.2560 N.am  151  GLN151     -0.0878
    124  N        -19.3510   15.3850   -0.3960 N.3   170  MET170     -0.1230
    125  CA       -20.2960   14.8850   -1.3880 C.3   170  MET170      0.1702
    126  C        -19.8280   15.1000   -2.8230 C.2   170  MET170      0.2592
    127  O        -19.7500   14.1420   -3.5970 O.2   170  MET170     -0.2718
    128  CB       -21.6690   15.5340   -1.1780 C.3   170  MET170      0.0401
    129  CG       -22.4130   15.0120    0.0410 C.3   170  MET170      0.0596
    130  SD       -24.0680   15.7100    0.1900 S.3   170  MET170     -0.1393
    131  CE       -24.7190   15.3810   -1.4470 C.3   170  MET170      0.0692
    132  N        -19.5250   16.3410   -3.2000 N.am  171  ASN171     -0.1974
    133  CA       -19.0930   16.6670   -4.5550 C.3   171  ASN171      0.1688
    134  C        -17.9570   17.6880   -4.4790 C.2   171  ASN171      0.2292
    135  O        -18.0110   18.7710   -5.0530 O.2   171  ASN171     -0.2864
    136  CB       -20.2580   17.2010   -5.3870 C.3   171  ASN171      0.1181
    137  CG       -21.5400   16.4220   -5.1670 C.2   171  ASN171      0.2629
    138  OD1      -22.2850   16.6840   -4.2210 O.2   171  ASN171     -0.2716
    139  ND2      -21.8040   15.4590   -6.0420 N.am  171  ASN171     -0.0877
    140  N        -17.7070   19.4100   -2.1360 N.3   173  LYS173     -0.1245
    141  CA       -18.3110   20.2670   -1.1270 C.3   173  LYS173      0.1561
    142  C        -18.1080   19.6370    0.2450 C.2   173  LYS173      0.2260
    143  O        -18.6850   18.5860    0.5450 O.2   173  LYS173     -0.2867
    144  CB       -19.7920   20.4480   -1.4460 C.3   173  LYS173      0.0271
    145  CG       -20.5790   21.2110   -0.4110 C.3   173  LYS173      0.0035
    146  CD       -20.4100   22.6990   -0.5760 C.3   173  LYS173      0.0206
    147  CE       -21.2230   23.2400   -1.7340 C.3   173  LYS173      0.1093
    148  NZ       -21.1600   24.7260   -1.7710 N.3   173  LYS173     -0.1314
    149  N        -18.8690   19.2390    3.8150 N.3   175  PHE175     -0.1241
    150  CA       -19.8960   19.5010    4.8150 C.3   175  PHE175      0.1605
    151  C        -19.3740   19.1620    6.2050 C.2   175  PHE175      0.2264
    152  O        -18.8120   18.0820    6.4190 O.2   175  PHE175     -0.2867
    153  CB       -21.1540   18.6810    4.5340 C.3   175  PHE175      0.0534
    154  CG       -22.0000   19.2190    3.4200 C.ar  175  PHE175     -0.0203
    155  CD1      -22.8310   20.3050    3.6310 C.ar  175  PHE175     -0.0042
    156  CD2      -21.9840   18.6240    2.1710 C.ar  175  PHE175     -0.0042
    157  CE1      -23.6200   20.7980    2.6140 C.ar  175  PHE175     -0.0003
    158  CE2      -22.7730   19.1110    1.1510 C.ar  175  PHE175     -0.0003
    159  CZ       -23.5900   20.2010    1.3710 C.ar  175  PHE175     -0.0000
    160  N        -33.1620   37.0080    6.6540 N.3   193  HIS193     -0.1226
    161  CA       -33.4510   37.4590    5.3040 C.3   193  HIS193      0.1752
    162  C        -34.6710   36.7210    4.7810 C.2   193  HIS193      0.2596
    163  O        -34.8130   35.5140    4.9940 O.2   193  HIS193     -0.2718
    164  CB       -32.2560   37.2230    4.3750 C.3   193  HIS193      0.0759
    165  CG       -30.9850   37.8410    4.8660 C.ar  193  HIS193      0.0818
    166  ND1      -29.9570   37.1000    5.4100 N.ar  193  HIS193     -0.2268
    167  CD2      -30.5810   39.1320    4.9090 C.ar  193  HIS193      0.1154
    168  CE1      -28.9730   37.9080    5.7600 C.ar  193  HIS193      0.1986
    169  NE2      -29.3260   39.1460    5.4680 N.ar  193  HIS193     -0.2212
    170  N        -35.5480   37.4450    4.0990 N.am  194  LYS194     -0.1966
    171  CA       -36.7250   36.8240    3.5180 C.3   194  LYS194      0.1728
    172  C        -36.4040   36.3020    2.1200 C.2   194  LYS194      0.2616
    173  O        -35.3820   36.6470    1.5220 O.2   194  LYS194     -0.2715
    174  CB       -37.8930   37.8090    3.4810 C.3   194  LYS194      0.0311
    175  CG       -39.2530   37.1430    3.6060 C.3   194  LYS194      0.0038
    176  CD       -40.2940   38.1010    4.1590 C.3   194  LYS194      0.0206
    177  CE       -41.6710   37.4560    4.1860 C.3   194  LYS194      0.1093
    178  NZ       -42.7010   38.3620    4.7690 N.3   194  LYS194     -0.1314
    179  N        -37.2970   35.4460    1.6150 N.am  195  ASN195     -0.1958
    180  CA       -37.1310   34.6900    0.3730 C.3   195  ASN195      0.1819
    181  C        -35.9550   33.7280    0.4270 C.2   195  ASN195      0.2621
    182  O        -35.4630   33.2930   -0.6190 O.2   195  ASN195     -0.2715
    183  CB       -36.9870   35.6080   -0.8490 C.3   195  ASN195      0.1195
    184  CG       -38.0330   36.6970   -0.8830 C.2   195  ASN195      0.2630
    185  OD1      -37.7070   37.8830   -0.8270 O.2   195  ASN195     -0.2716
    186  ND2      -39.2990   36.3030   -0.9720 N.am  195  ASN195     -0.0877
    187  N        -35.5030   33.3790    1.6290 N.am  196  GLU196     -0.1977
    188  CA       -34.4240   32.4240    1.8340 C.3   196  GLU196      0.1602
    189  C        -34.9020   31.1360    2.4840 C.2   196  GLU196      0.2287
    190  O        -34.5720   30.0430    2.0100 O.2   196  GLU196     -0.2864
    191  CB       -33.3120   33.0520    2.6910 C.3   196  GLU196      0.0415
    192  CG       -32.0690   32.1800    2.8210 C.3   196  GLU196      0.1163
    193  CD       -31.0440   32.7320    3.8000 C.2   196  GLU196      0.3649
    194  OE1      -31.3710   33.6790    4.5480 O.co2 196  GLU196     -0.2457
    195  OE2      -29.9080   32.2080    3.8200 O.co2 196  GLU196     -0.2457
    196  N        -35.7520   14.6000    2.7530 N.3   219  VAL219     -0.1231
    197  CA       -34.6260   15.0280    3.5760 C.3   219  VAL219      0.1692
    198  C        -33.3510   15.0930    2.7380 C.2   219  VAL219      0.2592
    199  O        -33.1710   14.3390    1.7760 O.2   219  VAL219     -0.2718
    200  CB       -34.4580   14.0880    4.7950 C.3   219  VAL219      0.0266
    201  CG1      -33.2110   14.4040    5.5500 C.3   219  VAL219      0.0020
    202  CG2      -35.6560   14.2030    5.7310 C.3   219  VAL219      0.0020
    203  N        -32.4720   16.0320    3.1030 N.am  220  PHE220     -0.1976
    204  CA       -31.1370   16.1730    2.5350 C.3   220  PHE220      0.1639
    205  C        -30.1240   16.1750    3.6720 C.2   220  PHE220      0.2290
    206  O        -30.3850   16.7390    4.7400 O.2   220  PHE220     -0.2864
    207  CB       -31.0270   17.4650    1.7020 C.3   220  PHE220      0.0560
    208  CG       -29.6270   17.7950    1.2550 C.ar  220  PHE220     -0.0200
    209  CD1      -28.8850   16.8860    0.5180 C.ar  220  PHE220     -0.0042
    210  CD2      -29.0660   19.0300    1.5480 C.ar  220  PHE220     -0.0042
    211  CE1      -27.6020   17.1930    0.1000 C.ar  220  PHE220     -0.0003
    212  CE2      -27.7850   19.3450    1.1320 C.ar  220  PHE220     -0.0003
    213  CZ       -27.0520   18.4250    0.4060 C.ar  220  PHE220     -0.0000
@<TRIPOS>BOND
     1    56    55    1
     2    55    54    1
     3    54    53    1
     4    53    52    1
     5    52    49    1
     6    39    40    1
     7     1     2    1
     8   139   137   am
     9    48    49    1
    10    48    41   am
    11    49    50    1
    12    29    28    1
    13     2     5    1
    14     2     3    1
    15   136   137    1
    16   136   133    1
    17    46    47    1
    18    46    45    1
    19    43    40    1
    20    43    44    1
    21     5     6    1
    22    40    41    1
    23   137   138    2
    24    44    45    1
    25   135   134    2
    26    41    42    2
    27    50    51    2
    28    80    79    1
    29     9     7   ar
    30     6     7    1
    31   133   134    1
    32   133   132    1
    33     3     4    2
    34    79    78    1
    35    28    30    1
    36    28    25    1
    37    24    25    1
    38     7     8   ar
    39    25    26    1
    40    10    11    1
    41   127   126    2
    42    18    16   ar
    43    18    19   ar
    44   132   126   am
    45    16    15   ar
    46    78    77    1
    47    11    12    1
    48    11    14    1
    49   126   125    1
    50    77    76    1
    51    26    27    2
    52    26    31   am
    53    19    21   ar
    54    19    17   ar
    55    70    68    1
    56    15    14    1
    57    15    17   ar
    58    12    13    2
    59    21    23   ar
    60    89    90   ar
    61    89    87   ar
    62   140   141    1
    63    90    88   ar
    64    17    20   ar
    65    76    73    1
    66   148   147    1
    67   147   146    1
    68    31    32    1
    69    66    67    2
    70    66    65    1
    71    73    72    1
    72    73    74    1
    73    23    22   ar
    74   131   130    1
    75   144   141    1
    76   144   145    1
    77   125   128    1
    78   125   124    1
    79    68    65    1
    80    68    69    1
    81   128   129    1
    82   141   142    1
    83    87    86   ar
    84    20    22   ar
    85   186   184   am
    86   184   183    1
    87   184   185    2
    88   183   180    1
    89    88    86   ar
    90    65    64    1
    91   182   181    2
    92   146   145    1
    93    32    33    1
    94    32    35    1
    95    69    71    1
    96   112   113    1
    97   112   111    1
    98    74    75    2
    99    74    81   am
   100    86    85    1
   101    37    36   ar
   102   129   130    1
   103    33    34    2
   104   211   213   ar
   105   211   209   ar
   106   113   114    1
   107   142   143    2
   108   180   181    1
   109   180   179    1
   110    81    82    1
   111   213   212   ar
   112    36    35    1
   113    36    38   ar
   114   181   187   am
   115   209   208   ar
   116   111   110    1
   117   212   210   ar
   118   158   159   ar
   119   158   156   ar
   120    85    82    1
   121   208   210   ar
   122   208   207    1
   123   159   157   ar
   124   173   172    2
   125    82    83    1
   126   179   172   am
   127   187   188    1
   128   207   204    1
   129   199   198    2
   130   188   189    1
   131   188   191    1
   132   110   107    1
   133   190   189    2
   134   101    99    1
   135   172   171    1
   136   156   154   ar
   137    63    61    1
   138   204   203    1
   139   204   205    1
   140   157   155   ar
   141   191   192    1
   142   198   203   am
   143   198   197    1
   144    84    83    2
   145   196   197    1
   146   192   193    1
   147   107   106    1
   148   107   108    1
   149    99    98    2
   150    99   100    1
   151   154   155   ar
   152   154   153    1
   153   174   171    1
   154   174   175    1
   155    98    97    1
   156   171   170    1
   157   197   200    1
   158   175   176    1
   159    61    58    1
   160    61    62    1
   161   205   206    2
   162    57    58    1
   163   193   195   ar
   164   193   194   ar
   165   149   150    1
   166   106   104   am
   167   108   109    2
   168   170   162   am
   169   176   177    1
   170   177   178    1
   171   164   165    1
   172   164   161    1
   173    58    59    1
   174   153   150    1
   175   162   163    2
   176   162   161    1
   177   200   201    1
   178   200   202    1
   179   150   151    1
   180    97    96    1
   181   165   167   ar
   182   165   166   ar
   183   104   105    2
   184   104   103    1
   185   167   169   ar
   186   123   121   am
   187   161   160    1
   188   103   102    1
   189   166   168   ar
   190    96    95    1
   191   169   168   ar
   192    59    60    2
   193   151   152    2
   194    94    93    2
   195   102    93   am
   196   121   122    2
   197   121   120    1
   198    93    92    1
   199    95    92    1
   200    92    91    1
   201   120   119    1
   202   119   116    1
   203   116   115    1
   204   116   117    1
   205   118   117    2
