@<TRIPOS>MOLECULE
tmp/6am8B00.pdb
 102 99 0 0 0
SMALL
GASTEIGER

@<TRIPOS>ATOM
      1  N         -1.3580  -31.1810   65.5120 N.3    10  TYR10      -0.1227
      2  CA        -0.2710  -31.0430   66.4800 C.3    10  TYR10       0.1736
      3  C          0.8810  -30.2570   65.8580 C.2    10  TYR10       0.2595
      4  O          1.8410  -30.8290   65.3400 O.2    10  TYR10      -0.2718
      5  CB         0.1430  -32.4340   66.9690 C.3    10  TYR10       0.0548
      6  CG        -1.0710  -33.2500   67.3710 C.ar   10  TYR10      -0.0200
      7  CD1       -1.9030  -32.8170   68.4010 C.ar   10  TYR10      -0.0009
      8  CD2       -1.4370  -34.4050   66.6720 C.ar   10  TYR10      -0.0009
      9  CE1       -3.0350  -33.5310   68.7610 C.ar   10  TYR10       0.0417
     10  CE2       -2.5720  -35.1260   67.0260 C.ar   10  TYR10       0.0417
     11  CZ        -3.3650  -34.6840   68.0740 C.ar   10  TYR10       0.1957
     12  OH        -4.4900  -35.3860   68.4450 O.3    10  TYR10      -0.2866
     13  N          0.7550  -28.9330   65.9110 N.am   11  VAL11      -0.1966
     14  CA         1.6370  -28.0120   65.1850 C.3    11  VAL11       0.1712
     15  C          2.1530  -26.9210   66.1200 C.2    11  VAL11       0.2458
     16  O          1.6140  -26.7460   67.2090 O.2    11  VAL11      -0.2730
     17  CB         0.9010  -27.3480   63.9900 C.3    11  VAL11       0.0289
     18  CG1        0.5130  -28.3970   62.9600 C.3    11  VAL11       0.0023
     19  CG2       -0.3310  -26.5710   64.4450 C.3    11  VAL11       0.0023
     20  N          3.1950  -26.1770   65.6990 N.am   12  PRO12      -0.2727
     21  CA         3.5840  -24.9880   66.4710 C.3    12  PRO12       0.1402
     22  C          2.4920  -23.9190   66.4180 C.2    12  PRO12       0.2269
     23  O          1.7570  -23.8480   65.4240 O.2    12  PRO12      -0.2865
     24  CB         4.8630  -24.5050   65.7690 C.3    12  PRO12       0.0296
     25  CG         4.8290  -25.1250   64.4140 C.3    12  PRO12       0.0237
     26  CD         4.1420  -26.4470   64.6000 C.3    12  PRO12       0.0939
     27  N          1.3180  -21.8240   63.3710 N.3    15  LEU15      -0.1245
     28  CA         0.4710  -22.4140   62.3130 C.3    15  LEU15       0.1561
     29  C         -1.0020  -22.6420   62.6850 C.2    15  LEU15       0.2260
     30  O         -1.7930  -23.0250   61.8260 O.2    15  LEU15      -0.2867
     31  CB         1.0760  -23.7340   61.8160 C.3    15  LEU15       0.0270
     32  CG         2.3870  -23.6280   61.0330 C.3    15  LEU15       0.0019
     33  CD1        2.8650  -25.0180   60.6340 C.3    15  LEU15       0.0001
     34  CD2        2.2210  -22.7390   59.8040 C.3    15  LEU15       0.0001
     35  N          9.4780  -31.4320   55.7190 N.3   166  ASN166     -0.1240
     36  CA        10.0680  -30.6140   56.7910 C.3   166  ASN166      0.1653
     37  C         10.4380  -29.2130   56.2940 C.2   166  ASN166      0.2266
     38  O         10.1380  -28.2190   56.9540 O.2   166  ASN166     -0.2867
     39  CB        11.3040  -31.3040   57.3890 C.3   166  ASN166      0.1155
     40  CG        10.9600  -32.5810   58.1450 C.2   166  ASN166      0.2627
     41  OD1        9.8440  -32.7520   58.6370 O.2   166  ASN166     -0.2716
     42  ND2       11.9300  -33.4850   58.2460 N.am  166  ASN166     -0.0877
     43  N          7.2240  -27.1350   55.3880 N.3   169  LEU169     -0.1231
     44  CA         6.5920  -26.6680   56.6190 C.3   169  LEU169      0.1693
     45  C          7.3260  -25.4690   57.2190 C.2   169  LEU169      0.2591
     46  O          6.6870  -24.5210   57.6730 O.2   169  LEU169     -0.2718
     47  CB         6.4920  -27.7980   57.6480 C.3   169  LEU169      0.0284
     48  CG         5.4010  -28.8400   57.3970 C.3   169  LEU169      0.0019
     49  CD1        5.6430  -30.0730   58.2540 C.3   169  LEU169      0.0001
     50  CD2        4.0160  -28.2650   57.6660 C.3   169  LEU169      0.0001
     51  N          8.6600  -25.5100   57.1980 N.am  170  ARG170     -0.1980
     52  CA         9.4870  -24.3890   57.6630 C.3   170  ARG170      0.1597
     53  C          9.2550  -23.1150   56.8440 C.2   170  ARG170      0.2287
     54  O          9.1860  -22.0180   57.4000 O.2   170  ARG170     -0.2864
     55  CB        10.9710  -24.7700   57.6300 C.3   170  ARG170      0.0334
     56  CG        11.9050  -23.6690   58.1520 C.3   170  ARG170      0.0492
     57  CD        13.3530  -24.1410   58.2920 C.3   170  ARG170      0.2205
     58  NE        13.4760  -25.1740   59.3200 N.pl3 170  ARG170     -0.0865
     59  CZ        13.5210  -26.4780   59.0700 C.cat 170  ARG170      0.5346
     60  NH1       13.5060  -26.9080   57.8130 N.pl3 170  ARG170      0.1354
     61  NH2       13.6160  -27.3550   60.0750 N.pl3 170  ARG170      0.1354
     62  N          5.5830  -21.7060   57.7620 N.3   173  VAL173     -0.1245
     63  CA         5.6570  -20.9810   59.0450 C.3   173  VAL173      0.1561
     64  C          6.0330  -19.5100   58.8330 C.2   173  VAL173      0.2260
     65  O          5.4810  -18.6290   59.4930 O.2   173  VAL173     -0.2867
     66  CB         6.6550  -21.6690   60.0200 C.3   173  VAL173      0.0252
     67  CG1        7.0910  -20.7470   61.1560 C.3   173  VAL173      0.0019
     68  CG2        6.0380  -22.9400   60.5890 C.3   173  VAL173      0.0019
     69  N         -1.5160  -31.8670   59.2680 N.3   189  PRO189     -0.2116
     70  CA        -2.5140  -31.4850   60.2560 C.3   189  PRO189      0.1372
     71  C         -3.8700  -31.2670   59.6100 C.2   189  PRO189      0.2244
     72  O         -3.9340  -30.8830   58.4480 O.2   189  PRO189     -0.2868
     73  CB        -1.9810  -30.1540   60.7830 C.3   189  PRO189      0.0268
     74  CG        -1.2500  -29.5760   59.6200 C.3   189  PRO189      0.0207
     75  CD        -0.6060  -30.7510   58.9480 C.3   189  PRO189      0.0892
     76  N          3.3970  -39.3710   66.5760 N.3   273  VAL273     -0.1231
     77  CA         3.0780  -38.0350   66.0890 C.3   273  VAL273      0.1692
     78  C          4.2230  -37.4700   65.2580 C.2   273  VAL273      0.2593
     79  O          5.3660  -37.4150   65.7080 O.2   273  VAL273     -0.2718
     80  CB         2.7420  -37.0780   67.2480 C.3   273  VAL273      0.0266
     81  CG1        2.5200  -35.6560   66.7390 C.3   273  VAL273      0.0020
     82  CG2        1.5140  -37.5880   67.9900 C.3   273  VAL273      0.0020
     83  N          3.8950  -37.0600   64.0360 N.am  274  SER274     -0.1938
     84  CA         4.8280  -36.3360   63.1810 C.3   274  SER274      0.2055
     85  C          4.0330  -35.5920   62.1170 C.2   274  SER274      0.2643
     86  O          2.9280  -35.9980   61.7700 O.2   274  SER274     -0.2714
     87  CB         5.8280  -37.3000   62.5280 C.3   274  SER274      0.2130
     88  OG         6.9770  -36.6150   62.0620 O.3   274  SER274     -0.2179
     89  N          4.5900  -34.4840   61.6390 N.am  275  HIS275     -0.1959
     90  CA         3.9940  -33.6820   60.5700 C.3   275  HIS275      0.1787
     91  C          2.5550  -33.2540   60.8660 C.2   275  HIS275      0.2620
     92  O          1.7140  -33.2260   59.9740 O.2   275  HIS275     -0.2715
     93  CB         4.0840  -34.4290   59.2300 C.3   275  HIS275      0.0785
     94  CG         5.4840  -34.5980   58.7330 C.ar  275  HIS275      0.0821
     95  ND1        5.8830  -35.6810   57.9800 N.ar  275  HIS275     -0.2267
     96  CD2        6.5790  -33.8130   58.8750 C.ar  275  HIS275      0.1154
     97  CE1        7.1630  -35.5520   57.6740 C.ar  275  HIS275      0.1986
     98  NE2        7.6080  -34.4280   58.2060 N.ar  275  HIS275     -0.2212
     99  N          2.2850  -32.9250   62.1270 N.am  276  GLY276     -0.1954
    100  CA         0.9770  -32.4210   62.5340 C.3   276  GLY276      0.1869
    101  C         -0.1000  -33.4580   62.8110 C.2   276  GLY276      0.2309
    102  O         -1.2230  -33.0840   63.1570 O.2   276  GLY276     -0.2863
@<TRIPOS>BOND
     1    43    44    1
     2    35    36    1
     3    37    36    1
     4    37    38    2
     5    44    45    1
     6    44    47    1
     7    36    39    1
     8    53    54    2
     9    53    52    1
    10    51    45   am
    11    51    52    1
    12    45    46    2
    13    39    40    1
    14    48    47    1
    15    48    50    1
    16    48    49    1
    17    55    52    1
    18    55    56    1
    19    97    95   ar
    20    97    98   ar
    21    62    63    1
    22    60    59    1
    23    95    94   ar
    24    40    42   am
    25    40    41    2
    26    56    57    1
    27    98    96   ar
    28    57    58    1
    29    72    71    2
    30    94    96   ar
    31    94    93    1
    32    64    63    1
    33    64    65    2
    34    75    69    1
    35    75    74    1
    36    63    66    1
    37    59    58    2
    38    59    61    1
    39    93    90    1
    40    69    70    1
    41    71    70    1
    42    74    73    1
    43    34    32    1
    44    92    91    2
    45    66    68    1
    46    66    67    1
    47    70    73    1
    48    90    91    1
    49    90    89    1
    50    33    32    1
    51    91    99   am
    52    32    31    1
    53    89    85   am
    54    86    85    2
    55    31    28    1
    56    30    29    2
    57    88    87    1
    58    85    84    1
    59    99   100    1
    60    28    29    1
    61    28    27    1
    62    87    84    1
    63   100   101    1
    64   101   102    2
    65    18    17    1
    66    84    83    1
    67    17    19    1
    68    17    14    1
    69    83    78   am
    70    25    26    1
    71    25    24    1
    72    26    20    1
    73    14    13    1
    74    14    15    1
    75    78    79    2
    76    78    77    1
    77     4     3    2
    78    23    22    2
    79     1     2    1
    80    20    15   am
    81    20    21    1
    82    24    21    1
    83     3    13   am
    84     3     2    1
    85    77    76    1
    86    77    80    1
    87    15    16    2
    88    22    21    1
    89     2     5    1
    90     8    10   ar
    91     8     6   ar
    92    81    80    1
    93     5     6    1
    94    10    11   ar
    95    80    82    1
    96     6     7   ar
    97    11    12    1
    98    11     9   ar
    99     7     9   ar
