@<TRIPOS>MOLECULE
tmp/6amiD00.pdb
 112 106 0 0 0
SMALL
GASTEIGER

@<TRIPOS>ATOM
      1  N        138.8700   33.3810  171.3990 N.3   103  GLU103     -0.1231
      2  CA       139.4850   34.6960  171.3720 C.3   103  GLU103      0.1699
      3  C        138.9900   35.4940  172.5620 C.2   103  GLU103      0.2593
      4  O        137.9020   35.2410  173.0710 O.2   103  GLU103     -0.2718
      5  CB       139.1250   35.4280  170.0630 C.3   103  GLU103      0.0402
      6  CG       137.7510   36.1220  170.0120 C.3   103  GLU103      0.1161
      7  CD       136.5470   35.1770  170.0090 C.2   103  GLU103      0.3649
      8  OE1      136.7220   33.9430  169.8780 O.co2 103  GLU103     -0.2457
      9  OE2      135.4050   35.6780  170.1410 O.co2 103  GLU103     -0.2457
     10  N        139.7780   36.4740  172.9870 N.am  104  THR104     -0.1939
     11  CA       139.2840   37.4830  173.9120 C.3   104  THR104      0.2028
     12  C        140.1230   38.7640  173.8360 C.2   104  THR104      0.2643
     13  O        141.3330   38.7100  173.6150 O.2   104  THR104     -0.2714
     14  CB       139.2020   36.9390  175.3620 C.3   104  THR104      0.1808
     15  OG1      138.4370   37.8400  176.1650 O.3   104  THR104     -0.2208
     16  CG2      140.5800   36.7320  175.9710 C.3   104  THR104      0.0379
     17  N        139.4510   39.9030  173.9920 N.am  105  GLY105     -0.1939
     18  CA       140.0850   41.2220  174.0320 C.3   105  GLY105      0.2014
     19  C        139.9010   41.8580  175.3960 C.2   105  GLY105      0.2638
     20  O        140.8690   42.1760  176.0750 O.2   105  GLY105     -0.2714
     21  N        138.6440   42.0380  175.7920 N.am  106  ALA106     -0.1977
     22  CA       138.2910   42.5300  177.1330 C.3   106  ALA106      0.1597
     23  C        138.5810   41.5290  178.2600 C.2   106  ALA106      0.2287
     24  O        138.7000   41.9330  179.4120 O.2   106  ALA106     -0.2864
     25  CB       136.8210   42.9290  177.1770 C.3   106  ALA106      0.0319
     26  N        136.3770   39.1690  178.9650 N.3   108  GLN108     -0.1231
     27  CA       135.0430   38.7200  179.3700 C.3   108  GLN108      0.1698
     28  C        134.6110   37.4160  178.7110 C.2   108  GLN108      0.2592
     29  O        134.0860   36.5270  179.3860 O.2   108  GLN108     -0.2718
     30  CB       134.0150   39.8370  179.1270 C.3   108  GLN108      0.0381
     31  CG       134.1240   40.9790  180.1420 C.3   108  GLN108      0.0905
     32  CD       134.0680   42.3910  179.5500 C.2   108  GLN108      0.2608
     33  OE1      134.7140   43.3030  180.0750 O.2   108  GLN108     -0.2717
     34  NE2      133.2810   42.5910  178.4920 N.am  108  GLN108     -0.0878
     35  N        134.8390   37.2950  177.4030 N.am  109  HIS109     -0.1976
     36  CA       134.5470   36.0510  176.6980 C.3   109  HIS109      0.1656
     37  C        135.5130   34.9350  177.0950 C.2   109  HIS109      0.2291
     38  O        135.1030   33.7820  177.2330 O.2   109  HIS109     -0.2864
     39  CB       134.5430   36.2370  175.1720 C.3   109  HIS109      0.0771
     40  CG       134.1610   34.9920  174.4430 C.ar  109  HIS109      0.0820
     41  ND1      132.9650   34.3510  174.6740 N.ar  109  HIS109     -0.2267
     42  CD2      134.8340   34.2290  173.5520 C.ar  109  HIS109      0.1154
     43  CE1      132.9100   33.2530  173.9440 C.ar  109  HIS109      0.1986
     44  NE2      134.0240   33.1650  173.2400 N.ar  109  HIS109     -0.2212
     45  N        142.3600   41.9310  169.7170 N.3   160  LEU160     -0.1245
     46  CA       141.1900   41.0820  169.4120 C.3   160  LEU160      0.1561
     47  C        141.1180   40.5560  167.9680 C.2   160  LEU160      0.2260
     48  O        140.8380   39.3710  167.7530 O.2   160  LEU160     -0.2867
     49  CB       139.9030   41.8520  169.7450 C.3   160  LEU160      0.0270
     50  CG       138.5330   41.2190  169.4690 C.3   160  LEU160      0.0019
     51  CD1      138.4050   39.8330  170.0880 C.3   160  LEU160      0.0001
     52  CD2      137.4380   42.1430  169.9820 C.3   160  LEU160      0.0001
     53  N        141.5840   36.3570  166.9520 N.3   164  ILE164     -0.1245
     54  CA       140.6450   35.6130  166.1060 C.3   164  ILE164      0.1561
     55  C        141.4170   34.8710  165.0060 C.2   164  ILE164      0.2260
     56  O        141.1340   33.7070  164.7300 O.2   164  ILE164     -0.2867
     57  CB       139.5490   36.5450  165.5140 C.3   164  ILE164      0.0252
     58  CG1      138.6070   37.0260  166.6260 C.3   164  ILE164      0.0019
     59  CG2      138.7280   35.8430  164.4300 C.3   164  ILE164      0.0019
     60  CD1      137.7240   38.1970  166.2440 C.3   164  ILE164      0.0001
     61  N        132.9420   34.5340  170.2990 N.3   183  GLY183     -0.1210
     62  CA       132.3600   35.3240  171.3850 C.3   183  GLY183      0.1956
     63  C        131.2110   36.2620  171.0790 C.2   183  GLY183      0.2612
     64  O        130.5900   36.7880  172.0060 O.2   183  GLY183     -0.2717
     65  N        130.9410   36.4960  169.7990 N.am  184  SER184     -0.1952
     66  CA       129.8500   37.3660  169.3730 C.3   184  SER184      0.1924
     67  C        129.2540   36.8780  168.0460 C.2   184  SER184      0.2314
     68  O        129.7400   35.9070  167.4540 O.2   184  SER184     -0.2863
     69  CB       130.3720   38.7950  169.2290 C.3   184  SER184      0.2116
     70  OG       129.3110   39.7100  169.0470 O.3   184  SER184     -0.2180
     71  N        129.6350   37.1810  165.0300 N.3   186  VAL186     -0.1245
     72  CA       130.6010   37.5660  164.0230 C.3   186  VAL186      0.1561
     73  C        131.2130   36.2970  163.4410 C.2   186  VAL186      0.2260
     74  O        130.8640   35.1820  163.8540 O.2   186  VAL186     -0.2867
     75  CB       131.6930   38.4940  164.6100 C.3   186  VAL186      0.0252
     76  CG1      131.0650   39.7830  165.1160 C.3   186  VAL186      0.0019
     77  CG2      132.4830   37.8080  165.7250 C.3   186  VAL186      0.0019
     78  N        129.9990   43.5010  169.0370 N.3   227  GLY227     -0.1225
     79  CA       129.8090   42.6400  167.8900 C.3   227  GLY227      0.1811
     80  C        128.3240   42.4350  167.6190 C.2   227  GLY227      0.2280
     81  O        127.9280   42.2850  166.4650 O.2   227  GLY227     -0.2866
     82  N        135.5270   48.0470  177.3110 N.3   295  PRO295     -0.2102
     83  CA       136.3680   47.1560  176.4920 C.3   295  PRO295      0.1504
     84  C        135.5860   46.1310  175.6400 C.2   295  PRO295      0.2576
     85  O        136.0670   45.7340  174.5710 O.2   295  PRO295     -0.2718
     86  CB       137.2850   46.4850  177.5150 C.3   295  PRO295      0.0282
     87  CG       136.5230   46.5310  178.7990 C.3   295  PRO295      0.0208
     88  CD       135.7020   47.7910  178.7530 C.3   295  PRO295      0.0893
     89  N        134.3930   45.7450  176.0850 N.am  296  GLY296     -0.1957
     90  CA       133.5040   44.8870  175.3070 C.3   296  GLY296      0.1869
     91  C        132.9550   45.4880  174.0150 C.2   296  GLY296      0.2309
     92  O        132.5830   44.7520  173.1190 O.2   296  GLY296     -0.2863
     93  N        134.8210   47.5510  172.1460 N.3   298  ASP298     -0.1225
     94  CA       136.0160   47.9270  171.4030 C.3   298  ASP298      0.1805
     95  C        136.3220   46.8770  170.3300 C.2   298  ASP298      0.2597
     96  O        137.1600   45.9940  170.5190 O.2   298  ASP298     -0.2718
     97  CB       137.1850   48.0700  172.3930 C.3   298  ASP298      0.1424
     98  CG       138.3390   48.8830  171.8490 C.2   298  ASP298      0.3668
     99  OD1      138.3730   49.1840  170.6370 O.co2 298  ASP298     -0.2456
    100  OD2      139.2220   49.2300  172.6620 O.co2 298  ASP298     -0.2456
    101  N        135.6260   46.9870  169.2020 N.am  299  TYR299     -0.1976
    102  CA       135.7940   46.0750  168.0670 C.3   299  TYR299      0.1639
    103  C        135.5840   46.8730  166.7670 C.2   299  TYR299      0.2290
    104  O        134.5970   47.6120  166.6630 O.2   299  TYR299     -0.2864
    105  CB       134.7990   44.9170  168.1860 C.3   299  TYR299      0.0560
    106  CG       134.7880   43.9380  167.0230 C.ar  299  TYR299     -0.0198
    107  CD1      135.9470   43.2720  166.6300 C.ar  299  TYR299     -0.0009
    108  CD2      133.6020   43.6460  166.3430 C.ar  299  TYR299     -0.0009
    109  CE1      135.9360   42.3670  165.5740 C.ar  299  TYR299      0.0417
    110  CE2      133.5770   42.7390  165.2900 C.ar  299  TYR299      0.0417
    111  CZ       134.7450   42.1010  164.9050 C.ar  299  TYR299      0.1957
    112  OH       134.7210   41.2030  163.8540 O.3   299  TYR299     -0.2866
@<TRIPOS>BOND
     1    73    74    2
     2    73    72    1
     3   112   111    1
     4    72    75    1
     5    72    71    1
     6    59    57    1
     7    75    76    1
     8    75    77    1
     9    56    55    2
    10   111   110   ar
    11   111   109   ar
    12    55    54    1
    13   110   108   ar
    14    57    54    1
    15    57    58    1
    16   109   107   ar
    17    54    53    1
    18    60    58    1
    19   108   106   ar
    20    81    80    2
    21   107   106   ar
    22   104   103    2
    23   103   102    1
    24   106   105    1
    25    68    67    2
    26    80    79    1
    27    48    47    2
    28    79    78    1
    29    47    46    1
    30    67    66    1
    31   102   105    1
    32   102   101    1
    33    70    69    1
    34   101    95   am
    35    69    66    1
    36    66    65    1
    37    46    45    1
    38    46    49    1
    39    50    49    1
    40    50    52    1
    41    50    51    1
    42    65    63   am
    43     8     7   ar
    44     7     6    1
    45     7     9   ar
    46     6     5    1
    47     5     2    1
    48    61    62    1
    49    95    96    2
    50    95    94    1
    51    99    98   ar
    52    63    62    1
    53    63    64    2
    54     2     1    1
    55     2     3    1
    56    94    93    1
    57    94    97    1
    58    98    97    1
    59    98   100   ar
    60     3    10   am
    61     3     4    2
    62    10    11    1
    63    92    91    2
    64    44    42   ar
    65    44    43   ar
    66    42    40   ar
    67    13    12    2
    68    12    11    1
    69    12    17   am
    70    11    14    1
    71    43    41   ar
    72    17    18    1
    73    91    90    1
    74    18    19    1
    75    40    41   ar
    76    40    39    1
    77    85    84    2
    78    39    36    1
    79    90    89    1
    80    14    16    1
    81    14    15    1
    82    19    21   am
    83    19    20    2
    84    84    89   am
    85    84    83    1
    86    21    22    1
    87    83    82    1
    88    83    86    1
    89    36    37    1
    90    36    35    1
    91    37    38    2
    92    22    25    1
    93    22    23    1
    94    82    88    1
    95    35    28   am
    96    86    87    1
    97    23    24    2
    98    34    32   am
    99    28    27    1
   100    28    29    2
   101    88    87    1
   102    26    27    1
   103    30    27    1
   104    30    31    1
   105    32    33    2
   106    32    31    1
