@<TRIPOS>MOLECULE
tmp/6amxA00.pdb
 85 78 0 0 0
SMALL
GASTEIGER

@<TRIPOS>ATOM
      1  N         34.4030  -15.8970   -3.5440 N.3     8  LYS8       -0.1245
      2  CA        33.3720  -15.5980   -2.5600 C.3     8  LYS8        0.1561
      3  C         34.0310  -15.2330   -1.2410 C.2     8  LYS8        0.2260
      4  O         34.9340  -15.9400   -0.7750 O.2     8  LYS8       -0.2867
      5  CB        32.4130  -16.7800   -2.3710 C.3     8  LYS8        0.0271
      6  CG        31.3230  -16.5140   -1.3230 C.3     8  LYS8        0.0035
      7  CD        30.1440  -15.7630   -1.9380 C.3     8  LYS8        0.0206
      8  CE        29.2850  -15.0540   -0.8820 C.3     8  LYS8        0.1093
      9  NZ        28.1080  -14.3430   -1.4880 N.3     8  LYS8       -0.1314
     10  N         31.3420  -26.5580    1.1840 N.3    60  SER60      -0.1202
     11  CA        29.9170  -26.2710    1.2860 C.3    60  SER60       0.2020
     12  C         29.5690  -24.9200    0.6690 C.2    60  SER60       0.2619
     13  O         28.4710  -24.7510    0.1220 O.2    60  SER60      -0.2717
     14  CB        29.4580  -26.3230    2.7460 C.3    60  SER60       0.2103
     15  OG        30.1110  -25.3280    3.5050 O.3    60  SER60      -0.2182
     16  N         30.4730  -23.9420    0.7460 N.am   61  THR61      -0.1952
     17  CA        30.2310  -22.7130   -0.0020 C.3    61  THR61       0.1897
     18  C         30.2520  -22.9750   -1.5100 C.2    61  THR61       0.2313
     19  O         29.4640  -22.3830   -2.2610 O.2    61  THR61      -0.2863
     20  CB        31.2510  -21.6470    0.3770 C.3    61  THR61       0.1794
     21  OG1       31.1020  -21.3490    1.7680 O.3    61  THR61      -0.2208
     22  CG2       31.0040  -20.3670   -0.4090 C.3    61  THR61       0.0378
     23  N         29.2340  -25.7100   -2.9070 N.3    63  LEU63      -0.1231
     24  CA        27.9600  -26.3640   -3.1960 C.3    63  LEU63       0.1693
     25  C         26.8330  -25.3480   -3.2770 C.2    63  LEU63       0.2591
     26  O         25.9210  -25.4900   -4.1040 O.2    63  LEU63      -0.2718
     27  CB        27.6590  -27.4280   -2.1390 C.3    63  LEU63       0.0284
     28  CG        28.7020  -28.5300   -2.0250 C.3    63  LEU63       0.0019
     29  CD1       28.3810  -29.4730   -0.8480 C.3    63  LEU63       0.0001
     30  CD2       28.8310  -29.3060   -3.3530 C.3    63  LEU63       0.0001
     31  N         26.9030  -24.2920   -2.4660 N.am   64  LYS64      -0.1980
     32  CA        25.8440  -23.2900   -2.4570 C.3    64  LYS64       0.1596
     33  C         25.9650  -22.3170   -3.6240 C.2    64  LYS64       0.2287
     34  O         24.9600  -21.7550   -4.0780 O.2    64  LYS64      -0.2864
     35  CB        25.8710  -22.5350   -1.1200 C.3    64  LYS64       0.0298
     36  CG        25.3280  -23.3800    0.0490 C.3    64  LYS64       0.0038
     37  CD        25.9670  -22.9900    1.3950 C.3    64  LYS64       0.0206
     38  CE        25.3920  -21.7070    1.8900 C.3    64  LYS64       0.1093
     39  NZ        25.8550  -21.4030    3.2880 N.3    64  LYS64      -0.1314
     40  N         22.0620  -20.9450   -4.1260 N.3    69  VAL69      -0.1231
     41  CA        21.6800  -20.3890   -2.8270 C.3    69  VAL69       0.1692
     42  C         22.5170  -19.1510   -2.5130 C.2    69  VAL69       0.2592
     43  O         22.0460  -18.2170   -1.8540 O.2    69  VAL69      -0.2718
     44  CB        21.8040  -21.4780   -1.7350 C.3    69  VAL69       0.0266
     45  CG1       22.0150  -20.8800   -0.3440 C.3    69  VAL69       0.0020
     46  CG2       20.5740  -22.3660   -1.7460 C.3    69  VAL69       0.0020
     47  N         23.7420  -19.0980   -3.0170 N.am   70  THR70      -0.1953
     48  CA        24.6540  -17.9910   -2.7790 C.3    70  THR70       0.1897
     49  C         25.1760  -17.4750   -4.1120 C.2    70  THR70       0.2313
     50  O         25.3610  -18.2460   -5.0580 O.2    70  THR70      -0.2863
     51  CB        25.8110  -18.4520   -1.8790 C.3    70  THR70       0.1794
     52  OG1       25.3280  -18.5890   -0.5370 O.3    70  THR70      -0.2208
     53  CG2       26.9540  -17.4800   -1.8850 C.3    70  THR70       0.0378
     54  N         21.2820  -31.2560   -0.0440 N.3    86  LEU86      -0.1231
     55  CA        20.9230  -31.2060    1.3710 C.3    86  LEU86       0.1693
     56  C         19.9850  -30.0500    1.7010 C.2    86  LEU86       0.2591
     57  O         18.8970  -30.2490    2.2500 O.2    86  LEU86      -0.2718
     58  CB        22.2040  -31.1070    2.2170 C.3    86  LEU86       0.0284
     59  CG        21.9020  -30.9740    3.7360 C.3    86  LEU86       0.0019
     60  CD1       21.1510  -32.2010    4.2400 C.3    86  LEU86       0.0001
     61  CD2       23.1820  -30.7770    4.5480 C.3    86  LEU86       0.0001
     62  N         20.3840  -28.8310    1.3390 N.am   87  LEU87      -0.1980
     63  CA        19.6630  -27.6380    1.7640 C.3    87  LEU87       0.1596
     64  C         18.2900  -27.5030    1.1290 C.2    87  LEU87       0.2287
     65  O         17.5110  -26.6440    1.5610 O.2    87  LEU87      -0.2864
     66  CB        20.4910  -26.3810    1.4550 C.3    87  LEU87       0.0297
     67  CG        21.8410  -26.2500    2.1770 C.3    87  LEU87       0.0022
     68  CD1       22.4730  -24.9030    1.8970 C.3    87  LEU87       0.0001
     69  CD2       21.7140  -26.4840    3.6890 C.3    87  LEU87       0.0001
     70  N         23.2710  -33.1880   -5.5350 N.3   163  ILE163     -0.1245
     71  CA        24.4300  -33.0810   -4.6610 C.3   163  ILE163      0.1561
     72  C         24.2240  -34.0680   -3.5210 C.2   163  ILE163      0.2260
     73  O         23.2160  -34.0000   -2.8080 O.2   163  ILE163     -0.2867
     74  CB        24.6120  -31.6540   -4.1150 C.3   163  ILE163      0.0252
     75  CG1       24.9940  -30.6920   -5.2320 C.3   163  ILE163      0.0019
     76  CG2       25.7030  -31.6340   -3.0180 C.3   163  ILE163      0.0019
     77  CD1       25.0950  -29.2720   -4.7730 C.3   163  ILE163      0.0001
     78  N         25.5080  -34.6370   -0.3380 N.3   165  ASP165     -0.1239
     79  CA        26.3070  -33.9980    0.7140 C.3   165  ASP165      0.1674
     80  C         26.9500  -35.0590    1.6030 C.2   165  ASP165      0.2266
     81  O         26.4840  -36.1980    1.6890 O.2   165  ASP165     -0.2867
     82  CB        25.4240  -33.0490    1.5480 C.3   165  ASP165      0.1410
     83  CG        26.2070  -32.2510    2.6220 C.2   165  ASP165      0.3668
     84  OD1       26.6820  -31.1230    2.3380 O.co2 165  ASP165     -0.2456
     85  OD2       26.3110  -32.7410    3.7680 O.co2 165  ASP165     -0.2456
@<TRIPOS>BOND
     1    70    71    1
     2    75    77    1
     3    75    74    1
     4    50    49    2
     5    71    74    1
     6    71    72    1
     7    40    41    1
     8    74    76    1
     9    49    48    1
    10    26    25    2
    11    34    33    2
    12    33    32    1
    13     1     2    1
    14    72    73    2
    15    30    28    1
    16    25    24    1
    17    25    31   am
    18    24    23    1
    19    24    27    1
    20    47    48    1
    21    47    42   am
    22    41    42    1
    23    41    44    1
    24    48    51    1
    25     2     5    1
    26     2     3    1
    27    42    43    2
    28    31    32    1
    29    32    35    1
    30     5     6    1
    31    19    18    2
    32    27    28    1
    33    28    29    1
    34     7     6    1
    35     7     8    1
    36    53    51    1
    37    51    52    1
    38    46    44    1
    39    44    45    1
    40    18    17    1
    41     9     8    1
    42     3     4    2
    43    35    36    1
    44    22    20    1
    45    78    79    1
    46    54    55    1
    47    17    20    1
    48    17    16    1
    49    36    37    1
    50    13    12    2
    51    20    21    1
    52    12    16   am
    53    12    11    1
    54    79    82    1
    55    79    80    1
    56    64    65    2
    57    64    63    1
    58    10    11    1
    59    11    14    1
    60    62    56   am
    61    62    63    1
    62    55    56    1
    63    55    58    1
    64    37    38    1
    65    66    63    1
    66    66    67    1
    67    82    83    1
    68    80    81    2
    69    56    57    2
    70    38    39    1
    71    68    67    1
    72    67    69    1
    73    58    59    1
    74    84    83   ar
    75    83    85   ar
    76    14    15    1
    77    59    60    1
    78    59    61    1
