@<TRIPOS>MOLECULE
tmp/6amxA03.pdb
 99 96 0 0 0
SMALL
GASTEIGER

@<TRIPOS>ATOM
      1  N         21.2820  -31.2560   -0.0440 N.3    86  LEU86      -0.1245
      2  CA        20.9230  -31.2060    1.3710 C.3    86  LEU86       0.1561
      3  C         19.9850  -30.0500    1.7010 C.2    86  LEU86       0.2260
      4  O         18.8970  -30.2490    2.2500 O.2    86  LEU86      -0.2867
      5  CB        22.2040  -31.1070    2.2170 C.3    86  LEU86       0.0270
      6  CG        21.9020  -30.9740    3.7360 C.3    86  LEU86       0.0019
      7  CD1       21.1510  -32.2010    4.2400 C.3    86  LEU86       0.0001
      8  CD2       23.1820  -30.7770    4.5480 C.3    86  LEU86       0.0001
      9  N         16.2990  -30.2770    0.9300 N.3    89  LEU89      -0.1231
     10  CA        15.5100  -31.3880    1.4460 C.3    89  LEU89       0.1693
     11  C         14.4640  -30.8710    2.4320 C.2    89  LEU89       0.2593
     12  O         14.7930  -30.2000    3.4190 O.2    89  LEU89      -0.2718
     13  CB        16.4170  -32.4260    2.1040 C.3    89  LEU89       0.0284
     14  CG        17.4080  -33.1210    1.1730 C.3    89  LEU89       0.0019
     15  CD1       18.1350  -34.1860    1.9550 C.3    89  LEU89       0.0001
     16  CD2       16.6930  -33.7400   -0.0560 C.3    89  LEU89       0.0001
     17  N         13.2060  -31.1770    2.1450 N.am   90  GLY90      -0.1942
     18  CA        12.1110  -30.7950    2.9970 C.3    90  GLY90       0.2014
     19  C         11.7790  -29.3250    2.9950 C.2    90  GLY90       0.2640
     20  O         11.0490  -28.8830    3.8890 O.2    90  GLY90      -0.2714
     21  N         12.2840  -28.5460    2.0330 N.am   91  THR91      -0.1936
     22  CA        11.9480  -27.1270    2.0170 C.3    91  THR91       0.2028
     23  C         10.4350  -26.9540    1.9420 C.2    91  THR91       0.2643
     24  O          9.7500  -27.6400    1.1770 O.2    91  THR91      -0.2714
     25  CB        12.6270  -26.3870    0.8550 C.3    91  THR91       0.1808
     26  OG1       12.1380  -25.0420    0.8220 O.3    91  THR91      -0.2208
     27  CG2       12.3170  -27.0330   -0.5060 C.3    91  THR91       0.0379
     28  N          9.9050  -26.0540    2.7730 N.am   92  GLY92      -0.1939
     29  CA         8.4750  -25.8200    2.8140 C.3    92  GLY92       0.2014
     30  C          7.6710  -26.8190    3.6320 C.2    92  GLY92       0.2638
     31  O          6.4480  -26.6600    3.7380 O.2    92  GLY92      -0.2714
     32  N          8.3110  -27.8460    4.2010 N.am   93  PHE93      -0.1973
     33  CA         7.5950  -28.8210    5.0150 C.3    93  PHE93       0.1639
     34  C          6.8650  -28.1090    6.1520 C.2    93  PHE93       0.2290
     35  O          7.4470  -27.2830    6.8570 O.2    93  PHE93      -0.2864
     36  CB         8.5730  -29.8530    5.5930 C.3    93  PHE93       0.0560
     37  CG         8.7560  -31.1020    4.7560 C.ar   93  PHE93      -0.0200
     38  CD1        8.3390  -31.1610    3.4340 C.ar   93  PHE93      -0.0042
     39  CD2        9.3890  -32.2180    5.3060 C.ar   93  PHE93      -0.0042
     40  CE1        8.5330  -32.3240    2.6740 C.ar   93  PHE93      -0.0003
     41  CE2        9.5900  -33.3770    4.5570 C.ar   93  PHE93      -0.0003
     42  CZ         9.1630  -33.4360    3.2560 C.ar   93  PHE93      -0.0000
     43  N          4.5340  -29.0030    9.5210 N.3    95  TYR95      -0.1241
     44  CA         4.2500  -30.1420   10.3890 C.3    95  TYR95       0.1605
     45  C          2.7900  -30.2400   10.7750 C.2    95  TYR95       0.2264
     46  O          2.3540  -31.3070   11.2270 O.2    95  TYR95      -0.2867
     47  CB         5.1820  -30.0910   11.6110 C.3    95  TYR95       0.0534
     48  CG         6.5840  -30.3220   11.1030 C.ar   95  TYR95      -0.0201
     49  CD1        7.0890  -31.6090   10.9610 C.ar   95  TYR95      -0.0009
     50  CD2        7.3510  -29.2630   10.6290 C.ar   95  TYR95      -0.0009
     51  CE1        8.3500  -31.8260   10.4240 C.ar   95  TYR95       0.0417
     52  CE2        8.6100  -29.4680   10.0890 C.ar   95  TYR95       0.0417
     53  CZ         9.1040  -30.7480    9.9900 C.ar   95  TYR95       0.1957
     54  OH        10.3550  -30.9410    9.4530 O.3    95  TYR95      -0.2866
     55  N         10.0990  -38.5010    8.6860 N.3   146  ILE146     -0.1231
     56  CA        10.1890  -37.1830    8.0480 C.3   146  ILE146      0.1692
     57  C         11.3550  -37.1480    7.0670 C.2   146  ILE146      0.2591
     58  O         11.2300  -36.6560    5.9340 O.2   146  ILE146     -0.2718
     59  CB        10.3270  -36.0660    9.1000 C.3   146  ILE146      0.0266
     60  CG1        9.0990  -35.9840   10.0100 C.3   146  ILE146      0.0019
     61  CG2       10.5610  -34.7130    8.4190 C.3   146  ILE146      0.0020
     62  CD1        9.4130  -35.2570   11.3430 C.3   146  ILE146      0.0001
     63  N         12.5170  -37.6560    7.4910 N.am  147  MET147     -0.1979
     64  CA        13.6530  -37.7170    6.5780 C.3   147  MET147      0.1605
     65  C         13.3310  -38.5880    5.3680 C.2   147  MET147      0.2287
     66  O         13.7000  -38.2510    4.2350 O.2   147  MET147     -0.2864
     67  CB        14.8910  -38.2430    7.2950 C.3   147  MET147      0.0413
     68  CG        15.5690  -37.1910    8.1740 C.3   147  MET147      0.0598
     69  SD        16.8370  -37.8720    9.2680 S.3   147  MET147     -0.1393
     70  CE        17.9480  -38.6220    8.0720 C.3   147  MET147      0.0692
     71  N         11.2820  -36.6280    2.8720 N.3   150  ALA150     -0.1231
     72  CA        12.0400  -35.5910    2.1820 C.3   150  ALA150      0.1694
     73  C         12.9330  -36.1930    1.1040 C.2   150  ALA150      0.2592
     74  O         13.0020  -35.6690   -0.0110 O.2   150  ALA150     -0.2718
     75  CB        12.8750  -34.7680    3.1620 C.3   150  ALA150      0.0304
     76  N         13.6060  -37.3050    1.4170 N.am  151  PHE151     -0.1976
     77  CA        14.4290  -37.9850    0.4180 C.3   151  PHE151      0.1639
     78  C         13.5830  -38.4840   -0.7450 C.2   151  PHE151      0.2290
     79  O         14.0050  -38.4210   -1.9040 O.2   151  PHE151     -0.2864
     80  CB        15.1810  -39.1740    1.0370 C.3   151  PHE151      0.0560
     81  CG        16.1870  -38.8000    2.1020 C.ar  151  PHE151     -0.0200
     82  CD1       16.2900  -39.5480    3.2700 C.ar  151  PHE151     -0.0042
     83  CD2       17.0270  -37.7320    1.9350 C.ar  151  PHE151     -0.0042
     84  CE1       17.2170  -39.2180    4.2490 C.ar  151  PHE151     -0.0003
     85  CE2       17.9590  -37.4000    2.9100 C.ar  151  PHE151     -0.0003
     86  CZ        18.0540  -38.1350    4.0630 C.ar  151  PHE151     -0.0000
     87  N         26.8310  -35.3860    4.6610 N.3   167  ALA167     -0.1231
     88  CA        25.9270  -35.8560    5.7110 C.3   167  ALA167      0.1694
     89  C         24.9060  -36.8620    5.1900 C.2   167  ALA167      0.2591
     90  O         24.4620  -37.7330    5.9470 O.2   167  ALA167     -0.2718
     91  CB        25.2000  -34.6750    6.3500 C.3   167  ALA167      0.0304
     92  N         24.5100  -36.7510    3.9160 N.am  168  LEU168     -0.1980
     93  CA        23.4900  -37.6380    3.3630 C.3   168  LEU168      0.1596
     94  C         23.9390  -39.0880    3.3250 C.2   168  LEU168      0.2287
     95  O         23.0940  -39.9800    3.1820 O.2   168  LEU168     -0.2864
     96  CB        23.1120  -37.2010    1.9510 C.3   168  LEU168      0.0297
     97  CG        22.4910  -35.8170    1.8610 C.3   168  LEU168      0.0022
     98  CD1       22.0620  -35.5260    0.4400 C.3   168  LEU168      0.0001
     99  CD2       21.3240  -35.7200    2.8330 C.3   168  LEU168      0.0001
@<TRIPOS>BOND
     1    79    78    2
     2    78    77    1
     3    27    25    1
     4    16    14    1
     5     1     2    1
     6    74    73    2
     7    77    80    1
     8    77    76    1
     9    98    97    1
    10    26    25    1
    11    25    22    1
    12     9    10    1
    13    80    81    1
    14    73    76   am
    15    73    72    1
    16    14    15    1
    17    14    13    1
    18    24    23    2
    19     2     3    1
    20     2     5    1
    21    10    13    1
    22    10    11    1
    23     3     4    2
    24    97    96    1
    25    97    99    1
    26    83    81   ar
    27    83    85   ar
    28    23    22    1
    29    23    28   am
    30    96    93    1
    31    22    21    1
    32    21    19   am
    33    81    82   ar
    34    17    11   am
    35    17    18    1
    36    72    71    1
    37    72    75    1
    38     5     6    1
    39    11    12    2
    40    40    42   ar
    41    40    38   ar
    42    28    29    1
    43    29    30    1
    44    85    86   ar
    45    19    18    1
    46    19    20    2
    47    95    94    2
    48    42    41   ar
    49    82    84   ar
    50    94    93    1
    51    93    92    1
    52    38    37   ar
    53    30    31    2
    54    30    32   am
    55     6     7    1
    56     6     8    1
    57    92    89   am
    58    86    84   ar
    59    32    33    1
    60    66    65    2
    61    41    39   ar
    62    87    88    1
    63    37    39   ar
    64    37    36    1
    65    33    36    1
    66    33    34    1
    67    89    88    1
    68    89    90    2
    69    65    64    1
    70    88    91    1
    71    58    57    2
    72    34    35    2
    73    64    67    1
    74    64    63    1
    75    57    63   am
    76    57    56    1
    77    67    68    1
    78    56    55    1
    79    56    59    1
    80    70    69    1
    81    68    69    1
    82    61    59    1
    83    59    60    1
    84    54    53    1
    85    43    44    1
    86    53    52   ar
    87    53    51   ar
    88    60    62    1
    89    52    50   ar
    90    44    45    1
    91    44    47    1
    92    51    49   ar
    93    50    48   ar
    94    45    46    2
    95    49    48   ar
    96    48    47    1
