@<TRIPOS>MOLECULE
tmp/6amxA01.pdb
 123 118 0 0 0
SMALL
GASTEIGER

@<TRIPOS>ATOM
      1  N         19.7080  -30.0250   -6.8670 N.3    84  VAL84      -0.1231
      2  CA        19.0500  -30.4150   -5.6270 C.3    84  VAL84       0.1692
      3  C         20.0870  -31.0130   -4.6860 C.2    84  VAL84       0.2592
      4  O         20.8300  -31.9290   -5.0670 O.2    84  VAL84      -0.2718
      5  CB        17.9030  -31.4070   -5.8950 C.3    84  VAL84       0.0266
      6  CG1       17.3820  -32.0080   -4.5740 C.3    84  VAL84       0.0020
      7  CG2       16.7890  -30.7060   -6.6320 C.3    84  VAL84       0.0020
      8  N         20.1370  -30.5010   -3.4550 N.am   85  GLY85      -0.1957
      9  CA        20.9930  -31.0950   -2.4480 C.3    85  GLY85       0.1869
     10  C         20.4270  -30.9860   -1.0350 C.2    85  GLY85       0.2309
     11  O         19.2570  -30.6390   -0.8450 O.2    85  GLY85      -0.2863
     12  N         16.2990  -30.2770    0.9300 N.3    89  LEU89      -0.1245
     13  CA        15.5100  -31.3880    1.4460 C.3    89  LEU89       0.1561
     14  C         14.4640  -30.8710    2.4320 C.2    89  LEU89       0.2260
     15  O         14.7930  -30.2000    3.4190 O.2    89  LEU89      -0.2867
     16  CB        16.4170  -32.4260    2.1040 C.3    89  LEU89       0.0270
     17  CG        17.4080  -33.1210    1.1730 C.3    89  LEU89       0.0019
     18  CD1       18.1350  -34.1860    1.9550 C.3    89  LEU89       0.0001
     19  CD2       16.6930  -33.7400   -0.0560 C.3    89  LEU89       0.0001
     20  N         13.6060  -37.3050    1.4170 N.3   151  PHE151     -0.1241
     21  CA        14.4290  -37.9850    0.4180 C.3   151  PHE151      0.1605
     22  C         13.5830  -38.4840   -0.7450 C.2   151  PHE151      0.2264
     23  O         14.0050  -38.4210   -1.9040 O.2   151  PHE151     -0.2867
     24  CB        15.1810  -39.1740    1.0370 C.3   151  PHE151      0.0534
     25  CG        16.1870  -38.8000    2.1020 C.ar  151  PHE151     -0.0203
     26  CD1       16.2900  -39.5480    3.2700 C.ar  151  PHE151     -0.0042
     27  CD2       17.0270  -37.7320    1.9350 C.ar  151  PHE151     -0.0042
     28  CE1       17.2170  -39.2180    4.2490 C.ar  151  PHE151     -0.0003
     29  CE2       17.9590  -37.4000    2.9100 C.ar  151  PHE151     -0.0003
     30  CZ        18.0540  -38.1350    4.0630 C.ar  151  PHE151     -0.0000
     31  N         12.4110  -35.5340   -3.0070 N.3   154  ALA154     -0.1231
     32  CA        13.5350  -34.8940   -3.6870 C.3   154  ALA154      0.1694
     33  C         14.0710  -35.7670   -4.8210 C.2   154  ALA154      0.2591
     34  O         14.2850  -35.2840   -5.9390 O.2   154  ALA154     -0.2718
     35  CB        14.6350  -34.5720   -2.6690 C.3   154  ALA154      0.0304
     36  N         14.2470  -37.0710   -4.5690 N.am  155  ILE155     -0.1980
     37  CA        14.8960  -37.9280   -5.5540 C.3   155  ILE155      0.1595
     38  C         14.0380  -38.1410   -6.7910 C.2   155  ILE155      0.2287
     39  O         14.5070  -38.7370   -7.7630 O.2   155  ILE155     -0.2864
     40  CB        15.2750  -39.2840   -4.9260 C.3   155  ILE155      0.0276
     41  CG1       16.4050  -39.9390   -5.7270 C.3   155  ILE155      0.0022
     42  CG2       14.0620  -40.2190   -4.8530 C.3   155  ILE155      0.0022
     43  CD1       17.0920  -41.0620   -5.0200 C.3   155  ILE155      0.0001
     44  N         22.1540  -33.7580   -8.8010 N.3   162  PHE162     -0.1227
     45  CA        21.9570  -34.0630   -7.3850 C.3   162  PHE162      0.1736
     46  C         23.2910  -33.8870   -6.6740 C.2   162  PHE162      0.2595
     47  O         24.3250  -34.3860   -7.1520 O.2   162  PHE162     -0.2718
     48  CB        21.4680  -35.4970   -7.1600 C.3   162  PHE162      0.0547
     49  CG        19.9880  -35.7200   -7.4040 C.ar  162  PHE162     -0.0202
     50  CD1       19.0250  -35.1680   -6.5610 C.ar  162  PHE162     -0.0042
     51  CD2       19.5700  -36.5550   -8.4570 C.ar  162  PHE162     -0.0042
     52  CE1       17.6690  -35.4120   -6.7670 C.ar  162  PHE162     -0.0003
     53  CE2       18.2250  -36.8020   -8.6840 C.ar  162  PHE162     -0.0003
     54  CZ        17.2650  -36.2360   -7.8390 C.ar  162  PHE162     -0.0000
     55  N         23.2710  -33.1880   -5.5350 N.am  163  ILE163     -0.1966
     56  CA        24.4300  -33.0810   -4.6610 C.3   163  ILE163      0.1727
     57  C         24.2240  -34.0680   -3.5210 C.2   163  ILE163      0.2616
     58  O         23.2160  -34.0000   -2.8080 O.2   163  ILE163     -0.2715
     59  CB        24.6120  -31.6540   -4.1150 C.3   163  ILE163      0.0290
     60  CG1       24.9940  -30.6920   -5.2320 C.3   163  ILE163      0.0022
     61  CG2       25.7030  -31.6340   -3.0180 C.3   163  ILE163      0.0023
     62  CD1       25.0950  -29.2720   -4.7730 C.3   163  ILE163      0.0001
     63  N         25.1500  -35.0010   -3.3660 N.am  164  ILE164     -0.1977
     64  CA        25.0680  -35.9890   -2.3080 C.3   164  ILE164      0.1596
     65  C         26.0300  -35.4830   -1.2350 C.2   164  ILE164      0.2287
     66  O         27.2200  -35.8090   -1.2370 O.2   164  ILE164     -0.2864
     67  CB        25.4090  -37.3950   -2.8000 C.3   164  ILE164      0.0276
     68  CG1       24.5250  -37.8060   -3.9970 C.3   164  ILE164      0.0022
     69  CG2       25.2590  -38.3790   -1.6780 C.3   164  ILE164      0.0022
     70  CD1       23.0080  -37.5920   -3.7810 C.3   164  ILE164      0.0001
     71  N         24.5100  -36.7510    3.9160 N.3   168  LEU168     -0.1245
     72  CA        23.4900  -37.6380    3.3630 C.3   168  LEU168      0.1561
     73  C         23.9390  -39.0880    3.3250 C.2   168  LEU168      0.2260
     74  O         23.0940  -39.9800    3.1820 O.2   168  LEU168     -0.2867
     75  CB        23.1120  -37.2010    1.9510 C.3   168  LEU168      0.0270
     76  CG        22.4910  -35.8170    1.8610 C.3   168  LEU168      0.0019
     77  CD1       22.0620  -35.5260    0.4400 C.3   168  LEU168      0.0001
     78  CD2       21.3240  -35.7200    2.8330 C.3   168  LEU168      0.0001
     79  N         17.1520  -48.9290    2.0330 N.3   175  PHE175     -0.1227
     80  CA        16.6450  -47.7130    1.4130 C.3   175  PHE175      0.1736
     81  C         17.7190  -47.0460    0.5690 C.2   175  PHE175      0.2595
     82  O         17.4010  -46.3860   -0.4300 O.2   175  PHE175     -0.2718
     83  CB        16.1190  -46.7300    2.4630 C.3   175  PHE175      0.0547
     84  CG        15.4800  -45.5050    1.8600 C.ar  175  PHE175     -0.0202
     85  CD1       14.2300  -45.5850    1.2590 C.ar  175  PHE175     -0.0042
     86  CD2       16.1430  -44.2850    1.8560 C.ar  175  PHE175     -0.0042
     87  CE1       13.6450  -44.4650    0.6730 C.ar  175  PHE175     -0.0003
     88  CE2       15.5580  -43.1550    1.2840 C.ar  175  PHE175     -0.0003
     89  CZ        14.3090  -43.2480    0.6880 C.ar  175  PHE175     -0.0000
     90  N         18.9890  -47.2080    0.9500 N.am  176  GLN176     -0.1979
     91  CA        20.0730  -46.6680    0.1380 C.3   176  GLN176      0.1601
     92  C         20.0900  -47.2970   -1.2500 C.2   176  GLN176      0.2287
     93  O         20.2880  -46.5990   -2.2500 O.2   176  GLN176     -0.2864
     94  CB        21.4160  -46.8880    0.8290 C.3   176  GLN176      0.0394
     95  CG        21.5320  -46.2650    2.2020 C.3   176  GLN176      0.0908
     96  CD        22.9730  -45.9770    2.5670 C.2   176  GLN176      0.2608
     97  OE1       23.8390  -46.8440    2.4470 O.2   176  GLN176     -0.2717
     98  NE2       23.2410  -44.7510    3.0050 N.am  176  GLN176     -0.0878
     99  N         17.6180  -45.7240   -3.4710 N.3   179  CYS179     -0.1221
    100  CA        18.1320  -44.4260   -3.9010 C.3   179  CYS179      0.1808
    101  C         19.2920  -44.5880   -4.8750 C.2   179  CYS179      0.2601
    102  O         19.4310  -43.8060   -5.8280 O.2   179  CYS179     -0.2717
    103  CB        18.5650  -43.6100   -2.6890 C.3   179  CYS179      0.0970
    104  SG        17.1960  -43.1980   -1.5710 S.3   179  CYS179     -0.0800
    105  N         20.1420  -45.5890   -4.6380 N.am  180  PHE180     -0.1976
    106  CA        21.2380  -45.8780   -5.5520 C.3   180  PHE180      0.1639
    107  C         20.7230  -46.1920   -6.9530 C.2   180  PHE180      0.2290
    108  O         21.2900  -45.7280   -7.9500 O.2   180  PHE180     -0.2864
    109  CB        22.0600  -47.0410   -5.0030 C.3   180  PHE180      0.0560
    110  CG        23.4880  -47.0240   -5.4300 C.ar  180  PHE180     -0.0200
    111  CD1       24.4230  -46.3030   -4.7160 C.ar  180  PHE180     -0.0042
    112  CD2       23.9000  -47.7400   -6.5480 C.ar  180  PHE180     -0.0042
    113  CE1       25.7480  -46.2860   -5.1100 C.ar  180  PHE180     -0.0003
    114  CE2       25.2210  -47.7320   -6.9480 C.ar  180  PHE180     -0.0003
    115  CZ        26.1470  -47.0030   -6.2310 C.ar  180  PHE180     -0.0000
    116  N         19.4860  -43.0930   -8.6410 N.3   183  LEU183     -0.1245
    117  CA        20.5960  -42.2450   -9.0570 C.3   183  LEU183      0.1561
    118  C         21.2850  -42.7650  -10.3240 C.2   183  LEU183      0.2260
    119  O         21.7990  -41.9580  -11.1140 O.2   183  LEU183     -0.2867
    120  CB        21.5990  -42.1000   -7.9170 C.3   183  LEU183      0.0270
    121  CG        21.1030  -41.2710   -6.7230 C.3   183  LEU183      0.0019
    122  CD1       22.0930  -41.3250   -5.5590 C.3   183  LEU183      0.0001
    123  CD2       20.7850  -39.8330   -7.1250 C.3   183  LEU183      0.0001
@<TRIPOS>BOND
     1   119   118    2
     2   118   117    1
     3   117   116    1
     4   117   120    1
     5    44    45    1
     6    53    51   ar
     7    53    54   ar
     8    51    49   ar
     9   108   107    2
    10   120   121    1
    11    54    52   ar
    12    39    38    2
    13    49    48    1
    14    49    50   ar
    15    45    48    1
    16    45    46    1
    17    47    46    2
    18   123   121    1
    19   107   106    1
    20   114   112   ar
    21   114   115   ar
    22     1     2    1
    23    38    37    1
    24    52    50   ar
    25   121   122    1
    26    46    55   am
    27     7     5    1
    28   112   110   ar
    29   115   113   ar
    30    34    33    2
    31     5     2    1
    32     5     6    1
    33   102   101    2
    34    41    43    1
    35    41    40    1
    36     2     3    1
    37    37    40    1
    38    37    36    1
    39   106   109    1
    40   106   105    1
    41    55    56    1
    42   110   109    1
    43   110   111   ar
    44    60    62    1
    45    60    59    1
    46   113   111   ar
    47     4     3    2
    48    40    42    1
    49   101   105   am
    50   101   100    1
    51    33    36   am
    52    33    32    1
    53     3     8   am
    54    56    59    1
    55    56    57    1
    56    59    61    1
    57    68    70    1
    58    68    67    1
    59   100    99    1
    60   100   103    1
    61    32    31    1
    62    32    35    1
    63    57    63   am
    64    57    58    2
    65     8     9    1
    66    63    64    1
    67    67    64    1
    68    67    69    1
    69   103   104    1
    70     9    10    1
    71    64    65    1
    72    93    92    2
    73    23    22    2
    74    92    91    1
    75    66    65    2
    76    10    11    2
    77    22    21    1
    78    82    81    2
    79    19    17    1
    80    91    94    1
    81    91    90    1
    82    21    24    1
    83    21    20    1
    84    77    76    1
    85    81    90   am
    86    81    80    1
    87    87    89   ar
    88    87    85   ar
    89    89    88   ar
    90    94    95    1
    91    12    13    1
    92    24    25    1
    93    17    18    1
    94    17    16    1
    95    85    84   ar
    96    88    86   ar
    97    80    79    1
    98    80    83    1
    99    13    16    1
   100    13    14    1
   101    86    84   ar
   102    84    83    1
   103    76    75    1
   104    76    78    1
   105    27    25   ar
   106    27    29   ar
   107    75    72    1
   108    25    26   ar
   109    95    96    1
   110    14    15    2
   111    97    96    2
   112    96    98   am
   113    29    30   ar
   114    74    73    2
   115    26    28   ar
   116    73    72    1
   117    72    71    1
   118    30    28   ar
