@<TRIPOS>MOLECULE
tmp/6an1A00.pdb
 216 205 0 0 0
SMALL
GASTEIGER

@<TRIPOS>ATOM
      1  N          2.8030   15.6500   12.5650 N.3    24  PRO24      -0.2102
      2  CA         2.2880   15.9700   11.2220 C.3    24  PRO24       0.1504
      3  C          2.8460   15.0760   10.1330 C.2    24  PRO24       0.2575
      4  O          2.1120   14.7080    9.2070 O.2    24  PRO24      -0.2718
      5  CB         2.7110   17.4350   11.0220 C.3    24  PRO24       0.0282
      6  CG         2.9930   17.9550   12.4000 C.3    24  PRO24       0.0208
      7  CD         3.5360   16.7790   13.1580 C.3    24  PRO24       0.0893
      8  N          4.1190   14.7140   10.2070 N.am   25  LEU25      -0.1980
      9  CA         4.7660   13.9570    9.1400 C.3    25  LEU25       0.1596
     10  C          4.9780   12.5240    9.6140 C.2    25  LEU25       0.2287
     11  O          5.9440   12.2300   10.3250 O.2    25  LEU25      -0.2864
     12  CB         6.0760   14.6140    8.7200 C.3    25  LEU25       0.0297
     13  CG         6.5980   14.1430    7.3630 C.3    25  LEU25       0.0022
     14  CD1        5.5670   14.4090    6.2830 C.3    25  LEU25       0.0001
     15  CD2        7.9060   14.8350    7.0240 C.3    25  LEU25       0.0001
     16  N         10.3740   27.2830    3.0180 N.3    60  LYS60      -0.1245
     17  CA        10.3450   28.2870    4.0760 C.3    60  LYS60       0.1561
     18  C         11.5160   28.1030    5.0390 C.2    60  LYS60       0.2260
     19  O         11.3510   28.1760    6.2580 O.2    60  LYS60      -0.2867
     20  CB         9.0180   28.2260    4.8350 C.3    60  LYS60       0.0271
     21  CG         8.8140   27.0240    5.6390 C.3    60  LYS60       0.0035
     22  CD         7.3980   27.0070    6.2460 C.3    60  LYS60       0.0206
     23  CE         7.0240   25.9580    7.2170 C.3    60  LYS60       0.1093
     24  NZ         7.3300   24.6090    6.8570 N.3    60  LYS60      -0.1314
     25  N         22.4290   25.8200    9.5210 N.3    67  ILE67      -0.1245
     26  CA        21.7790   24.5110    9.4420 C.3    67  ILE67       0.1561
     27  C         21.5530   23.9390   10.8330 C.2    67  ILE67       0.2260
     28  O         20.5720   23.2220   11.0740 O.2    67  ILE67      -0.2867
     29  CB        22.6150   23.5520    8.5570 C.3    67  ILE67       0.0252
     30  CG1       22.1940   23.6510    7.0880 C.3    67  ILE67       0.0019
     31  CG2       22.5060   22.1070    9.0290 C.3    67  ILE67       0.0019
     32  CD1       22.5210   24.9700    6.4310 C.3    67  ILE67       0.0001
     33  N         18.5910   25.7800   12.7110 N.3    70  GLY70      -0.1210
     34  CA        17.3550   25.2660   12.1610 C.3    70  GLY70       0.1956
     35  C         17.0800   23.8500   12.6080 C.2    70  GLY70       0.2612
     36  O         15.9190   23.4380   12.6770 O.2    70  GLY70      -0.2717
     37  N         18.1350   23.0820   12.8910 N.am   71  CYS71      -0.1970
     38  CA        17.9780   21.7990   13.5680 C.3    71  CYS71       0.1712
     39  C         17.4250   21.9850   14.9760 C.2    71  CYS71       0.2296
     40  O         16.5940   21.1930   15.4400 O.2    71  CYS71      -0.2864
     41  CB        19.3250   21.0820   13.6070 C.3    71  CYS71       0.0983
     42  SG        19.4390   19.6960   14.7600 S.3    71  CYS71      -0.0798
     43  N         15.4620   24.5120   16.2840 N.3    73  PHE73      -0.1227
     44  CA        14.0340   24.8200   16.2580 C.3    73  PHE73       0.1736
     45  C         13.2110   23.6050   15.8560 C.2    73  PHE73       0.2595
     46  O         12.0710   23.4460   16.3100 O.2    73  PHE73      -0.2718
     47  CB        13.7700   25.9960   15.3100 C.3    73  PHE73       0.0547
     48  CG        12.4220   25.9550   14.6380 C.ar   73  PHE73      -0.0202
     49  CD1       12.3090   25.5950   13.3030 C.ar   73  PHE73      -0.0042
     50  CD2       11.2660   26.2850   15.3380 C.ar   73  PHE73      -0.0042
     51  CE1       11.0720   25.5590   12.6800 C.ar   73  PHE73      -0.0003
     52  CE2       10.0240   26.2490   14.7200 C.ar   73  PHE73      -0.0003
     53  CZ         9.9280   25.8860   13.3910 C.ar   73  PHE73      -0.0000
     54  N         13.7740   22.7300   15.0200 N.am   74  ARG74      -0.1966
     55  CA        13.0760   21.5000   14.6680 C.3    74  ARG74       0.1729
     56  C         12.9840   20.5560   15.8570 C.2    74  ARG74       0.2616
     57  O         11.9320   19.9490   16.0950 O.2    74  ARG74      -0.2715
     58  CB        13.7720   20.8090   13.4990 C.3    74  ARG74       0.0348
     59  CG        13.2030   19.4320   13.1970 C.3    74  ARG74       0.0492
     60  CD        11.7250   19.5060   12.8340 C.3    74  ARG74       0.2205
     61  NE        11.0390   18.2210   12.9580 N.pl3  74  ARG74      -0.0865
     62  CZ         9.7860   18.0740   13.3810 C.cat  74  ARG74       0.5346
     63  NH1        9.0630   19.1360   13.7110 N.pl3  74  ARG74       0.1354
     64  NH2        9.2480   16.8640   13.4620 N.pl3  74  ARG74       0.1354
     65  N         14.0790   20.4020   16.6010 N.am   75  SER75      -0.1950
     66  CA        14.0430   19.5590   17.7900 C.3    75  SER75       0.1924
     67  C         13.0830   20.1270   18.8260 C.2    75  SER75       0.2314
     68  O         12.3460   19.3800   19.4810 O.2    75  SER75      -0.2863
     69  CB        15.4490   19.4210   18.3730 C.3    75  SER75       0.2116
     70  OG        16.3560   18.9400   17.3940 O.3    75  SER75      -0.2180
     71  N         10.3780   21.9200   18.2290 N.3    77  GLU77      -0.1245
     72  CA         9.0170   21.6360   17.7850 C.3    77  GLU77       0.1567
     73  C          8.6390   20.1770   18.0190 C.2    77  GLU77       0.2260
     74  O          7.4760   19.8760   18.3190 O.2    77  GLU77      -0.2867
     75  CB         8.8520   21.9950   16.3080 C.3    77  GLU77       0.0388
     76  CG         7.4430   21.6060   15.8390 C.3    77  GLU77       0.1160
     77  CD         6.8040   22.4830   14.8270 C.2    77  GLU77       0.3649
     78  OE1        7.6180   23.2170   14.2260 O.co2  77  GLU77      -0.2457
     79  OE2        5.6470   22.5230   14.6150 O.co2  77  GLU77      -0.2457
     80  N          5.7090   18.1960   20.1960 N.3    81  GLU81      -0.1245
     81  CA         4.9000   17.1060   19.6600 C.3    81  GLU81       0.1567
     82  C          5.0340   15.8460   20.5070 C.2    81  GLU81       0.2260
     83  O          4.0360   15.1720   20.7870 O.2    81  GLU81      -0.2867
     84  CB         5.2920   16.8280   18.2070 C.3    81  GLU81       0.0388
     85  CG         4.7950   17.8830   17.2180 C.3    81  GLU81       0.1160
     86  CD         5.6690   18.0140   15.9770 C.2    81  GLU81       0.3649
     87  OE1        6.6070   17.2050   15.8090 O.co2  81  GLU81      -0.2457
     88  OE2        5.4150   18.9350   15.1690 O.co2  81  GLU81      -0.2457
     89  N         13.4220   11.4120   19.3160 N.3   112  ILE112     -0.1231
     90  CA        13.7420   12.2330   18.1490 C.3   112  ILE112      0.1692
     91  C         14.4170   11.3910   17.0750 C.2   112  ILE112      0.2592
     92  O         13.9880   11.3640   15.9160 O.2   112  ILE112     -0.2718
     93  CB        14.6310   13.4160   18.5700 C.3   112  ILE112      0.0266
     94  CG1       13.8330   14.4290   19.3960 C.3   112  ILE112      0.0019
     95  CG2       15.2730   14.0600   17.3560 C.3   112  ILE112      0.0020
     96  CD1       13.1470   15.4620   18.5840 C.3   112  ILE112      0.0001
     97  N         15.4710   10.6700   17.4610 N.am  113  TYR113     -0.1976
     98  CA        16.2510    9.8970   16.5030 C.3   113  TYR113      0.1639
     99  C         15.4740    8.7050   15.9640 C.2   113  TYR113      0.2290
    100  O         15.7220    8.2680   14.8360 O.2   113  TYR113     -0.2864
    101  CB        17.5530    9.4470   17.1570 C.3   113  TYR113      0.0560
    102  CG        18.2870   10.5770   17.8350 C.ar  113  TYR113     -0.0198
    103  CD1       18.3960   11.8220   17.2220 C.ar  113  TYR113     -0.0009
    104  CD2       18.8660   10.4060   19.0880 C.ar  113  TYR113     -0.0009
    105  CE1       19.0640   12.8630   17.8330 C.ar  113  TYR113      0.0417
    106  CE2       19.5370   11.4440   19.7120 C.ar  113  TYR113      0.0417
    107  CZ        19.6330   12.6710   19.0770 C.ar  113  TYR113      0.1957
    108  OH        20.3000   13.7070   19.6910 O.3   113  TYR113     -0.2866
    109  N         13.4220   10.5290   13.5040 N.3   116  LEU116     -0.1245
    110  CA        14.3080   11.0310   12.4620 C.3   116  LEU116      0.1561
    111  C         14.6550    9.9410   11.4550 C.2   116  LEU116      0.2260
    112  O         14.9330   10.2450   10.2890 O.2   116  LEU116     -0.2867
    113  CB        15.5790   11.6120   13.0820 C.3   116  LEU116      0.0270
    114  CG        16.5390   12.3400   12.1340 C.3   116  LEU116      0.0019
    115  CD1       15.8850   13.5800   11.5350 C.3   116  LEU116      0.0001
    116  CD2       17.8430   12.6880   12.8440 C.3   116  LEU116      0.0001
    117  N         12.3970    9.8600    8.3850 N.3   119  LEU119     -0.1245
    118  CA        12.6490   10.8610    7.3620 C.3   119  LEU119      0.1561
    119  C         13.9430   10.6170    6.5950 C.2   119  LEU119      0.2260
    120  O         14.3310   11.4640    5.7830 O.2   119  LEU119     -0.2867
    121  CB        12.6800   12.2600    7.9830 C.3   119  LEU119      0.0270
    122  CG        11.5660   12.6350    8.9660 C.3   119  LEU119      0.0019
    123  CD1       11.6590   14.1120    9.3490 C.3   119  LEU119      0.0001
    124  CD2       10.1930   12.3060    8.3990 C.3   119  LEU119      0.0001
    125  N         18.1320   13.1870    4.3230 N.3   125  VAL125     -0.1231
    126  CA        17.0290   13.2970    5.2680 C.3   125  VAL125      0.1692
    127  C         16.0480   14.3440    4.7630 C.2   125  VAL125      0.2592
    128  O         16.4510   15.3790    4.2180 O.2   125  VAL125     -0.2718
    129  CB        17.5300   13.6530    6.6860 C.3   125  VAL125      0.0266
    130  CG1       18.3360   14.9490    6.6650 C.3   125  VAL125      0.0020
    131  CG2       16.3720   13.7480    7.6620 C.3   125  VAL125      0.0020
    132  N         14.7560   14.0620    4.9330 N.am  126  LEU126     -0.1966
    133  CA        13.7240   15.0450    4.6430 C.3   126  LEU126      0.1728
    134  C         13.7740   16.1660    5.6700 C.2   126  LEU126      0.2616
    135  O         14.0520   15.9330    6.8490 O.2   126  LEU126     -0.2715
    136  CB        12.3410   14.3930    4.6600 C.3   126  LEU126      0.0311
    137  CG        11.9810   13.5030    3.4730 C.3   126  LEU126      0.0022
    138  CD1       10.6590   12.7930    3.7350 C.3   126  LEU126      0.0001
    139  CD2       11.9210   14.3250    2.1960 C.3   126  LEU126      0.0001
    140  N         13.4980   17.3900    5.2180 N.am  127  ILE127     -0.1963
    141  CA        13.4870   18.5560    6.0910 C.3   127  ILE127      0.1727
    142  C         12.3310   19.4690    5.7000 C.2   127  ILE127      0.2617
    143  O         11.7960   19.4000    4.5920 O.2   127  ILE127     -0.2715
    144  CB        14.8320   19.3260    6.0560 C.3   127  ILE127      0.0290
    145  CG1       15.0080   20.0720    4.7310 C.3   127  ILE127      0.0022
    146  CG2       16.0110   18.3820    6.2830 C.3   127  ILE127      0.0023
    147  CD1       14.8600   21.5680    4.8550 C.3   127  ILE127      0.0001
    148  N         11.9410   20.3200    6.6480 N.am  128  SER128     -0.1936
    149  CA        10.8700   21.3020    6.4770 C.3   128  SER128      0.2055
    150  C          9.5610   20.6340    6.0430 C.2   128  SER128      0.2642
    151  O          9.0010   20.9180    4.9780 O.2   128  SER128     -0.2714
    152  CB        11.2910   22.3980    5.4970 C.3   128  SER128      0.2130
    153  OG        10.2940   23.4000    5.4010 O.3   128  SER128     -0.2179
    154  N          9.0800   19.7320    6.9000 N.am  129  GLU129     -0.1976
    155  CA         7.8050   19.0400    6.7220 C.3   129  GLU129      0.1602
    156  C          7.7300   18.2730    5.4030 C.2   129  GLU129      0.2287
    157  O          6.6350   18.0510    4.8720 O.2   129  GLU129     -0.2864
    158  CB         6.6320   20.0210    6.8250 C.3   129  GLU129      0.0415
    159  CG         5.7920   19.8790    8.0830 C.3   129  GLU129      0.1163
    160  CD         4.5720   20.7900    8.0630 C.2   129  GLU129      0.3649
    161  OE1        4.6450   21.8690    7.4270 O.co2 129  GLU129     -0.2457
    162  OE2        3.5440   20.4260    8.6820 O.co2 129  GLU129     -0.2457
    163  N         17.8810   17.2700    2.3990 N.3   134  MET134     -0.1245
    164  CA        19.2960   17.6050    2.5250 C.3   134  MET134      0.1570
    165  C         20.1200   16.3270    2.4210 C.2   134  MET134      0.2261
    166  O         19.9170   15.3860    3.1970 O.2   134  MET134     -0.2867
    167  CB        19.5690   18.3120    3.8520 C.3   134  MET134      0.0387
    168  CG        20.5120   19.5020    3.7600 C.3   134  MET134      0.0595
    169  SD        20.5760   20.4400    5.3080 S.3   134  MET134     -0.1393
    170  CE        18.8640   20.9500    5.4550 C.3   134  MET134      0.0692
    171  N         25.8740   17.2180    4.4740 N.3   139  LEU139     -0.1245
    172  CA        25.9470   17.4260    5.9170 C.3   139  LEU139      0.1561
    173  C         27.3280   17.0900    6.4740 C.2   139  LEU139      0.2260
    174  O         27.7920   17.7560    7.4060 O.2   139  LEU139     -0.2867
    175  CB        24.8670   16.6000    6.6140 C.3   139  LEU139      0.0270
    176  CG        23.4440   17.1490    6.4590 C.3   139  LEU139      0.0019
    177  CD1       22.4120   16.0540    6.6630 C.3   139  LEU139      0.0001
    178  CD2       23.2010   18.3040    7.4220 C.3   139  LEU139      0.0001
    179  N         27.7940   15.8060   13.3140 N.3   149  PHE149     -0.1227
    180  CA        26.5630   15.5850   14.0320 C.3   149  PHE149      0.1736
    181  C         25.5460   14.6570   13.4760 C.2   149  PHE149      0.2595
    182  O         24.8730   13.9630   14.1960 O.2   149  PHE149     -0.2718
    183  CB        25.8180   16.9050   14.1090 C.3   149  PHE149      0.0547
    184  CG        26.1100   17.6830   15.3350 C.ar  149  PHE149     -0.0202
    185  CD1       25.8210   17.1710   16.5650 C.ar  149  PHE149     -0.0042
    186  CD2       26.7050   18.9170   15.2540 C.ar  149  PHE149     -0.0042
    187  CE1       26.1160   17.8770   17.7000 C.ar  149  PHE149     -0.0003
    188  CE2       27.0020   19.6320   16.3850 C.ar  149  PHE149     -0.0003
    189  CZ        26.7050   19.1090   17.6100 C.ar  149  PHE149     -0.0000
    190  N         25.4660   14.6240   12.1720 N.am  150  MET150     -0.1979
    191  CA        24.3160   13.9780   11.5500 C.3   150  MET150      0.1605
    192  C         24.5770   12.5340   11.1360 C.2   150  MET150      0.2287
    193  O         23.6700   11.6970   11.2120 O.2   150  MET150     -0.2864
    194  CB        23.8640   14.7910   10.3380 C.3   150  MET150      0.0413
    195  CG        22.4640   14.4640    9.8710 C.3   150  MET150      0.0598
    196  SD        21.1820   14.7800   11.0930 S.3   150  MET150     -0.1393
    197  CE        19.8230   15.1710    9.9960 C.3   150  MET150      0.0692
    198  N         23.3370    9.5590   13.2170 N.3   153  LYS153     -0.1245
    199  CA        21.9140    9.3120   13.0110 C.3   153  LYS153      0.1561
    200  C         21.6690    8.5580   11.7110 C.2   153  LYS153      0.2260
    201  O         20.7870    7.6920   11.6490 O.2   153  LYS153     -0.2867
    202  CB        21.1400   10.6340   13.0140 C.3   153  LYS153      0.0271
    203  CG        21.0190   11.3000   14.3820 C.3   153  LYS153      0.0035
    204  CD        22.2260   12.1750   14.6770 C.3   153  LYS153      0.0206
    205  CE        22.2080   12.7010   16.1050 C.3   153  LYS153      0.1093
    206  NZ        23.5300   13.2830   16.4870 N.3   153  LYS153     -0.1314
    207  N         26.0310   12.7840   20.9920 N.3   235  HIS235     -0.1241
    208  CA        25.4710   14.1140   20.7720 C.3   235  HIS235      0.1621
    209  C         25.8610   15.0700   21.8930 C.2   235  HIS235      0.2264
    210  O         26.3240   16.1870   21.6380 O.2   235  HIS235     -0.2867
    211  CB        23.9500   14.0170   20.6530 C.3   235  HIS235      0.0745
    212  CG        23.3240   15.1530   19.9050 C.ar  235  HIS235      0.0817
    213  ND1       22.9330   15.0500   18.5880 N.ar  235  HIS235     -0.2268
    214  CD2       23.0090   16.4130   20.2940 C.ar  235  HIS235      0.1154
    215  CE1       22.4070   16.1970   18.1940 C.ar  235  HIS235      0.1986
    216  NE2       22.4420   17.0410   19.2110 N.ar  235  HIS235     -0.2212
@<TRIPOS>BOND
     1   139   137    1
     2   163   164    1
     3   165   164    1
     4   165   166    2
     5   164   167    1
     6    16    17    1
     7   137   138    1
     8   137   136    1
     9   168   167    1
    10   168   169    1
    11    17    20    1
    12    17    18    1
    13   128   127    2
    14   125   126    1
    15   171   172    1
    16   143   142    2
    17   133   136    1
    18   133   132    1
    19   133   134    1
    20   145   147    1
    21   145   144    1
    22   127   132   am
    23   127   126    1
    24    20    21    1
    25   157   156    2
    26   151   150    2
    27    18    19    2
    28   140   134   am
    29   140   141    1
    30   126   129    1
    31   169   170    1
    32   153   152    1
    33   156   155    1
    34   152   149    1
    35    21    22    1
    36   134   135    2
    37   142   141    1
    38   142   148   am
    39   120   119    2
    40   172   173    1
    41   172   175    1
    42   150   149    1
    43   150   154   am
    44   144   141    1
    45   144   146    1
    46    22    23    1
    47    14    13    1
    48    32    30    1
    49   176   175    1
    50   176   177    1
    51   176   178    1
    52   173   174    2
    53   149   148    1
    54   119   118    1
    55   130   129    1
    56   129   131    1
    57   155   158    1
    58   155   154    1
    59   158   159    1
    60    24    23    1
    61    15    13    1
    62    30    29    1
    63   118   121    1
    64   118   117    1
    65    13    12    1
    66   161   160   ar
    67   121   122    1
    68   160   159    1
    69   160   162   ar
    70   124   122    1
    71    29    31    1
    72    29    26    1
    73    12     9    1
    74   122   123    1
    75     9    10    1
    76     9     8    1
    77     4     3    2
    78    26    25    1
    79    26    27    1
    80    10    11    2
    81   195   194    1
    82   195   196    1
    83   197   196    1
    84     3     8   am
    85     3     2    1
    86   112   111    2
    87   194   191    1
    88    27    28    2
    89     5     2    1
    90     5     6    1
    91   192   193    2
    92   192   191    1
    93     2     1    1
    94   111   110    1
    95   115   114    1
    96   191   190    1
    97   201   200    2
    98   200   199    1
    99   114   116    1
   100   114   113    1
   101    34    35    1
   102    34    33    1
   103   190   181   am
   104     6     7    1
   105   110   113    1
   106   110   109    1
   107     1     7    1
   108    35    36    2
   109    35    37   am
   110    51    49   ar
   111    51    53   ar
   112    60    61    1
   113    60    59    1
   114    37    38    1
   115    61    62    2
   116   199   202    1
   117   199   198    1
   118   202   203    1
   119    59    58    1
   120    49    48   ar
   121   179   180    1
   122    62    64    1
   123    62    63    1
   124    53    52   ar
   125   181   180    1
   126   181   182    2
   127    58    55    1
   128    38    41    1
   129    38    39    1
   130    41    42    1
   131   180   183    1
   132   183   184    1
   133    78    77   ar
   134   203   204    1
   135    79    77   ar
   136    48    47    1
   137    48    50   ar
   138    55    54    1
   139    55    56    1
   140   204   205    1
   141    52    50   ar
   142    77    76    1
   143   100    99    2
   144    39    40    2
   145    54    45   am
   146    88    86   ar
   147   186   184   ar
   148   186   188   ar
   149    47    44    1
   150   184   185   ar
   151    87    86   ar
   152    76    75    1
   153    45    44    1
   154    45    46    2
   155    56    57    2
   156    56    65   am
   157    92    91    2
   158    99    98    1
   159    86    85    1
   160   205   206    1
   161    44    43    1
   162    75    72    1
   163   188   189   ar
   164    98   101    1
   165    98    97    1
   166   185   187   ar
   167    65    66    1
   168    91    97   am
   169    91    90    1
   170   101   102    1
   171    85    84    1
   172   103   105   ar
   173   103   102   ar
   174    95    93    1
   175    70    69    1
   176   189   187   ar
   177    72    73    1
   178    72    71    1
   179    66    69    1
   180    66    67    1
   181   105   107   ar
   182   102   104   ar
   183    73    74    2
   184    90    93    1
   185    90    89    1
   186   215   213   ar
   187   215   216   ar
   188    84    81    1
   189    93    94    1
   190    96    94    1
   191   213   212   ar
   192    67    68    2
   193   107   108    1
   194   107   106   ar
   195   104   106   ar
   196   216   214   ar
   197    81    80    1
   198    81    82    1
   199   212   214   ar
   200   212   211    1
   201    82    83    2
   202   211   208    1
   203   208   207    1
   204   208   209    1
   205   210   209    2
