@<TRIPOS>MOLECULE
tmp/6an4A00.pdb
 245 237 0 0 0
SMALL
GASTEIGER

@<TRIPOS>ATOM
      1  N         13.0420    2.7550    1.9070 N.3     8  GLY8       -0.1225
      2  CA        13.2200    1.6980    0.9300 C.3     8  GLY8        0.1811
      3  C         12.7940    2.1340   -0.4590 C.2     8  GLY8        0.2280
      4  O         11.7820    2.8130   -0.6250 O.2     8  GLY8       -0.2866
      5  N         20.1050   -4.4860   -0.7510 N.3    42  THR42      -0.1204
      6  CA        19.5270   -5.6580   -0.1010 C.3    42  THR42       0.1979
      7  C         18.6540   -6.4530   -1.0690 C.2    42  THR42       0.2460
      8  O         17.9080   -5.8680   -1.8550 O.2    42  THR42      -0.2732
      9  CB        18.6840   -5.2520    1.1230 C.3    42  THR42       0.1783
     10  OG1       17.5410   -4.5000    0.7010 O.3    42  THR42      -0.2211
     11  CG2       19.5160   -4.4130    2.0850 C.3    42  THR42       0.0376
     12  N         18.7480   -7.7950   -1.0230 N.am   43  PRO43      -0.2718
     13  CA        17.8410   -8.5730   -1.8730 C.3    43  PRO43       0.1520
     14  C         16.4070   -8.4650   -1.3630 C.2    43  PRO43       0.2440
     15  O         16.2130   -8.3960   -0.1520 O.2    43  PRO43      -0.2731
     16  CB        18.3510  -10.0130   -1.7190 C.3    43  PRO43       0.0310
     17  CG        19.7080   -9.9000   -1.1110 C.3    43  PRO43       0.0237
     18  CD        19.6860   -8.6590   -0.2870 C.3    43  PRO43       0.0939
     19  N         15.4140   -8.4400   -2.2660 N.am   44  PRO44      -0.2716
     20  CA        14.0300   -8.3300   -1.7970 C.3    44  PRO44       0.1536
     21  C         13.6110   -9.5130   -0.9280 C.2    44  PRO44       0.2598
     22  O         13.8530  -10.6630   -1.2940 O.2    44  PRO44      -0.2715
     23  CB        13.2150   -8.3180   -3.0950 C.3    44  PRO44       0.0310
     24  CG        14.1660   -7.8920   -4.1450 C.3    44  PRO44       0.0237
     25  CD        15.4940   -8.4400   -3.7370 C.3    44  PRO44       0.0939
     26  N         13.0030   -9.2170    0.2150 N.am   45  LEU45      -0.1964
     27  CA        12.4330  -10.2370    1.0840 C.3    45  LEU45       0.1728
     28  C         10.9480  -10.3630    0.7660 C.2    45  LEU45       0.2617
     29  O         10.1600   -9.4660    1.0670 O.2    45  LEU45      -0.2715
     30  CB        12.6320   -9.8630    2.5520 C.3    45  LEU45       0.0311
     31  CG        12.0550  -10.8330    3.5870 C.3    45  LEU45       0.0022
     32  CD1       13.0890  -11.8700    4.0030 C.3    45  LEU45       0.0001
     33  CD2       11.5290  -10.0730    4.7970 C.3    45  LEU45       0.0001
     34  N         10.5790  -11.4870    0.1590 N.am   46  GLY46      -0.1941
     35  CA         9.2240  -11.7130   -0.3090 C.3    46  GLY46       0.1998
     36  C          9.2810  -12.3560   -1.6830 C.2    46  GLY46       0.2480
     37  O          9.8170  -13.4550   -1.8220 O.2    46  GLY46      -0.2729
     38  N          8.7320  -11.6840   -2.7110 N.am   47  PRO47      -0.2726
     39  CA         8.9380  -12.1970   -4.0700 C.3    47  PRO47       0.1402
     40  C         10.3480  -11.8730   -4.5570 C.2    47  PRO47       0.2269
     41  O         10.8810  -10.8250   -4.1940 O.2    47  PRO47      -0.2865
     42  CB         7.8860  -11.4470   -4.8890 C.3    47  PRO47       0.0296
     43  CG         7.6830  -10.1730   -4.1560 C.3    47  PRO47       0.0237
     44  CD         7.8620  -10.4940   -2.6980 C.3    47  PRO47       0.0939
     45  N         12.0460   -9.3030   -8.3930 N.3    50  GLN50      -0.1245
     46  CA        12.1170   -7.8440   -8.3810 C.3    50  GLN50       0.1566
     47  C         13.5450   -7.3590   -8.1510 C.2    50  GLN50       0.2260
     48  O         14.3960   -8.1230   -7.6980 O.2    50  GLN50      -0.2867
     49  CB        11.1900   -7.2690   -7.3120 C.3    50  GLN50       0.0367
     50  CG         9.7310   -7.2320   -7.7330 C.3    50  GLN50       0.0905
     51  CD         8.8610   -6.4680   -6.7580 C.2    50  GLN50       0.2608
     52  OE1        9.3500   -5.6390   -5.9890 O.2    50  GLN50      -0.2717
     53  NE2        7.5610   -6.7410   -6.7850 N.am   50  GLN50      -0.0878
     54  N         16.7540   -3.7410   -3.3700 N.3    53  TYR53      -0.1241
     55  CA        16.3780   -2.5200   -2.6750 C.3    53  TYR53       0.1605
     56  C         17.6030   -1.7060   -2.2880 C.2    53  TYR53       0.2264
     57  O         18.6710   -2.2610   -2.0350 O.2    53  TYR53      -0.2867
     58  CB        15.6180   -2.8660   -1.3950 C.3    53  TYR53       0.0534
     59  CG        14.1200   -2.9300   -1.5500 C.ar   53  TYR53      -0.0201
     60  CD1       13.4970   -4.0860   -1.9990 C.ar   53  TYR53      -0.0009
     61  CD2       13.3270   -1.8350   -1.2380 C.ar   53  TYR53      -0.0009
     62  CE1       12.1240   -4.1440   -2.1390 C.ar   53  TYR53       0.0417
     63  CE2       11.9590   -1.8860   -1.3650 C.ar   53  TYR53       0.0417
     64  CZ        11.3610   -3.0390   -1.8180 C.ar   53  TYR53       0.1957
     65  OH         9.9920   -3.0840   -1.9490 O.3    53  TYR53      -0.2866
     66  N         18.1980    0.3250    0.9650 N.3    55  ASN55      -0.1240
     67  CA        17.6210    0.5330    2.2850 C.3    55  ASN55       0.1653
     68  C         18.4950    1.4230    3.1560 C.2    55  ASN55       0.2266
     69  O         19.7250    1.3790    3.0780 O.2    55  ASN55      -0.2867
     70  CB        17.3840   -0.8030    2.9930 C.3    55  ASN55       0.1155
     71  CG        16.1530   -1.5270    2.4850 C.2    55  ASN55       0.2627
     72  OD1       16.2370   -2.6690    2.0330 O.2    55  ASN55      -0.2716
     73  ND2       15.0010   -0.8710    2.5660 N.am   55  ASN55      -0.0877
     74  N          3.3920   10.9620   10.4060 N.3    70  LEU70      -0.1245
     75  CA         2.9160   10.0760    9.3510 C.3    70  LEU70       0.1561
     76  C          2.3460   10.8660    8.1800 C.2    70  LEU70       0.2260
     77  O          2.5900   10.5150    7.0240 O.2    70  LEU70      -0.2867
     78  CB         1.8630    9.1060    9.8880 C.3    70  LEU70       0.0270
     79  CG         1.2610    8.1360    8.8640 C.3    70  LEU70       0.0019
     80  CD1        2.3180    7.2000    8.2860 C.3    70  LEU70       0.0001
     81  CD2        0.1310    7.3410    9.4940 C.3    70  LEU70       0.0001
     82  N          5.3860   12.0310    6.2060 N.3    73  THR73      -0.1203
     83  CA         6.1040   10.9970    5.4640 C.3    73  THR73       0.1994
     84  C          5.2600   10.5130    4.2820 C.2    73  THR73       0.2617
     85  O          5.7920   10.2610    3.2000 O.2    73  THR73      -0.2717
     86  CB         6.5400    9.8130    6.3620 C.3    73  THR73       0.1784
     87  OG1        5.3970    9.2010    6.9670 O.3    73  THR73      -0.2211
     88  CG2        7.4940   10.2940    7.4490 C.3    73  THR73       0.0376
     89  N          3.9500   10.4030    4.4770 N.am   74  GLN74      -0.1979
     90  CA         3.0570   10.0230    3.3860 C.3    74  GLN74       0.1601
     91  C          3.0760   11.0780    2.2850 C.2    74  GLN74       0.2287
     92  O          3.0360   10.7500    1.0970 O.2    74  GLN74      -0.2864
     93  CB         1.6340    9.8170    3.8970 C.3    74  GLN74       0.0394
     94  CG         1.4540    8.5350    4.6990 C.3    74  GLN74       0.0908
     95  CD         0.0770    8.4300    5.3170 C.2    74  GLN74       0.2608
     96  OE1       -0.5680    9.4390    5.5940 O.2    74  GLN74      -0.2717
     97  NE2       -0.3850    7.2050    5.5270 N.am   74  GLN74      -0.0878
     98  N          6.1900   10.5410    0.2100 N.3    77  GLU77      -0.1245
     99  CA         6.0030    9.3960   -0.6790 C.3    77  GLU77       0.1567
    100  C          5.1750    9.7880   -1.8940 C.2    77  GLU77       0.2260
    101  O          5.5360    9.4670   -3.0290 O.2    77  GLU77      -0.2867
    102  CB         5.3160    8.2440    0.0490 C.3    77  GLU77       0.0388
    103  CG         6.1320    7.6300    1.1830 C.3    77  GLU77       0.1160
    104  CD         5.3260    6.6450    2.0090 C.2    77  GLU77       0.3649
    105  OE1        4.1390    6.9270    2.2920 O.co2  77  GLU77      -0.2457
    106  OE2        5.8650    5.5780    2.3660 O.co2  77  GLU77      -0.2457
    107  N          4.7890    7.6670   -5.1450 N.3    82  ARG82      -0.1245
    108  CA         4.0250    6.5840   -4.5350 C.3    82  ARG82       0.1563
    109  C          2.5290    6.8870   -4.6010 C.2    82  ARG82       0.2260
    110  O          2.0840    7.9480   -4.1660 O.2    82  ARG82      -0.2867
    111  CB         4.4500    6.3730   -3.0800 C.3    82  ARG82       0.0307
    112  CG         3.9470    5.0700   -2.4660 C.3    82  ARG82       0.0489
    113  CD         4.1940    5.0310   -0.9660 C.3    82  ARG82       0.2205
    114  NE         3.7240    3.7950   -0.3480 N.pl3  82  ARG82      -0.0865
    115  CZ         2.4540    3.5410   -0.0450 C.cat  82  ARG82       0.5346
    116  NH1        1.5090    4.4330   -0.3160 N.pl3  82  ARG82       0.1354
    117  NH2        2.1260    2.3910    0.5280 N.pl3  82  ARG82       0.1354
    118  N          8.9330   -0.4740   -6.2490 N.3    85  ARG85      -0.1245
    119  CA         8.5510    0.5240   -5.2500 C.3    85  ARG85       0.1563
    120  C          9.4190    1.7730   -5.3600 C.2    85  ARG85       0.2260
    121  O         10.6340    1.7160   -5.1620 O.2    85  ARG85      -0.2867
    122  CB         8.6730   -0.0480   -3.8350 C.3    85  ARG85       0.0307
    123  CG         7.9880   -1.3900   -3.6230 C.3    85  ARG85       0.0489
    124  CD         6.5470   -1.3950   -4.1110 C.3    85  ARG85       0.2205
    125  NE         5.7600   -0.2810   -3.5830 N.pl3  85  ARG85      -0.0865
    126  CZ         5.2210   -0.2460   -2.3680 C.cat  85  ARG85       0.5346
    127  NH1        5.3970   -1.2570   -1.5240 N.pl3  85  ARG85       0.1354
    128  NH2        4.5130    0.8110   -1.9890 N.pl3  85  ARG85       0.1354
    129  N          9.1720    3.8560   -0.0970 N.3    88  ASP88      -0.1225
    130  CA         8.3860    3.5810    1.0950 C.3    88  ASP88       0.1805
    131  C          9.1100    4.1260    2.3230 C.2    88  ASP88       0.2598
    132  O         10.3020    3.8740    2.5330 O.2    88  ASP88      -0.2718
    133  CB         8.1200    2.0800    1.2400 C.3    88  ASP88       0.1424
    134  CG         7.1250    1.5590    0.2110 C.2    88  ASP88       0.3668
    135  OD1        6.2560    2.3360   -0.2450 O.co2  88  ASP88      -0.2456
    136  OD2        7.2090    0.3640   -0.1390 O.co2  88  ASP88      -0.2456
    137  N          8.3730    4.9020    3.1070 N.am   89  LEU89      -0.1966
    138  CA         8.8560    5.4210    4.3750 C.3    89  LEU89       0.1728
    139  C          8.0570    4.7870    5.5030 C.2    89  LEU89       0.2616
    140  O          6.8540    5.0230    5.6440 O.2    89  LEU89      -0.2715
    141  CB         8.7180    6.9440    4.4170 C.3    89  LEU89       0.0311
    142  CG         9.5370    7.7060    3.3750 C.3    89  LEU89       0.0022
    143  CD1        9.2790    9.1990    3.4810 C.3    89  LEU89       0.0001
    144  CD2       11.0240    7.4120    3.5340 C.3    89  LEU89       0.0001
    145  N          8.7320    3.9600    6.2910 N.am   90  ASP90      -0.1957
    146  CA         8.1010    3.2750    7.4100 C.3    90  ASP90       0.1840
    147  C          8.5920    3.8510    8.7220 C.2    90  ASP90       0.2621
    148  O          9.7920    3.9070    8.9740 O.2    90  ASP90      -0.2715
    149  CB         8.4130    1.7810    7.3550 C.3    90  ASP90       0.1450
    150  CG         7.8680    1.1220    6.1100 C.2    90  ASP90       0.3671
    151  OD1        6.6830    0.7280    6.1110 O.co2  90  ASP90      -0.2456
    152  OD2        8.6300    1.0010    5.1280 O.co2  90  ASP90      -0.2456
    153  N          7.6580    4.3060    9.5470 N.am   91  ILE91      -0.1977
    154  CA         7.9810    4.6930   10.9080 C.3    91  ILE91       0.1596
    155  C          8.1730    3.4140   11.7160 C.2    91  ILE91       0.2287
    156  O          7.2200    2.6790   11.9720 O.2    91  ILE91      -0.2864
    157  CB         6.8770    5.5760   11.5290 C.3    91  ILE91       0.0276
    158  CG1        6.6930    6.8440   10.6880 C.3    91  ILE91       0.0022
    159  CG2        7.2250    5.9420   12.9680 C.3    91  ILE91       0.0022
    160  CD1        5.4680    7.6630   11.0440 C.3    91  ILE91       0.0001
    161  N         -4.2870    4.0180   11.9210 N.3   103  ARG103     -0.1231
    162  CA        -3.2740    4.5970   11.0380 C.3   103  ARG103      0.1694
    163  C         -1.8660    4.0730   11.3320 C.2   103  ARG103      0.2592
    164  O         -1.0530    3.9370   10.4190 O.2   103  ARG103     -0.2718
    165  CB        -3.2800    6.1250   11.1460 C.3   103  ARG103      0.0321
    166  CG        -4.5120    6.7940   10.5510 C.3   103  ARG103      0.0489
    167  CD        -4.3290    8.3020   10.4620 C.3   103  ARG103      0.2205
    168  NE        -3.4140    8.6820    9.3870 N.pl3 103  ARG103     -0.0865
    169  CZ        -2.8600    9.8830    9.2590 C.cat 103  ARG103      0.5346
    170  NH1       -3.1090   10.8370   10.1470 N.pl3 103  ARG103      0.1354
    171  NH2       -2.0430   10.1300    8.2430 N.pl3 103  ARG103      0.1354
    172  N         -1.5880    3.7840   12.6010 N.am  104  LEU104     -0.1966
    173  CA        -0.2400    3.4010   13.0350 C.3   104  LEU104      0.1728
    174  C         -0.1750    2.1440   13.8950 C.2   104  LEU104      0.2617
    175  O         -0.9470    1.9790   14.8410 O.2   104  LEU104     -0.2715
    176  CB         0.4090    4.5530   13.8080 C.3   104  LEU104      0.0311
    177  CG         0.8980    5.7560   13.0000 C.3   104  LEU104      0.0022
    178  CD1        1.3400    6.8760   13.9310 C.3   104  LEU104      0.0001
    179  CD2        2.0410    5.3670   12.0640 C.3   104  LEU104      0.0001
    180  N          0.7520    1.2610   13.5360 N.am  105  THR105     -0.1937
    181  CA         1.2360    0.2170   14.4270 C.3   105  THR105      0.2028
    182  C          2.7250    0.4490   14.6630 C.2   105  THR105      0.2642
    183  O          3.5420    0.2670   13.7500 O.2   105  THR105     -0.2714
    184  CB         1.0100   -1.1870   13.8510 C.3   105  THR105      0.1808
    185  OG1       -0.3960   -1.4120   13.6810 O.3   105  THR105     -0.2208
    186  CG2        1.5790   -2.2540   14.7780 C.3   105  THR105      0.0379
    187  N          3.0570    0.8640   15.8860 N.am  106  VAL106     -0.1977
    188  CA         4.4330    1.1350   16.2960 C.3   106  VAL106      0.1596
    189  C          4.7070    0.3740   17.5960 C.2   106  VAL106      0.2287
    190  O          3.8890    0.4250   18.5130 O.2   106  VAL106     -0.2864
    191  CB         4.6710    2.6420   16.5170 C.3   106  VAL106      0.0276
    192  CG1        6.0870    2.9020   17.0250 C.3   106  VAL106      0.0022
    193  CG2        4.4300    3.4070   15.2190 C.3   106  VAL106      0.0022
    194  N          6.9480   -0.9120   14.2580 N.3   108  HIS108     -0.1226
    195  CA         6.5340   -1.4850   12.9850 C.3   108  HIS108      0.1752
    196  C          6.3330   -2.9870   13.1420 C.2   108  HIS108      0.2596
    197  O          7.1760   -3.6780   13.7060 O.2   108  HIS108     -0.2718
    198  CB         7.5840   -1.1860   11.9200 C.3   108  HIS108      0.0759
    199  CG         7.2080   -1.6480   10.5480 C.ar  108  HIS108      0.0818
    200  ND1        7.2920   -2.9660   10.1570 N.ar  108  HIS108     -0.2268
    201  CD2        6.7670   -0.9610    9.4690 C.ar  108  HIS108      0.1154
    202  CE1        6.9110   -3.0730    8.8960 C.ar  108  HIS108      0.1986
    203  NE2        6.5870   -1.8710    8.4570 N.ar  108  HIS108     -0.2212
    204  N          5.2020   -3.4840   12.6530 N.am  109  TYR109     -0.1976
    205  CA         4.7440   -4.8270   12.9960 C.3   109  TYR109      0.1639
    206  C          5.7300   -5.9350   12.6280 C.2   109  TYR109      0.2290
    207  O          5.7320   -6.9920   13.2590 O.2   109  TYR109     -0.2864
    208  CB         3.3840   -5.1050   12.3430 C.3   109  TYR109      0.0560
    209  CG         3.4740   -5.5320   10.8970 C.ar  109  TYR109     -0.0198
    210  CD1        3.6610   -4.5980    9.8870 C.ar  109  TYR109     -0.0009
    211  CD2        3.3690   -6.8700   10.5410 C.ar  109  TYR109     -0.0009
    212  CE1        3.7460   -4.9870    8.5610 C.ar  109  TYR109      0.0417
    213  CE2        3.4480   -7.2680    9.2230 C.ar  109  TYR109      0.0417
    214  CZ         3.6380   -6.3230    8.2350 C.ar  109  TYR109      0.1957
    215  OH         3.7190   -6.7170    6.9210 O.3   109  TYR109     -0.2866
    216  N         13.0320   -8.3030    9.9070 N.3   114  ARG114     -0.1245
    217  CA        13.6540   -7.7640    8.6940 C.3   114  ARG114      0.1563
    218  C         15.0660   -7.2250    8.9260 C.2   114  ARG114      0.2260
    219  O         15.2420   -6.1410    9.4830 O.2   114  ARG114     -0.2867
    220  CB        12.7900   -6.6430    8.1230 C.3   114  ARG114      0.0307
    221  CG        11.3910   -7.0750    7.7240 C.3   114  ARG114      0.0489
    222  CD        10.5480   -5.8670    7.3680 C.3   114  ARG114      0.2205
    223  NE         9.2070   -6.2260    6.9160 N.pl3 114  ARG114     -0.0865
    224  CZ         8.3590   -5.3700    6.3580 C.cat 114  ARG114      0.5346
    225  NH1        8.7180   -4.1070    6.1570 N.pl3 114  ARG114      0.1354
    226  NH2        7.1510   -5.7780    5.9900 N.pl3 114  ARG114      0.1354
    227  N         16.9980   -5.9950    6.7880 N.3   116  PHE116     -0.1227
    228  CA        17.1890   -4.7660    6.0220 C.3   116  PHE116      0.1736
    229  C         16.6280   -3.5370    6.7430 C.2   116  PHE116      0.2595
    230  O         16.9020   -2.3990    6.3450 O.2   116  PHE116     -0.2718
    231  CB        16.5930   -4.8970    4.6110 C.3   116  PHE116      0.0547
    232  CG        15.1170   -5.1640    4.5920 C.ar  116  PHE116     -0.0202
    233  CD1       14.2110   -4.1260    4.7050 C.ar  116  PHE116     -0.0042
    234  CD2       14.6370   -6.4540    4.4410 C.ar  116  PHE116     -0.0042
    235  CE1       12.8520   -4.3700    4.6880 C.ar  116  PHE116     -0.0003
    236  CE2       13.2830   -6.7030    4.4180 C.ar  116  PHE116     -0.0003
    237  CZ        12.3890   -5.6610    4.5360 C.ar  116  PHE116     -0.0000
    238  N         15.8420   -3.7660    7.7940 N.am  117  MET117     -0.1979
    239  CA        15.4360   -2.6920    8.6950 C.3   117  MET117      0.1605
    240  C         16.3590   -2.6190    9.9120 C.2   117  MET117      0.2287
    241  O         16.7730   -1.5350   10.3180 O.2   117  MET117     -0.2864
    242  CB        13.9870   -2.8780    9.1710 C.3   117  MET117      0.0413
    243  CG        12.9300   -2.4070    8.1800 C.3   117  MET117      0.0598
    244  SD        11.2560   -2.5940    8.8380 S.3   117  MET117     -0.1393
    245  CE        10.4780   -1.0940    8.2490 C.3   117  MET117      0.0692
@<TRIPOS>BOND
     1    45    46    1
     2    46    47    1
     3    46    49    1
     4    47    48    2
     5    50    49    1
     6    50    51    1
     7    53    51   am
     8    51    52    2
     9   118   119    1
    10   120   119    1
    11   120   121    2
    12   119   122    1
    13   107   108    1
    14    42    43    1
    15    42    39    1
    16   109   108    1
    17   109   110    2
    18    40    41    2
    19    40    39    1
    20   108   111    1
    21    43    44    1
    22    24    25    1
    23    24    23    1
    24   124   123    1
    25   124   125    1
    26    39    38    1
    27   122   123    1
    28    25    19    1
    29   125   126    2
    30    54    55    1
    31    23    20    1
    32   111   112    1
    33   101   100    2
    34    38    44    1
    35    38    36   am
    36    55    56    1
    37    55    58    1
    38   112   113    1
    39   126   128    1
    40   126   127    1
    41    56    57    2
    42    19    20    1
    43    19    14   am
    44    62    60   ar
    45    62    64   ar
    46    60    59   ar
    47    65    64    1
    48   100    99    1
    49    13    16    1
    50    13    14    1
    51    13    12    1
    52     8     7    2
    53    37    36    2
    54    64    63   ar
    55    20    21    1
    56    16    17    1
    57    36    35    1
    58    59    58    1
    59    59    61   ar
    60    63    61   ar
    61    14    15    2
    62    22    21    2
    63    17    18    1
    64     7    12   am
    65     7     6    1
    66    12    18    1
    67   113   114    1
    68    21    26   am
    69     5     6    1
    70    99   102    1
    71    99    98    1
    72     4     3    2
    73     3     2    1
    74   114   115    2
    75   116   115    1
    76    35    34    1
    77   135   134   ar
    78   136   134   ar
    79     6     9    1
    80   129   130    1
    81   115   117    1
    82   102   103    1
    83    34    28   am
    84   134   133    1
    85    26    27    1
    86    10     9    1
    87    28    29    2
    88    28    27    1
    89     2     1    1
    90    66    67    1
    91    27    30    1
    92   130   133    1
    93   130   131    1
    94    92    91    2
    95     9    11    1
    96   103   104    1
    97   104   105   ar
    98   104   106   ar
    99    72    71    2
   100    91    90    1
   101    67    70    1
   102    67    68    1
   103   131   132    2
   104   131   137   am
   105    71    73   am
   106    71    70    1
   107    30    31    1
   108    69    68    2
   109   137   138    1
   110    85    84    2
   111   142   143    1
   112   142   144    1
   113   142   141    1
   114    90    93    1
   115    90    89    1
   116    31    32    1
   117    31    33    1
   118    93    94    1
   119    84    89   am
   120    84    83    1
   121   138   141    1
   122   138   139    1
   123   236   234   ar
   124   236   237   ar
   125   234   232   ar
   126   237   235   ar
   127   232   231    1
   128   232   233   ar
   129   231   228    1
   130   235   233   ar
   131    94    95    1
   132   152   150   ar
   133    95    97   am
   134    95    96    2
   135    83    82    1
   136    83    86    1
   137   139   140    2
   138   139   145   am
   139   226   224    1
   140   228   229    1
   141   228   227    1
   142   150   151   ar
   143   150   149    1
   144   225   224    1
   145   145   146    1
   146   230   229    2
   147   224   223    2
   148    86    87    1
   149    86    88    1
   150   229   238   am
   151   223   222    1
   152   215   214    1
   153    77    76    2
   154   149   146    1
   155   222   221    1
   156   146   147    1
   157   221   220    1
   158   238   239    1
   159   220   217    1
   160   243   244    1
   161   243   242    1
   162    76    75    1
   163   214   212   ar
   164   214   213   ar
   165   171   169    1
   166   245   244    1
   167    80    79    1
   168   203   202   ar
   169   203   201   ar
   170   212   210   ar
   171   217   218    1
   172   217   216    1
   173   239   242    1
   174   239   240    1
   175   147   148    2
   176   147   153   am
   177    79    81    1
   178    79    78    1
   179   202   200   ar
   180   218   219    2
   181   213   211   ar
   182   169   168    2
   183   169   170    1
   184    75    78    1
   185    75    74    1
   186   168   167    1
   187   201   199   ar
   188   153   154    1
   189   210   209   ar
   190   240   241    2
   191   200   199   ar
   192   164   163    2
   193   167   166    1
   194   211   209   ar
   195   199   198    1
   196   166   165    1
   197   158   160    1
   198   158   157    1
   199   209   208    1
   200   154   157    1
   201   154   155    1
   202   162   165    1
   203   162   163    1
   204   162   161    1
   205   163   172   am
   206   157   159    1
   207   155   156    2
   208   198   195    1
   209   179   177    1
   210   208   205    1
   211   172   173    1
   212   206   205    1
   213   206   207    2
   214   204   205    1
   215   204   196   am
   216   195   196    1
   217   195   194    1
   218   177   176    1
   219   177   178    1
   220   173   176    1
   221   173   174    1
   222   196   197    2
   223   180   174   am
   224   180   181    1
   225   185   184    1
   226   183   182    2
   227   184   181    1
   228   184   186    1
   229   174   175    2
   230   181   182    1
   231   182   187   am
   232   193   191    1
   233   187   188    1
   234   188   191    1
   235   188   189    1
   236   191   192    1
   237   189   190    2
