@<TRIPOS>MOLECULE
tmp/6an6B00.pdb
 228 221 0 0 0
SMALL
GASTEIGER

@<TRIPOS>ATOM
      1  N         -8.4020   23.5060   79.6600 N.3     8  GLY8       -0.1225
      2  CA        -8.5200   23.1010   81.0410 C.3     8  GLY8        0.1811
      3  C         -7.3020   23.5440   81.8260 C.2     8  GLY8        0.2280
      4  O         -6.1670   23.3940   81.3690 O.2     8  GLY8       -0.2866
      5  N        -15.5300   23.7200   87.2250 N.3    42  THR42      -0.1204
      6  CA       -16.0410   22.3650   87.1720 C.3    42  THR42       0.1979
      7  C        -15.3780   21.4400   88.1920 C.2    42  THR42       0.2460
      8  O        -14.1830   21.5760   88.4720 O.2    42  THR42      -0.2732
      9  CB       -15.8270   21.7610   85.7800 C.3    42  THR42       0.1783
     10  OG1      -14.4300   21.5470   85.5710 O.3    42  THR42      -0.2211
     11  CG2      -16.3620   22.6890   84.6960 C.3    42  THR42       0.0376
     12  N        -16.1430   20.4780   88.7370 N.am   43  PRO43      -0.2718
     13  CA       -15.5250   19.4950   89.6300 C.3    43  PRO43       0.1520
     14  C        -14.6820   18.5110   88.8240 C.2    43  PRO43       0.2440
     15  O        -15.0680   18.1730   87.7060 O.2    43  PRO43      -0.2731
     16  CB       -16.7260   18.7960   90.2810 C.3    43  PRO43       0.0310
     17  CG       -17.9790   19.4790   89.7140 C.3    43  PRO43       0.0237
     18  CD       -17.5530   20.1490   88.4630 C.3    43  PRO43       0.0939
     19  N        -13.5580   18.0400   89.3780 N.am   44  PRO44      -0.2716
     20  CA       -12.7030   17.2100   88.5190 C.3    44  PRO44       0.1536
     21  C        -13.2960   15.8390   88.2360 C.2    44  PRO44       0.2598
     22  O        -13.6760   15.1490   89.1790 O.2    44  PRO44      -0.2715
     23  CB       -11.3980   17.0820   89.3250 C.3    44  PRO44       0.0310
     24  CG       -11.6630   17.7570   90.6790 C.3    44  PRO44       0.0237
     25  CD       -13.1370   17.9900   90.7870 C.3    44  PRO44       0.0939
     26  N        -13.4030   15.4750   86.9590 N.am   45  LEU45      -0.1964
     27  CA       -13.6850   14.1030   86.5770 C.3    45  LEU45       0.1728
     28  C        -12.5160   13.2340   86.9940 C.2    45  LEU45       0.2617
     29  O        -11.3600   13.6490   86.9000 O.2    45  LEU45      -0.2715
     30  CB       -13.9210   13.9770   85.0680 C.3    45  LEU45       0.0311
     31  CG       -15.0630   13.0870   84.5600 C.3    45  LEU45       0.0022
     32  CD1      -15.8970   12.4400   85.6680 C.3    45  LEU45       0.0001
     33  CD2      -15.9600   13.9160   83.6510 C.3    45  LEU45       0.0001
     34  N        -12.8190   12.0190   87.4300 N.am   46  GLY46      -0.1941
     35  CA       -11.8190   11.1590   88.0340 C.3    46  GLY46       0.1998
     36  C        -11.8670   11.3210   89.5480 C.2    46  GLY46       0.2480
     37  O        -12.9620   11.4110   90.1090 O.2    46  GLY46      -0.2729
     38  N        -10.6920   11.3580   90.2140 N.am   47  PRO47      -0.2726
     39  CA       -10.5950   11.6110   91.6660 C.3    47  PRO47       0.1402
     40  C        -11.0680   13.0100   92.0940 C.2    47  PRO47       0.2269
     41  O        -10.9760   13.9440   91.2960 O.2    47  PRO47      -0.2865
     42  CB        -9.0940   11.4340   91.9670 C.3    47  PRO47       0.0296
     43  CG        -8.4040   11.3290   90.6620 C.3    47  PRO47       0.0237
     44  CD        -9.3980   10.9710   89.6200 C.3    47  PRO47       0.0939
     45  N         -8.1140   16.2240   93.7350 N.3    50  GLN50      -0.1245
     46  CA        -7.5060   17.3460   93.0230 C.3    50  GLN50       0.1566
     47  C         -8.4860   18.5210   92.9500 C.2    50  GLN50       0.2260
     48  O         -9.6850   18.3350   93.1510 O.2    50  GLN50      -0.2867
     49  CB        -7.0570   16.9510   91.6120 C.3    50  GLN50       0.0367
     50  CG        -8.1200   16.3380   90.7270 C.3    50  GLN50       0.0905
     51  CD        -7.6210   16.1200   89.3080 C.2    50  GLN50       0.2608
     52  OE1       -6.5570   16.6190   88.9290 O.2    50  GLN50      -0.2717
     53  NE2       -8.3850   15.3670   88.5180 N.am   50  GLN50      -0.0878
     54  N        -11.5360   22.5780   88.1210 N.3    53  TYR53      -0.1241
     55  CA       -10.9930   22.9770   86.8450 C.3    53  TYR53       0.1605
     56  C        -11.6700   24.2310   86.4000 C.2    53  TYR53       0.2264
     57  O        -12.8240   24.4610   86.7360 O.2    53  TYR53      -0.2867
     58  CB       -11.1950   21.8810   85.8060 C.3    53  TYR53       0.0534
     59  CG       -10.1220   20.8300   85.8400 C.ar   53  TYR53      -0.0201
     60  CD1      -10.1740   19.7900   86.7430 C.ar   53  TYR53      -0.0009
     61  CD2       -9.0480   20.8950   84.9800 C.ar   53  TYR53      -0.0009
     62  CE1       -9.1790   18.8290   86.7830 C.ar   53  TYR53       0.0417
     63  CE2       -8.0520   19.9470   85.0060 C.ar   53  TYR53       0.0417
     64  CZ        -8.1170   18.9120   85.9060 C.ar   53  TYR53       0.1957
     65  OH        -7.1140   17.9630   85.9210 O.3    53  TYR53      -0.2866
     66  N        -12.7510   25.2420   82.9120 N.3    55  ASN55      -0.1240
     67  CA       -12.9250   24.7220   81.5660 C.3    55  ASN55       0.1653
     68  C        -13.5580   25.7600   80.6560 C.2    55  ASN55       0.2266
     69  O        -14.4050   26.5240   81.0870 O.2    55  ASN55      -0.2867
     70  CB       -13.7720   23.4460   81.5820 C.3    55  ASN55       0.1155
     71  CG       -12.9750   22.2250   82.0150 C.2    55  ASN55       0.2627
     72  OD1      -13.3220   21.5480   82.9840 O.2    55  ASN55      -0.2716
     73  ND2      -11.8910   21.9490   81.3010 N.am   55  ASN55      -0.0877
     74  N         -1.9530   20.4030   66.3050 N.3    70  LEU70      -0.1245
     75  CA        -1.6300   19.6600   67.5140 C.3    70  LEU70       0.1561
     76  C         -0.2450   20.0490   68.0160 C.2    70  LEU70       0.2260
     77  O         -0.0380   20.2510   69.2190 O.2    70  LEU70      -0.2867
     78  CB        -1.6970   18.1580   67.2630 C.3    70  LEU70       0.0270
     79  CG        -1.2850   17.2880   68.4520 C.3    70  LEU70       0.0019
     80  CD1       -2.2900   17.4100   69.5950 C.3    70  LEU70       0.0001
     81  CD2       -1.1420   15.8630   68.0020 C.3    70  LEU70       0.0001
     82  N          0.5870   21.6010   71.7150 N.3    74  GLN74      -0.1245
     83  CA         1.5100   20.9240   72.6180 C.3    74  GLN74       0.1566
     84  C          2.6630   21.8530   72.9870 C.2    74  GLN74       0.2260
     85  O          3.1120   21.8620   74.1270 O.2    74  GLN74      -0.2867
     86  CB         2.0190   19.6230   71.9930 C.3    74  GLN74       0.0367
     87  CG         0.9300   18.5620   71.9510 C.3    74  GLN74       0.0905
     88  CD         1.4050   17.2000   71.4910 C.2    74  GLN74       0.2608
     89  OE1        2.4870   17.0540   70.9270 O.2    74  GLN74      -0.2717
     90  NE2        0.5880   16.1880   71.7370 N.am   74  GLN74      -0.0878
     91  N          1.2950   24.1990   75.6580 N.3    77  GLU77      -0.1245
     92  CA         1.2540   23.4850   76.9440 C.3    77  GLU77       0.1567
     93  C          2.6610   23.3410   77.5240 C.2    77  GLU77       0.2260
     94  O          2.8390   23.2670   78.7270 O.2    77  GLU77      -0.2867
     95  CB         0.6390   22.0890   76.8140 C.3    77  GLU77       0.0388
     96  CG        -0.8260   22.0080   76.4080 C.3    77  GLU77       0.1160
     97  CD        -1.2770   20.5590   76.1780 C.2    77  GLU77       0.3649
     98  OE1       -0.5180   19.7570   75.5920 O.co2  77  GLU77      -0.2457
     99  OE2       -2.3870   20.1980   76.6080 O.co2  77  GLU77      -0.2457
    100  N          2.6710   20.7560   84.8720 N.3    92  ARG92      -0.1245
    101  CA         1.8530   21.3960   83.8600 C.3    92  ARG92       0.1563
    102  C          0.4240   21.4460   84.3430 C.2    92  ARG92       0.2260
    103  O         -0.1110   20.4460   84.8140 O.2    92  ARG92      -0.2867
    104  CB         1.9410   20.6460   82.5380 C.3    92  ARG92       0.0307
    105  CG         1.1020   21.2520   81.4330 C.3    92  ARG92       0.0489
    106  CD         1.1550   20.3540   80.2180 C.3    92  ARG92       0.2205
    107  NE         0.5180   19.0630   80.4740 N.pl3  92  ARG92      -0.0865
    108  CZ        -0.5250   18.5800   79.8060 C.cat  92  ARG92       0.5346
    109  NH1       -1.0830   19.2590   78.8190 N.pl3  92  ARG92       0.1354
    110  NH2       -1.0150   17.3950   80.1300 N.pl3  92  ARG92       0.1354
    111  N         -4.2250   22.1880   79.8970 N.3    95  ASP95      -0.1225
    112  CA        -4.5720   21.2090   78.8850 C.3    95  ASP95       0.1805
    113  C         -5.2570   21.8850   77.7220 C.2    95  ASP95       0.2598
    114  O         -6.1460   22.7030   77.9050 O.2    95  ASP95      -0.2718
    115  CB        -5.4880   20.1310   79.4570 C.3    95  ASP95       0.1424
    116  CG        -4.7790   19.2250   80.4210 C.2    95  ASP95       0.3668
    117  OD1       -3.6790   18.7440   80.0790 O.co2  95  ASP95      -0.2456
    118  OD2       -5.3090   19.0120   81.5310 O.co2  95  ASP95      -0.2456
    119  N         -4.8190   21.5350   76.5230 N.am   96  LEU96      -0.1966
    120  CA        -5.4420   21.9950   75.2910 C.3    96  LEU96       0.1728
    121  C         -5.7920   20.7800   74.4300 C.2    96  LEU96       0.2616
    122  O         -4.9250   20.1330   73.8510 O.2    96  LEU96      -0.2715
    123  CB        -4.5280   22.9590   74.5360 C.3    96  LEU96       0.0311
    124  CG        -4.0470   24.2100   75.2700 C.3    96  LEU96       0.0022
    125  CD1       -3.1040   24.9470   74.3510 C.3    96  LEU96       0.0001
    126  CD2       -5.1960   25.1290   75.7130 C.3    96  LEU96       0.0001
    127  N         -7.0820   20.4760   74.3810 N.am   97  ASP97      -0.1957
    128  CA        -7.5960   19.3210   73.6690 C.3    97  ASP97       0.1840
    129  C         -8.3330   19.7200   72.4080 C.2    97  ASP97       0.2621
    130  O         -9.1860   20.6130   72.4270 O.2    97  ASP97      -0.2715
    131  CB        -8.5530   18.5220   74.5570 C.3    97  ASP97       0.1450
    132  CG        -7.8450   17.5590   75.4820 C.2    97  ASP97       0.3671
    133  OD1       -6.6480   17.2880   75.2700 O.co2  97  ASP97      -0.2456
    134  OD2       -8.5060   17.0610   76.4210 O.co2  97  ASP97      -0.2456
    135  N         -8.0110   19.0550   71.3090 N.am   98  ILE98      -0.1977
    136  CA        -8.7590   19.2580   70.0830 C.3    98  ILE98       0.1596
    137  C         -9.9770   18.3610   70.1270 C.2    98  ILE98       0.2287
    138  O         -9.8760   17.1380   70.1480 O.2    98  ILE98      -0.2864
    139  CB        -7.9350   18.9680   68.8400 C.3    98  ILE98       0.0276
    140  CG1       -6.7460   19.9190   68.7780 C.3    98  ILE98       0.0022
    141  CG2       -8.7820   19.1550   67.6010 C.3    98  ILE98       0.0022
    142  CD1       -5.5090   19.3270   68.1500 C.3    98  ILE98       0.0001
    143  N         -1.9890    7.7160   65.6740 N.3   109  GLU109     -0.1231
    144  CA        -1.2500    7.5220   66.9020 C.3   109  GLU109      0.1699
    145  C         -1.3700    8.7890   67.7580 C.2   109  GLU109      0.2592
    146  O         -1.7050    8.7330   68.9360 O.2   109  GLU109     -0.2718
    147  CB         0.2110    7.1810   66.5840 C.3   109  GLU109      0.0402
    148  CG         0.3720    6.0040   65.6090 C.3   109  GLU109      0.1161
    149  CD         0.3420    6.4250   64.1340 C.2   109  GLU109      0.3649
    150  OE1       -0.2010    7.5120   63.8230 O.co2 109  GLU109     -0.2457
    151  OE2        0.8630    5.6710   63.2790 O.co2 109  GLU109     -0.2457
    152  N         -1.1580    9.9430   67.1360 N.am  110  ARG110     -0.1966
    153  CA        -1.1390   11.2100   67.8680 C.3   110  ARG110      0.1729
    154  C         -2.5300   11.7870   68.0740 C.2   110  ARG110      0.2616
    155  O         -2.7660   12.5060   69.0500 O.2   110  ARG110     -0.2715
    156  CB        -0.2730   12.2330   67.1320 C.3   110  ARG110      0.0348
    157  CG         1.1260   11.7350   66.8640 C.3   110  ARG110      0.0492
    158  CD         1.9980   12.8250   66.2970 C.3   110  ARG110      0.2205
    159  NE         2.1550   13.9300   67.2420 N.pl3 110  ARG110     -0.0865
    160  CZ         2.2050   15.2180   66.9060 C.cat 110  ARG110      0.5346
    161  NH1        2.0990   15.6040   65.6430 N.pl3 110  ARG110      0.1354
    162  NH2        2.3420   16.1360   67.8460 N.pl3 110  ARG110      0.1354
    163  N         -3.4460   11.4610   67.1610 N.am  111  LEU111     -0.1963
    164  CA        -4.7230   12.1590   67.1030 C.3   111  LEU111      0.1728
    165  C         -5.9520   11.2970   66.9580 C.2   111  LEU111      0.2617
    166  O         -6.0940   10.5420   66.0000 O.2   111  LEU111     -0.2715
    167  CB        -4.7290   13.1560   65.9430 C.3   111  LEU111      0.0311
    168  CG        -4.4780   14.6290   66.2460 C.3   111  LEU111      0.0022
    169  CD1       -4.8890   15.4050   65.0150 C.3   111  LEU111      0.0001
    170  CD2       -5.2250   15.1440   67.4990 C.3   111  LEU111      0.0001
    171  N         -6.8570   11.4770   67.9120 N.am  112  THR112     -0.1937
    172  CA        -8.2010   10.9260   67.8670 C.3   112  THR112      0.2028
    173  C         -9.2140   12.0700   67.8930 C.2   112  THR112      0.2642
    174  O         -9.4770   12.6680   68.9440 O.2   112  THR112     -0.2714
    175  CB        -8.4990    9.9770   69.0370 C.3   112  THR112      0.1808
    176  OG1       -7.6100    8.8560   68.9940 O.3   112  THR112     -0.2208
    177  CG2       -9.9610    9.4840   68.9520 C.3   112  THR112      0.0379
    178  N         -9.7740   12.3640   66.7260 N.am  113  VAL113     -0.1977
    179  CA       -10.7900   13.4040   66.5820 C.3   113  VAL113      0.1596
    180  C        -12.0050   12.8150   65.8430 C.2   113  VAL113      0.2287
    181  O        -11.8370   12.1220   64.8380 O.2   113  VAL113     -0.2864
    182  CB       -10.2430   14.6380   65.8210 C.3   113  VAL113      0.0276
    183  CG1      -11.3150   15.7210   65.6800 C.3   113  VAL113      0.0022
    184  CG2       -8.9970   15.1940   66.5140 C.3   113  VAL113      0.0022
    185  N        -12.8350   14.0860   69.8370 N.3   115  HIS115     -0.1226
    186  CA       -12.2120   13.6760   71.0790 C.3   115  HIS115      0.1752
    187  C        -12.8580   12.3800   71.5450 C.2   115  HIS115      0.2596
    188  O        -14.0630   12.1870   71.3830 O.2   115  HIS115     -0.2718
    189  CB       -12.3420   14.7780   72.1240 C.3   115  HIS115      0.0759
    190  CG       -11.5370   14.5290   73.3600 C.ar  115  HIS115      0.0818
    191  ND1      -12.0630   13.9480   74.4840 N.ar  115  HIS115     -0.2268
    192  CD2      -10.2360   14.7960   73.6330 C.ar  115  HIS115      0.1154
    193  CE1      -11.1190   13.8610   75.4140 C.ar  115  HIS115      0.1986
    194  NE2      -10.0090   14.3680   74.9190 N.ar  115  HIS115     -0.2212
    195  N        -12.0520   11.4840   72.1040 N.am  116  TYR116     -0.1976
    196  CA       -12.4850   10.1050   72.3040 C.3   116  TYR116      0.1639
    197  C        -13.5180    9.9580   73.4300 C.2   116  TYR116      0.2290
    198  O        -14.3400    9.0360   73.4020 O.2   116  TYR116     -0.2864
    199  CB       -11.2680    9.2090   72.5880 C.3   116  TYR116      0.0560
    200  CG       -10.7650    9.3170   74.0120 C.ar  116  TYR116     -0.0198
    201  CD1      -10.2680   10.5160   74.5030 C.ar  116  TYR116     -0.0009
    202  CD2      -10.8060    8.2300   74.8690 C.ar  116  TYR116     -0.0009
    203  CE1       -9.8240   10.6250   75.8140 C.ar  116  TYR116      0.0417
    204  CE2      -10.3710    8.3300   76.1750 C.ar  116  TYR116      0.0417
    205  CZ        -9.8770    9.5270   76.6440 C.ar  116  TYR116      0.1957
    206  OH        -9.4360    9.6200   77.9460 O.3   116  TYR116     -0.2866
    207  N        -18.2700   13.8150   78.8190 N.3   121  ARG121     -0.1245
    208  CA       -17.7670   14.9570   79.6000 C.3   121  ARG121      0.1563
    209  C        -18.6240   16.2040   79.4750 C.2   121  ARG121      0.2260
    210  O        -18.6190   16.9010   78.4600 O.2   121  ARG121     -0.2867
    211  CB       -16.3370   15.2700   79.1910 C.3   121  ARG121      0.0307
    212  CG       -15.4960   14.0110   79.1920 C.3   121  ARG121      0.0489
    213  CD       -14.0320   14.2590   78.9960 C.3   121  ARG121      0.2205
    214  NE       -13.2620   13.0290   79.1030 N.pl3 121  ARG121     -0.0865
    215  CZ       -11.9730   12.9670   79.4190 C.cat 121  ARG121      0.5346
    216  NH1      -11.2840   14.0700   79.6740 N.pl3 121  ARG121      0.1354
    217  NH2      -11.3730   11.7910   79.4800 N.pl3 121  ARG121      0.1354
    218  N        -18.0740   18.8730   81.0480 N.3   123  PHE123     -0.1241
    219  CA       -17.2320   20.0730   81.1000 C.3   123  PHE123      0.1605
    220  C        -16.6610   20.4500   79.7250 C.2   123  PHE123      0.2264
    221  O        -16.0560   21.5070   79.5710 O.2   123  PHE123     -0.2867
    222  CB       -16.1030   19.8900   82.1200 C.3   123  PHE123      0.0534
    223  CG       -15.0920   18.8500   81.7350 C.ar  123  PHE123     -0.0203
    224  CD1      -14.0670   19.1520   80.8590 C.ar  123  PHE123     -0.0042
    225  CD2      -15.1370   17.5900   82.2730 C.ar  123  PHE123     -0.0042
    226  CE1      -13.1340   18.2070   80.5170 C.ar  123  PHE123     -0.0003
    227  CE2      -14.1960   16.6450   81.9270 C.ar  123  PHE123     -0.0003
    228  CZ       -13.2050   16.9570   81.0480 C.ar  123  PHE123     -0.0000
@<TRIPOS>BOND
     1   151   149   ar
     2   150   149   ar
     3   149   148    1
     4   181   180    2
     5   169   168    1
     6   148   147    1
     7   161   160    1
     8   143   144    1
     9   183   182    1
    10   182   184    1
    11   182   179    1
    12   180   179    1
    13   167   168    1
    14   167   164    1
    15   166   165    2
    16   168   170    1
    17   158   157    1
    18   158   159    1
    19    74    75    1
    20   179   178    1
    21   147   144    1
    22   178   173   am
    23   157   156    1
    24   144   145    1
    25   160   159    2
    26   160   162    1
    27   165   164    1
    28   165   171   am
    29   164   163    1
    30   156   153    1
    31   152   145   am
    32   152   153    1
    33   163   154   am
    34    78    75    1
    35    78    79    1
    36    75    76    1
    37   141   139    1
    38   145   146    2
    39   172   173    1
    40   172   171    1
    41   172   175    1
    42   153   154    1
    43   173   174    2
    44    81    79    1
    45    76    77    2
    46   154   155    2
    47   142   140    1
    48    79    80    1
    49   140   139    1
    50   139   136    1
    51   177   175    1
    52   176   175    1
    53   185   186    1
    54   136   137    1
    55   136   135    1
    56   137   138    2
    57    89    88    2
    58   186   187    1
    59   186   189    1
    60   135   129   am
    61   188   187    2
    62    88    90   am
    63    88    87    1
    64   187   195   am
    65    82    83    1
    66    87    86    1
    67    86    83    1
    68   195   196    1
    69   189   190    1
    70   196   199    1
    71   196   197    1
    72   129   130    2
    73   129   128    1
    74   199   200    1
    75    83    84    1
    76    84    85    2
    77   190   192   ar
    78   190   191   ar
    79   198   197    2
    80   192   194   ar
    81   128   127    1
    82   128   131    1
    83   122   121    2
    84   200   201   ar
    85   200   202   ar
    86   125   124    1
    87   127   121   am
    88   121   120    1
    89   191   193   ar
    90   201   203   ar
    91   123   124    1
    92   123   120    1
    93   131   132    1
    94   202   204   ar
    95   194   193   ar
    96   124   126    1
    97   133   132   ar
    98   120   119    1
    99   132   134   ar
   100    98    97   ar
   101    91    92    1
   102   203   205   ar
   103   204   205   ar
   104    97    96    1
   105    97    99   ar
   106    96    95    1
   107   119   113   am
   108   205   206    1
   109    95    92    1
   110    92    93    1
   111    93    94    2
   112   113   114    2
   113   113   112    1
   114   210   209    2
   115   207   208    1
   116   109   108    1
   117   112   115    1
   118   112   111    1
   119   213   214    1
   120   213   212    1
   121   214   215    2
   122   211   212    1
   123   211   208    1
   124   215   217    1
   125   215   216    1
   126   115   116    1
   127   209   208    1
   128   221   220    2
   129     1     2    1
   130   220   219    1
   131   108   110    1
   132   108   107    2
   133   117   116   ar
   134   106   107    1
   135   106   105    1
   136   116   118   ar
   137   226   224   ar
   138   226   228   ar
   139    68    69    2
   140    68    67    1
   141   224   223   ar
   142     2     3    1
   143   218   219    1
   144   228   227   ar
   145   219   222    1
   146    73    71   am
   147     4     3    2
   148   105   104    1
   149    67    70    1
   150    67    66    1
   151    70    71    1
   152   223   222    1
   153   223   225   ar
   154   227   225   ar
   155    71    72    2
   156   104   101    1
   157    33    31    1
   158   101   102    1
   159   101   100    1
   160   102   103    2
   161    31    30    1
   162    31    32    1
   163    11     9    1
   164    61    63   ar
   165    61    59   ar
   166    63    64   ar
   167    30    27    1
   168    10     9    1
   169     9     6    1
   170    58    59    1
   171    58    55    1
   172    59    60   ar
   173    64    65    1
   174    64    62   ar
   175    56    57    2
   176    56    55    1
   177    27    26    1
   178    27    28    1
   179    60    62   ar
   180    55    54    1
   181    29    28    2
   182    26    21   am
   183    28    34   am
   184     6     5    1
   185     6     7    1
   186    34    35    1
   187    15    14    2
   188    35    36    1
   189     7     8    2
   190     7    12   am
   191    21    20    1
   192    21    22    2
   193    18    12    1
   194    18    17    1
   195    53    51   am
   196    20    23    1
   197    20    19    1
   198    12    13    1
   199    14    19   am
   200    14    13    1
   201    52    51    2
   202    51    50    1
   203    23    24    1
   204    19    25    1
   205    36    37    2
   206    36    38   am
   207    44    38    1
   208    44    43    1
   209    13    16    1
   210    17    16    1
   211    38    39    1
   212    43    42    1
   213    24    25    1
   214    50    49    1
   215    41    40    2
   216    49    46    1
   217    39    42    1
   218    39    40    1
   219    47    46    1
   220    47    48    2
   221    46    45    1
