@<TRIPOS>MOLECULE
tmp/6an9A00.pdb
 153 147 0 0 0
SMALL
GASTEIGER

@<TRIPOS>ATOM
      1  N         31.7220    4.7450   25.6830 N.3    71  ASP71      -0.1239
      2  CA        32.2460    6.1080   25.4930 C.3    71  ASP71       0.1674
      3  C         31.1360    7.1430   25.4570 C.2    71  ASP71       0.2266
      4  O         30.0420    6.8930   24.9720 O.2    71  ASP71      -0.2867
      5  CB        33.0310    6.2080   24.1950 C.3    71  ASP71       0.1410
      6  CG        34.2660    5.3560   24.2210 C.2    71  ASP71       0.3668
      7  OD1       35.0560    5.4530   25.2030 O.co2  71  ASP71      -0.2456
      8  OD2       34.4280    4.5730   23.2830 O.co2  71  ASP71      -0.2456
      9  N         31.0120    9.0020   32.2880 N.3    75  LYS75      -0.1231
     10  CA        31.7930    8.4070   33.3800 C.3    75  LYS75       0.1693
     11  C         32.7390    9.4090   34.0040 C.2    75  LYS75       0.2592
     12  O         32.7240    9.6330   35.2190 O.2    75  LYS75      -0.2718
     13  CB        32.5920    7.2180   32.8470 C.3    75  LYS75       0.0285
     14  CG        33.3320    6.4700   33.9090 C.3    75  LYS75       0.0035
     15  CD        33.9820    5.1900   33.3810 C.3    75  LYS75       0.0206
     16  CE        34.8790    5.4620   32.1710 C.3    75  LYS75       0.1093
     17  NZ        35.9920    6.4990   32.3460 N.3    75  LYS75      -0.1314
     18  N         33.6220    9.9750   33.2020 N.am   76  ASP76      -0.1974
     19  CA        34.6500   10.8800   33.7500 C.3    76  ASP76       0.1709
     20  C         33.9910   12.0470   34.5680 C.2    76  ASP76       0.2293
     21  O         34.4330   12.4190   35.6370 O.2    76  ASP76      -0.2864
     22  CB        35.6980   11.4510   32.6970 C.3    76  ASP76       0.1436
     23  CG        36.8490   10.4300   32.3130 C.2    76  ASP76       0.3671
     24  OD1       37.7110   10.7480   31.4670 O.co2  76  ASP76      -0.2456
     25  OD2       36.9140    9.3130   32.8610 O.co2  76  ASP76      -0.2456
     26  N         42.5030    5.1960   37.3790 N.3    95  SER95      -0.1202
     27  CA        41.9020    5.1280   36.0300 C.3    95  SER95       0.2020
     28  C         42.6850    4.0700   35.3370 C.2    95  SER95       0.2619
     29  O         43.8390    4.2430   35.1030 O.2    95  SER95      -0.2717
     30  CB        41.9360    6.4780   35.2880 C.3    95  SER95       0.2103
     31  OG        41.2490    7.4510   36.0170 O.3    95  SER95      -0.2182
     32  N         42.0440    2.9600   35.0460 N.am   96  PHE96      -0.1961
     33  CA        42.7760    1.8440   34.4430 C.3    96  PHE96       0.1771
     34  C         42.7620    1.9580   32.9210 C.2    96  PHE96       0.2619
     35  O         41.7040    2.1560   32.3130 O.2    96  PHE96      -0.2715
     36  CB        42.1890    0.4960   34.8800 C.3    96  PHE96       0.0574
     37  CG        42.5800    0.1420   36.2860 C.ar   96  PHE96      -0.0200
     38  CD1       43.8660   -0.2880   36.5620 C.ar   96  PHE96      -0.0042
     39  CD2       41.7090    0.3740   37.3410 C.ar   96  PHE96      -0.0042
     40  CE1       44.2270   -0.6050   37.8970 C.ar   96  PHE96      -0.0003
     41  CE2       42.0750    0.0820   38.6340 C.ar   96  PHE96      -0.0003
     42  CZ        43.3290   -0.3940   38.9300 C.ar   96  PHE96      -0.0000
     43  N         43.9580    1.8970   32.3260 N.am   97  LYS97      -0.1963
     44  CA        44.1390    2.0530   30.8840 C.3    97  LYS97       0.1728
     45  C         44.6370    0.7690   30.2750 C.2    97  LYS97       0.2616
     46  O         44.6950   -0.2490   30.9460 O.2    97  LYS97      -0.2715
     47  CB        45.1950    3.1400   30.6190 C.3    97  LYS97       0.0311
     48  CG        45.0920    4.3810   31.4620 C.3    97  LYS97       0.0038
     49  CD        43.9230    5.1680   31.0930 C.3    97  LYS97       0.0206
     50  CE        43.8750    6.5710   31.7690 C.3    97  LYS97       0.1093
     51  NZ        42.5540    7.1920   31.3690 N.3    97  LYS97      -0.1314
     52  N         45.1850    0.8680   29.0430 N.am   98  VAL98      -0.1964
     53  CA        45.6890   -0.3610   28.4320 C.3    98  VAL98       0.1712
     54  C         46.8140   -0.9020   29.3040 C.2    98  VAL98       0.2458
     55  O         47.7050   -0.1390   29.6900 O.2    98  VAL98      -0.2730
     56  CB        46.1770   -0.1070   26.9870 C.3    98  VAL98       0.0289
     57  CG1       46.8930   -1.2690   26.4760 C.3    98  VAL98       0.0023
     58  CG2       44.9730    0.2420   26.0460 C.3    98  VAL98       0.0023
     59  N         46.8790   -2.2030   29.5750 N.am   99  PRO99      -0.2727
     60  CA        47.9350   -2.7020   30.4560 C.3    99  PRO99       0.1402
     61  C         49.3380   -2.4430   29.9330 C.2    99  PRO99       0.2269
     62  O         49.6350   -2.5610   28.7150 O.2    99  PRO99      -0.2865
     63  CB        47.6410   -4.2130   30.5490 C.3    99  PRO99       0.0296
     64  CG        46.1600   -4.3040   30.3300 C.3    99  PRO99       0.0237
     65  CD        45.8330   -3.2370   29.3210 C.3    99  PRO99       0.0939
     66  N         46.8720   -6.1100   38.8200 N.3   111  ARG111     -0.1245
     67  CA        47.0040   -4.6590   38.9380 C.3   111  ARG111      0.1563
     68  C         45.8390   -4.0750   39.7300 C.2   111  ARG111      0.2260
     69  O         45.9590   -2.9900   40.3100 O.2   111  ARG111     -0.2867
     70  CB        47.0940   -4.0070   37.5670 C.3   111  ARG111      0.0307
     71  CG        45.9010   -4.0570   36.6810 C.3   111  ARG111      0.0489
     72  CD        46.2340   -3.4920   35.2150 C.3   111  ARG111      0.2205
     73  NE        45.0050   -3.3480   34.4300 N.pl3 111  ARG111     -0.0865
     74  CZ        44.8740   -2.3990   33.4860 C.cat 111  ARG111      0.5346
     75  NH1       45.9220   -1.5770   33.2150 N.pl3 111  ARG111      0.1354
     76  NH2       43.7160   -2.2660   32.8610 N.pl3 111  ARG111      0.1354
     77  N         37.9910    3.7890   38.1490 N.3   126  ASN126     -0.1225
     78  CA        37.4800    4.3940   36.9280 C.3   126  ASN126      0.1785
     79  C         37.8990    3.4960   35.7530 C.2   126  ASN126      0.2597
     80  O         39.0320    3.5460   35.2990 O.2   126  ASN126     -0.2718
     81  CB        38.0540    5.8100   36.8050 C.3   126  ASN126      0.1169
     82  CG        37.6120    6.5370   35.5190 C.2   126  ASN126      0.2627
     83  OD1       36.6100    6.2160   34.9360 O.2   126  ASN126     -0.2716
     84  ND2       38.3710    7.5400   35.1340 N.am  126  ASN126     -0.0877
     85  N         36.9930    2.6170   35.3370 N.am  127  ARG127     -0.1966
     86  CA        37.3280    1.3500   34.6790 C.3   127  ARG127      0.1729
     87  C         38.0160    0.4150   35.6770 C.2   127  ARG127      0.2616
     88  O         38.4750    0.8770   36.7230 O.2   127  ARG127     -0.2715
     89  CB        38.1830    1.4880   33.4570 C.3   127  ARG127      0.0348
     90  CG        37.5720    2.3430   32.3850 C.3   127  ARG127      0.0492
     91  CD        38.4130    2.2870   31.0910 C.3   127  ARG127      0.2205
     92  NE        37.9030    3.2190   30.0810 N.pl3 127  ARG127     -0.0865
     93  CZ        36.9690    2.9360   29.1810 C.cat 127  ARG127      0.5346
     94  NH1       36.4310    1.7130   29.1140 N.pl3 127  ARG127      0.1354
     95  NH2       36.6370    3.8910   28.2980 N.pl3 127  ARG127      0.1354
     96  N         38.0170   -0.8920   35.3950 N.am  128  SER128     -0.1950
     97  CA        38.2320   -1.8480   36.4690 C.3   128  SER128      0.1924
     98  C         38.6860   -3.1680   35.8880 C.2   128  SER128      0.2314
     99  O         38.8490   -3.3310   34.6730 O.2   128  SER128     -0.2863
    100  CB        36.9550   -2.0350   37.2690 C.3   128  SER128      0.2116
    101  OG        36.0240   -2.7770   36.5200 O.3   128  SER128     -0.2180
    102  N         37.1300   -4.7220   32.6580 N.3   131  GLU131     -0.1231
    103  CA        37.5870   -4.5270   31.3050 C.3   131  GLU131      0.1699
    104  C         37.9340   -5.8570   30.6690 C.2   131  GLU131      0.2592
    105  O         37.8010   -5.9810   29.4510 O.2   131  GLU131     -0.2718
    106  CB        38.8310   -3.5840   31.2220 C.3   131  GLU131      0.0402
    107  CG        38.4430   -2.1280   31.5870 C.3   131  GLU131      0.1161
    108  CD        37.7110   -1.3820   30.4470 C.2   131  GLU131      0.3649
    109  OE1       38.0570   -1.5690   29.2480 O.co2 131  GLU131     -0.2457
    110  OE2       36.8340   -0.5510   30.7530 O.co2 131  GLU131     -0.2457
    111  N         38.3740   -6.8350   31.4770 N.am  132  ASN132     -0.1974
    112  CA        38.8410   -8.1290   31.0220 C.3   132  ASN132      0.1688
    113  C         37.6970   -9.0650   30.6430 C.2   132  ASN132      0.2292
    114  O         37.9670  -10.1820   30.2130 O.2   132  ASN132     -0.2864
    115  CB        39.7200   -8.7310   32.1230 C.3   132  ASN132      0.1181
    116  CG        40.9660   -7.8670   32.3380 C.2   132  ASN132      0.2629
    117  OD1       41.8070   -7.8230   31.4420 O.2   132  ASN132     -0.2716
    118  ND2       41.0410   -7.1340   33.4360 N.am  132  ASN132     -0.0877
    119  N         36.1770   -5.0120   26.7280 N.3   135  VAL135     -0.1231
    120  CA        36.9800   -4.6230   25.5440 C.3   135  VAL135      0.1692
    121  C         37.7260   -5.9030   25.0340 C.2   135  VAL135      0.2592
    122  O         37.7220   -6.1710   23.8620 O.2   135  VAL135     -0.2718
    123  CB        37.9910   -3.4150   25.7530 C.3   135  VAL135      0.0266
    124  CG1       38.9150   -3.6540   26.9250 C.3   135  VAL135      0.0020
    125  CG2       38.7230   -3.0740   24.4850 C.3   135  VAL135      0.0020
    126  N         38.3680   -6.6860   25.9190 N.am  136  THR136     -0.1953
    127  CA        39.0630   -7.9530   25.5090 C.3   136  THR136      0.1897
    128  C         38.0530   -9.0670   24.9580 C.2   136  THR136      0.2313
    129  O         38.4910   -9.9710   24.2700 O.2   136  THR136     -0.2863
    130  CB        40.0220   -8.5810   26.5870 C.3   136  THR136      0.1794
    131  OG1       39.2420   -9.0510   27.6550 O.3   136  THR136     -0.2208
    132  CG2       41.0400   -7.5040   27.1240 C.3   136  THR136      0.0378
    133  N         43.3410   -8.8940   21.8560 N.3   142  TYR142     -0.1241
    134  CA        44.0760   -8.3820   23.0050 C.3   142  TYR142      0.1605
    135  C         44.5080   -9.5100   23.9430 C.2   142  TYR142      0.2264
    136  O         45.5100   -9.3560   24.6660 O.2   142  TYR142     -0.2867
    137  CB        43.2090   -7.3460   23.7280 C.3   142  TYR142      0.0534
    138  CG        42.8030   -6.1380   22.8190 C.ar  142  TYR142     -0.0201
    139  CD1       43.3280   -5.9830   21.5070 C.ar  142  TYR142     -0.0009
    140  CD2       41.9220   -5.1710   23.2770 C.ar  142  TYR142     -0.0009
    141  CE1       42.9500   -4.8910   20.6860 C.ar  142  TYR142      0.0417
    142  CE2       41.5610   -4.0780   22.5070 C.ar  142  TYR142      0.0417
    143  CZ        42.0600   -3.9340   21.1890 C.ar  142  TYR142      0.1957
    144  OH        41.6970   -2.8400   20.3900 O.3   142  TYR142     -0.2866
    145  N         48.3470  -10.8790   26.3870 N.3   146  GLU146     -0.1245
    146  CA        48.3040  -11.2600   27.7750 C.3   146  GLU146      0.1567
    147  C         49.0770  -12.5630   27.8940 C.2   146  GLU146      0.2260
    148  O         48.5810  -13.6360   27.5270 O.2   146  GLU146     -0.2867
    149  CB        46.8690  -11.4280   28.2180 C.3   146  GLU146      0.0388
    150  CG        46.1140  -10.1220   28.2170 C.3   146  GLU146      0.1160
    151  CD        44.6670  -10.2510   28.6070 C.2   146  GLU146      0.3649
    152  OE1       44.3080  -11.2020   29.3590 O.co2 146  GLU146     -0.2457
    153  OE2       43.8770   -9.3780   28.1510 O.co2 146  GLU146     -0.2457
@<TRIPOS>BOND
     1   144   143    1
     2   141   143   ar
     3   141   139   ar
     4   143   142   ar
     5   139   138   ar
     6   133   134    1
     7   142   140   ar
     8   138   140   ar
     9   138   137    1
    10   134   137    1
    11   134   135    1
    12     8     6   ar
    13   122   121    2
    14   135   136    2
    15     5     6    1
    16     5     2    1
    17     6     7   ar
    18   129   128    2
    19   125   123    1
    20   128   127    1
    21     4     3    2
    22   121   120    1
    23   121   126   am
    24     3     2    1
    25     2     1    1
    26   127   126    1
    27   127   130    1
    28   120   123    1
    29   120   119    1
    30   123   124    1
    31    58    56    1
    32   145   146    1
    33    57    56    1
    34   130   132    1
    35   130   131    1
    36    56    53    1
    37   148   147    2
    38   146   147    1
    39   146   149    1
    40   153   151   ar
    41   150   149    1
    42   150   151    1
    43    95    93    1
    44    53    52    1
    45    53    54    1
    46   151   152   ar
    47    62    61    2
    48    52    45   am
    49    94    93    1
    50    93    92    2
    51   109   108   ar
    52    54    59   am
    53    54    55    2
    54    65    59    1
    55    65    64    1
    56   105   104    2
    57    59    60    1
    58    61    60    1
    59    92    91    1
    60   114   113    2
    61    45    44    1
    62    45    46    2
    63    64    63    1
    64   108   110   ar
    65   108   107    1
    66    60    63    1
    67    47    44    1
    68    47    48    1
    69   113   112    1
    70   104   103    1
    71   104   111   am
    72    44    43    1
    73   112   111    1
    74   112   115    1
    75    91    90    1
    76    49    48    1
    77    49    50    1
    78   106   103    1
    79   106   107    1
    80   103   102    1
    81    51    50    1
    82   117   116    2
    83    24    23   ar
    84   115   116    1
    85    16    17    1
    86    16    15    1
    87     9    10    1
    88    35    34    2
    89    23    22    1
    90    23    25   ar
    91    43    34   am
    92   116   118   am
    93    90    89    1
    94    22    19    1
    95    13    10    1
    96    13    14    1
    97    76    74    1
    98    34    33    1
    99    18    19    1
   100    18    11   am
   101    75    74    1
   102    10    11    1
   103    15    14    1
   104    89    86    1
   105    74    73    2
   106    19    20    1
   107    11    12    2
   108    73    72    1
   109    33    36    1
   110    33    32    1
   111    20    21    2
   112    99    98    2
   113    86    85    1
   114    86    87    1
   115    36    37    1
   116    83    82    2
   117    32    28   am
   118    29    28    2
   119    84    82   am
   120    72    71    1
   121    30    31    1
   122    30    27    1
   123    80    79    2
   124    85    79   am
   125    28    27    1
   126    96    87   am
   127    96    97    1
   128    82    81    1
   129    87    88    2
   130    79    78    1
   131    98    97    1
   132    27    26    1
   133    37    38   ar
   134    37    39   ar
   135    97   100    1
   136   101   100    1
   137    38    40   ar
   138    71    70    1
   139    81    78    1
   140    78    77    1
   141    39    41   ar
   142    70    67    1
   143    40    42   ar
   144    41    42   ar
   145    66    67    1
   146    67    68    1
   147    68    69    2
