@<TRIPOS>MOLECULE
tmp/6angA00.pdb
 146 139 0 0 0
SMALL
GASTEIGER

@<TRIPOS>ATOM
      1  N         31.8000    4.6360   25.4510 N.3    73  ASP73      -0.1239
      2  CA        32.2980    6.0000   25.3480 C.3    73  ASP73       0.1674
      3  C         31.1750    7.0050   25.2910 C.2    73  ASP73       0.2266
      4  O         30.1230    6.7420   24.7330 O.2    73  ASP73      -0.2867
      5  CB        33.1400    6.1950   24.1220 C.3    73  ASP73       0.1410
      6  CG        34.4540    5.4950   24.2280 C.2    73  ASP73       0.3668
      7  OD1       35.0990    5.6240   25.2930 O.co2  73  ASP73      -0.2456
      8  OD2       34.8680    4.8450   23.2370 O.co2  73  ASP73      -0.2456
      9  N         30.7100    8.8900   32.0210 N.3    77  LYS77      -0.1245
     10  CA        31.4320    8.2270   33.1070 C.3    77  LYS77       0.1561
     11  C         32.4920    9.0840   33.7750 C.2    77  LYS77       0.2260
     12  O         32.4540    9.2850   34.9780 O.2    77  LYS77      -0.2867
     13  CB        32.0850    7.0000   32.5660 C.3    77  LYS77       0.0271
     14  CG        32.9310    6.2720   33.5730 C.3    77  LYS77       0.0035
     15  CD        33.2660    4.8670   33.0900 C.3    77  LYS77       0.0206
     16  CE        34.0110    4.8770   31.7680 C.3    77  LYS77       0.1093
     17  NZ        35.3240    5.5620   31.8710 N.3    77  LYS77      -0.1314
     18  N         42.2730    5.1810   37.0260 N.3    97  SER97      -0.1202
     19  CA        41.6910    4.9820   35.7240 C.3    97  SER97       0.2020
     20  C         42.4910    3.9730   34.9760 C.2    97  SER97       0.2619
     21  O         43.5630    4.3080   34.5420 O.2    97  SER97      -0.2717
     22  CB        41.7580    6.2480   34.9030 C.3    97  SER97       0.2103
     23  OG        40.7410    7.1230   35.2810 O.3    97  SER97      -0.2182
     24  N         41.9840    2.7790   34.7510 N.am   98  PHE98      -0.1961
     25  CA        42.8030    1.7830   34.0870 C.3    98  PHE98       0.1771
     26  C         42.7580    1.9130   32.5790 C.2    98  PHE98       0.2619
     27  O         41.7070    2.0490   32.0040 O.2    98  PHE98      -0.2715
     28  CB        42.3870    0.3780   34.4900 C.3    98  PHE98       0.0574
     29  CG        42.6700    0.0660   35.9220 C.ar   98  PHE98      -0.0200
     30  CD1       43.8660   -0.4900   36.3060 C.ar   98  PHE98      -0.0042
     31  CD2       41.7000    0.3090   36.8690 C.ar   98  PHE98      -0.0042
     32  CE1       44.0960   -0.7920   37.6290 C.ar   98  PHE98      -0.0003
     33  CE2       41.9260    0.0220   38.2100 C.ar   98  PHE98      -0.0003
     34  CZ        43.1300   -0.5400   38.5890 C.ar   98  PHE98      -0.0000
     35  N         43.9140    1.7990   31.9630 N.am   99  LYS99      -0.1963
     36  CA        44.0270    1.8640   30.5470 C.3    99  LYS99       0.1728
     37  C         44.6420    0.6430   30.0030 C.2    99  LYS99       0.2616
     38  O         44.7100   -0.3810   30.6430 O.2    99  LYS99      -0.2715
     39  CB        44.7820    3.1040   30.1260 C.3    99  LYS99       0.0311
     40  CG        46.0470    3.4250   30.8470 C.3    99  LYS99       0.0038
     41  CD        45.8730    4.6700   31.7280 C.3    99  LYS99       0.0206
     42  CE        47.2020    5.0570   32.4090 C.3    99  LYS99       0.1093
     43  NZ        46.9760    5.2890   33.8650 N.3    99  LYS99      -0.1314
     44  N         45.0610    0.7080   28.7730 N.am  100  VAL100     -0.1964
     45  CA        45.6850   -0.4240   28.1880 C.3   100  VAL100      0.1712
     46  C         46.8760   -0.8600   29.0530 C.2   100  VAL100      0.2458
     47  O         47.6920   -0.0710   29.4390 O.2   100  VAL100     -0.2730
     48  CB        46.1610   -0.1080   26.7620 C.3   100  VAL100      0.0289
     49  CG1       47.0740   -1.2110   26.2290 C.3   100  VAL100      0.0023
     50  CG2       44.9310    0.0030   25.8650 C.3   100  VAL100      0.0023
     51  N         46.9570   -2.1270   29.3480 N.am  101  PRO101     -0.2727
     52  CA        47.9770   -2.6340   30.2180 C.3   101  PRO101      0.1402
     53  C         49.3820   -2.4170   29.6880 C.2   101  PRO101      0.2269
     54  O         49.6420   -2.4680   28.5080 O.2   101  PRO101     -0.2865
     55  CB        47.6610   -4.1100   30.2960 C.3   101  PRO101      0.0296
     56  CG        46.2250   -4.2000   29.9810 C.3   101  PRO101      0.0237
     57  CD        45.9290   -3.1380   29.0290 C.3   101  PRO101      0.0939
     58  N         46.9080   -6.1590   38.5450 N.3   113  ARG113     -0.1245
     59  CA        46.9390   -4.7170   38.6570 C.3   113  ARG113      0.1563
     60  C         45.7690   -4.1390   39.4230 C.2   113  ARG113      0.2260
     61  O         45.9170   -3.0850   40.0210 O.2   113  ARG113     -0.2867
     62  CB        47.1160   -4.0870   37.3040 C.3   113  ARG113      0.0307
     63  CG        45.8540   -4.0060   36.4510 C.3   113  ARG113      0.0489
     64  CD        46.2780   -3.6270   35.0590 C.3   113  ARG113      0.2205
     65  NE        45.0880   -3.3840   34.2330 N.pl3 113  ARG113     -0.0865
     66  CZ        45.0250   -2.5110   33.2510 C.cat 113  ARG113      0.5346
     67  NH1       46.0730   -1.7130   33.0300 N.pl3 113  ARG113      0.1354
     68  NH2       43.9100   -2.3470   32.5540 N.pl3 113  ARG113      0.1354
     69  N         37.0780    2.3520   35.2000 N.3   129  ARG129     -0.1231
     70  CA        37.3970    1.2100   34.3450 C.3   129  ARG129      0.1694
     71  C         38.0660    0.1800   35.2700 C.2   129  ARG129      0.2592
     72  O         38.9140    0.5420   36.0850 O.2   129  ARG129     -0.2718
     73  CB        38.2060    1.6150   33.1260 C.3   129  ARG129      0.0321
     74  CG        37.2860    2.1240   32.0270 C.3   129  ARG129      0.0489
     75  CD        37.8850    1.8930   30.6590 C.3   129  ARG129      0.2205
     76  NE        37.5090    2.9710   29.7610 N.pl3 129  ARG129     -0.0865
     77  CZ        36.4640    2.9300   28.9410 C.cat 129  ARG129      0.5346
     78  NH1       35.6870    1.8570   28.9070 N.pl3 129  ARG129      0.1354
     79  NH2       36.1950    3.9630   28.1550 N.pl3 129  ARG129      0.1354
     80  N         37.6870   -1.0930   35.1490 N.am  130  SER130     -0.1952
     81  CA        38.1440   -2.0800   36.0770 C.3   130  SER130      0.1924
     82  C         38.5760   -3.3490   35.4640 C.2   130  SER130      0.2314
     83  O         38.8910   -3.3910   34.3350 O.2   130  SER130     -0.2863
     84  CB        36.9770   -2.3420   37.0000 C.3   130  SER130      0.2116
     85  OG        35.8860   -2.7830   36.2610 O.3   130  SER130     -0.2180
     86  N         37.0030   -4.8860   32.2580 N.3   133  GLU133     -0.1231
     87  CA        37.4690   -4.6710   30.8670 C.3   133  GLU133      0.1699
     88  C         37.9050   -5.9860   30.2690 C.2   133  GLU133      0.2592
     89  O         37.8760   -6.1510   29.0900 O.2   133  GLU133     -0.2718
     90  CB        38.6950   -3.7410   30.8350 C.3   133  GLU133      0.0402
     91  CG        38.3910   -2.2950   31.1810 C.3   133  GLU133      0.1161
     92  CD        37.6440   -1.5730   30.0880 C.2   133  GLU133      0.3649
     93  OE1       37.9370   -1.7700   28.8970 O.co2 133  GLU133     -0.2457
     94  OE2       36.7520   -0.8010   30.4420 O.co2 133  GLU133     -0.2457
     95  N         38.3520   -6.9090   31.1100 N.am  134  ASN134     -0.1974
     96  CA        38.8080   -8.1800   30.6670 C.3   134  ASN134      0.1688
     97  C         37.6910   -9.1290   30.2750 C.2   134  ASN134      0.2292
     98  O         37.9380  -10.2470   29.8870 O.2   134  ASN134     -0.2864
     99  CB        39.6680   -8.7940   31.7450 C.3   134  ASN134      0.1181
    100  CG        40.8960   -7.9400   32.0480 C.2   134  ASN134      0.2629
    101  OD1       41.0150   -7.4060   33.1120 O.2   134  ASN134     -0.2716
    102  ND2       41.8110   -7.8520   31.1210 N.am  134  ASN134     -0.0877
    103  N         36.0500   -5.2040   26.4300 N.3   137  VAL137     -0.1231
    104  CA        36.8320   -4.8760   25.2470 C.3   137  VAL137      0.1692
    105  C         37.6290   -6.0680   24.7980 C.2   137  VAL137      0.2592
    106  O         37.9100   -6.2060   23.6660 O.2   137  VAL137     -0.2718
    107  CB        37.7730   -3.6510   25.4780 C.3   137  VAL137      0.0266
    108  CG1       38.9230   -3.9290   26.4300 C.3   137  VAL137      0.0020
    109  CG2       38.3780   -3.2130   24.2050 C.3   137  VAL137      0.0020
    110  N         37.9800   -6.9380   25.7090 N.am  138  THR138     -0.1953
    111  CA        38.7940   -8.0970   25.4020 C.3   138  THR138      0.1897
    112  C         37.9200   -9.2070   24.7930 C.2   138  THR138      0.2313
    113  O         38.4270  -10.0750   24.1780 O.2   138  THR138     -0.2863
    114  CB        39.4230   -8.5150   26.7360 C.3   138  THR138      0.1794
    115  OG1       40.6300   -7.7170   26.8660 O.3   138  THR138     -0.2208
    116  CG2       39.7050   -9.8670   26.7780 C.3   138  THR138      0.0378
    117  N         43.3770   -9.0180   21.6770 N.3   144  TYR144     -0.1241
    118  CA        44.1610   -8.5200   22.7870 C.3   144  TYR144      0.1605
    119  C         44.6620   -9.6690   23.6940 C.2   144  TYR144      0.2264
    120  O         45.7250   -9.5550   24.3020 O.2   144  TYR144     -0.2867
    121  CB        43.3610   -7.5790   23.6320 C.3   144  TYR144      0.0534
    122  CG        43.0710   -6.2490   23.0640 C.ar  144  TYR144     -0.0201
    123  CD1       44.0070   -5.2080   23.1740 C.ar  144  TYR144     -0.0009
    124  CD2       41.8420   -5.9560   22.5250 C.ar  144  TYR144     -0.0009
    125  CE1       43.7250   -3.9110   22.7020 C.ar  144  TYR144      0.0417
    126  CE2       41.5640   -4.6970   22.0170 C.ar  144  TYR144      0.0417
    127  CZ        42.4940   -3.6830   22.1230 C.ar  144  TYR144      0.1957
    128  OH        42.1840   -2.4670   21.6250 O.3   144  TYR144     -0.2866
    129  N         48.4660  -11.1480   26.0950 N.3   148  GLU148     -0.1245
    130  CA        48.5370  -11.5130   27.4930 C.3   148  GLU148      0.1567
    131  C         49.2320  -12.8420   27.5770 C.2   148  GLU148      0.2260
    132  O         48.6930  -13.8270   27.1720 O.2   148  GLU148     -0.2867
    133  CB        47.1640  -11.5830   28.0450 C.3   148  GLU148      0.0388
    134  CG        46.3620  -10.3490   27.7750 C.3   148  GLU148      0.1160
    135  CD        45.0090  -10.3590   28.4800 C.2   148  GLU148      0.3649
    136  OE1       44.8440  -10.9540   29.6220 O.co2 148  GLU148     -0.2457
    137  OE2       44.0970   -9.7870   27.8260 O.co2 148  GLU148     -0.2457
    138  N         34.4730    1.5240   18.1700 N.3   221  GLU221     -0.1245
    139  CA        33.8200    0.7690   19.1720 C.3   221  GLU221      0.1567
    140  C         32.3040    0.9080   18.9950 C.2   221  GLU221      0.2260
    141  O         31.5610   -0.0130   19.3110 O.2   221  GLU221     -0.2867
    142  CB        34.2730    1.1970   20.5660 C.3   221  GLU221      0.0388
    143  CG        35.7460    0.8640   20.9390 C.3   221  GLU221      0.1160
    144  CD        36.3750   -0.3000   20.1460 C.2   221  GLU221      0.3649
    145  OE1       36.0960   -1.4900   20.4160 O.co2 221  GLU221     -0.2457
    146  OE2       37.1660   -0.0240   19.2380 O.co2 221  GLU221     -0.2457
@<TRIPOS>BOND
     1   138   139    1
     2   140   139    1
     3   140   141    2
     4   139   142    1
     5   146   144   ar
     6   144   145   ar
     7   144   143    1
     8   142   143    1
     9   128   127    1
    10   117   118    1
    11   126   127   ar
    12   126   124   ar
    13   127   125   ar
    14   124   122   ar
    15   125   123   ar
    16   118   121    1
    17   118   119    1
    18   122   123   ar
    19   122   121    1
    20     8     6   ar
    21   106   105    2
    22   119   120    2
    23     5     6    1
    24     5     2    1
    25   113   112    2
    26   109   107    1
    27     6     7   ar
    28     4     3    2
    29   112   111    1
    30   105   104    1
    31   105   110   am
    32   104   107    1
    33   104   103    1
    34     3     2    1
    35     2     1    1
    36   111   110    1
    37   111   114    1
    38   107   108    1
    39    50    48    1
    40   129   130    1
    41    49    48    1
    42   114   116    1
    43   114   115    1
    44    48    45    1
    45   132   131    2
    46   130   131    1
    47   130   133    1
    48   134   133    1
    49   134   135    1
    50   137   135   ar
    51    79    77    1
    52    45    44    1
    53    45    46    1
    54   135   136   ar
    55    54    53    2
    56    44    37   am
    57    93    92   ar
    58    78    77    1
    59    77    76    2
    60    57    51    1
    61    57    56    1
    62    46    51   am
    63    46    47    2
    64    89    88    2
    65    51    52    1
    66    53    52    1
    67    76    75    1
    68    98    97    2
    69    56    55    1
    70    37    36    1
    71    37    38    2
    72    92    94   ar
    73    92    91    1
    74    39    36    1
    75    39    40    1
    76    52    55    1
    77    88    87    1
    78    88    95   am
    79    97    96    1
    80    36    35    1
    81    75    74    1
    82    96    95    1
    83    96    99    1
    84    90    87    1
    85    90    91    1
    86    40    41    1
    87    87    86    1
    88   102   100   am
    89    41    42    1
    90    99   100    1
    91    16    17    1
    92    16    15    1
    93    35    26   am
    94    27    26    2
    95     9    10    1
    96    74    73    1
    97   100   101    2
    98    42    43    1
    99    68    66    1
   100    13    10    1
   101    13    14    1
   102    26    25    1
   103    67    66    1
   104    15    14    1
   105    10    11    1
   106    73    70    1
   107    66    65    2
   108    11    12    2
   109    25    28    1
   110    25    24    1
   111    65    64    1
   112    83    82    2
   113    70    69    1
   114    70    71    1
   115    28    29    1
   116    21    20    2
   117    24    20   am
   118    22    23    1
   119    22    19    1
   120    20    19    1
   121    64    63    1
   122    80    71   am
   123    80    81    1
   124    71    72    2
   125    82    81    1
   126    19    18    1
   127    29    30   ar
   128    29    31   ar
   129    81    84    1
   130    85    84    1
   131    30    32   ar
   132    63    62    1
   133    31    33   ar
   134    62    59    1
   135    32    34   ar
   136    33    34   ar
   137    58    59    1
   138    59    60    1
   139    60    61    2
