@<TRIPOS>MOLECULE
tmp/6anhA00.pdb
 212 204 0 0 0
SMALL
GASTEIGER

@<TRIPOS>ATOM
      1  N          4.6520   23.1430  -18.6180 N.3    73  ASP73      -0.1225
      2  CA         5.9510   22.5170  -18.7960 C.3    73  ASP73       0.1805
      3  C          7.0010   23.6130  -18.8400 C.2    73  ASP73       0.2598
      4  O          6.7390   24.7460  -19.2510 O.2    73  ASP73      -0.2718
      5  CB         6.0110   21.7080  -20.0850 C.3    73  ASP73       0.1424
      6  CG         4.9160   20.6660  -20.1910 C.2    73  ASP73       0.3668
      7  OD1        5.1840   19.5180  -19.8030 O.co2  73  ASP73      -0.2456
      8  OD2        3.7670   21.0020  -20.6030 O.co2  73  ASP73      -0.2456
      9  N          8.2050   23.2700  -18.4000 N.am   74  ALA74      -0.1966
     10  CA         9.3310   24.2100  -18.3220 C.3    74  ALA74       0.1728
     11  C          9.0750   25.3850  -17.4130 C.2    74  ALA74       0.2616
     12  O          9.7890   26.3820  -17.5090 O.2    74  ALA74      -0.2715
     13  CB         9.7690   24.7000  -19.7020 C.3    74  ALA74       0.0334
     14  N          8.1090   25.2590  -16.5010 N.am   75  ALA75      -0.1963
     15  CA         7.8030   26.3480  -15.5830 C.3    75  ALA75       0.1728
     16  C          8.8360   26.4770  -14.4620 C.2    75  ALA75       0.2617
     17  O          9.0570   27.5770  -13.9390 O.2    75  ALA75      -0.2715
     18  CB         6.4160   26.1660  -15.0090 C.3    75  ALA75       0.0334
     19  N          9.4700   25.3580  -14.1140 N.am   76  GLY76      -0.1940
     20  CA        10.4070   25.2980  -12.9940 C.3    76  GLY76       0.2014
     21  C          9.8600   24.5980  -11.7530 C.2    76  GLY76       0.2639
     22  O         10.4060   24.8090  -10.6720 O.2    76  GLY76      -0.2714
     23  N          8.8130   23.7620  -11.8950 N.am   77  LYS77      -0.1963
     24  CA         8.3310   22.9490  -10.7860 C.3    77  LYS77       0.1728
     25  C          9.4380   22.1340  -10.0950 C.2    77  LYS77       0.2616
     26  O          9.7400   22.3370   -8.9060 O.2    77  LYS77      -0.2715
     27  CB         7.2070   22.0230  -11.2300 C.3    77  LYS77       0.0311
     28  CG         5.8370   22.6080  -11.0700 C.3    77  LYS77       0.0038
     29  CD         4.7350   21.6520  -11.4950 C.3    77  LYS77       0.0206
     30  CE         4.6590   21.4510  -12.9910 C.3    77  LYS77       0.1093
     31  NZ         5.6010   20.4950  -13.5550 N.3    77  LYS77      -0.1314
     32  N         10.0480   21.2210  -10.8360 N.am   78  ASP78      -0.1957
     33  CA        10.9810   20.2700  -10.2370 C.3    78  ASP78       0.1840
     34  C         12.1070   21.0200   -9.5170 C.2    78  ASP78       0.2622
     35  O         12.4670   20.6980   -8.3920 O.2    78  ASP78      -0.2715
     36  CB        11.5390   19.3380  -11.3220 C.3    78  ASP78       0.1450
     37  CG        12.3930   18.1960  -10.7570 C.2    78  ASP78       0.3671
     38  OD1       13.5680   18.4110  -10.3750 O.co2  78  ASP78      -0.2456
     39  OD2       11.8890   17.0530  -10.7240 O.co2  78  ASP78      -0.2456
     40  N         12.6700   22.0270  -10.1800 N.am   79  GLY79      -0.1954
     41  CA        13.7380   22.8130   -9.5990 C.3    79  GLY79       0.1869
     42  C         13.3170   23.4810   -8.3090 C.2    79  GLY79       0.2309
     43  O         14.0490   23.4760   -7.3230 O.2    79  GLY79      -0.2863
     44  N          2.8500   13.3540   -9.4790 N.3    97  PHE97      -0.1227
     45  CA         1.7850   12.6340  -10.1870 C.3    97  PHE97       0.1736
     46  C          1.9650   12.7160  -11.6920 C.2    97  PHE97       0.2595
     47  O          2.2510   13.7620  -12.2550 O.2    97  PHE97      -0.2718
     48  CB         0.4110   13.1460   -9.7750 C.3    97  PHE97       0.0547
     49  CG         0.1050   12.8870   -8.3280 C.ar   97  PHE97      -0.0202
     50  CD1       -0.4620   11.6970   -7.9460 C.ar   97  PHE97      -0.0042
     51  CD2        0.4180   13.8190   -7.3550 C.ar   97  PHE97      -0.0042
     52  CE1       -0.7190   11.4220   -6.6230 C.ar   97  PHE97      -0.0003
     53  CE2        0.1470   13.5570   -6.0240 C.ar   97  PHE97      -0.0003
     54  CZ        -0.4260   12.3470   -5.6580 C.ar   97  PHE97      -0.0000
     55  N          1.8050   11.5710  -12.3220 N.am   98  LYS98      -0.1966
     56  CA         2.0360   11.3690  -13.7520 C.3    98  LYS98       0.1728
     57  C          0.7230   10.8960  -14.3570 C.2    98  LYS98       0.2616
     58  O         -0.3240   10.9290  -13.7380 O.2    98  LYS98      -0.2715
     59  CB         3.1030   10.2680  -13.9570 C.3    98  LYS98       0.0311
     60  CG         4.4020   10.4800  -13.2050 C.3    98  LYS98       0.0038
     61  CD         5.0850   11.7880  -13.6300 C.3    98  LYS98       0.0206
     62  CE         6.6000   11.7720  -13.4220 C.3    98  LYS98       0.1093
     63  NZ         7.1340   13.0410  -13.9610 N.3    98  LYS98      -0.1314
     64  N          0.7700   10.4510  -15.5880 N.am   99  VAL99      -0.1964
     65  CA        -0.4080    9.9390  -16.2230 C.3    99  VAL99       0.1712
     66  C         -0.9310    8.7830  -15.3720 C.2    99  VAL99       0.2458
     67  O         -0.1750    7.9130  -15.0270 O.2    99  VAL99      -0.2730
     68  CB        -0.0780    9.4730  -17.6890 C.3    99  VAL99       0.0289
     69  CG1       -1.1830    8.6350  -18.2940 C.3    99  VAL99       0.0023
     70  CG2        0.1580   10.6840  -18.5580 C.3    99  VAL99       0.0023
     71  N         -2.2380    8.7400  -15.0910 N.am  100  PRO100     -0.2727
     72  CA        -2.7450    7.6560  -14.2530 C.3   100  PRO100      0.1402
     73  C         -2.4400    6.2480  -14.7470 C.2   100  PRO100      0.2269
     74  O         -2.3800    6.0080  -15.9130 O.2   100  PRO100     -0.2865
     75  CB        -4.2790    7.8940  -14.2370 C.3   100  PRO100      0.0296
     76  CG        -4.4310    9.3380  -14.5220 C.3   100  PRO100      0.0237
     77  CD        -3.3160    9.6810  -15.4730 C.3   100  PRO100      0.0939
     78  N         -6.1410    8.5540   -5.8350 N.3   112  ARG112     -0.1231
     79  CA        -4.7060    8.4910   -5.7810 C.3   112  ARG112      0.1694
     80  C         -4.0680    9.6790   -5.0430 C.2   112  ARG112      0.2592
     81  O         -2.9270    9.5880   -4.5800 O.2   112  ARG112     -0.2718
     82  CB        -4.1100    8.2650   -7.1640 C.3   112  ARG112      0.0321
     83  CG        -3.8260    9.5140   -7.9640 C.3   112  ARG112      0.0489
     84  CD        -3.6040    9.1440   -9.4180 C.3   112  ARG112      0.2205
     85  NE        -3.4000   10.2850  -10.3050 N.pl3 112  ARG112     -0.0865
     86  CZ        -2.3890   10.4590  -11.1600 C.cat 112  ARG112      0.5346
     87  NH1       -1.3960    9.5800  -11.2780 N.pl3 112  ARG112      0.1354
     88  NH2       -2.3590   11.5480  -11.9140 N.pl3 112  ARG112      0.1354
     89  N         -4.8100   10.7560   -4.9130 N.am  113  HIS113     -0.1976
     90  CA        -4.3860   11.9380   -4.1480 C.3   113  HIS113      0.1656
     91  C         -4.6870   11.8360   -2.6680 C.2   113  HIS113      0.2291
     92  O         -3.8610   12.1900   -1.8230 O.2   113  HIS113     -0.2864
     93  CB        -4.9870   13.2110   -4.7820 C.3   113  HIS113      0.0771
     94  CG        -4.3830   13.5070   -6.1270 C.ar  113  HIS113      0.0820
     95  ND1       -5.0440   13.2530   -7.3160 N.ar  113  HIS113     -0.2267
     96  CD2       -3.1380   13.9320   -6.4710 C.ar  113  HIS113      0.1154
     97  CE1       -4.2680   13.5860   -8.3330 C.ar  113  HIS113      0.1986
     98  NE2       -3.1000   13.9810   -7.8490 N.ar  113  HIS113     -0.2212
     99  N          3.9360   17.5050   -6.8060 N.3   127  ASN127     -0.1225
    100  CA         4.4530   18.0590   -8.0410 C.3   127  ASN127      0.1785
    101  C          3.4500   17.5170   -8.9850 C.2   127  ASN127      0.2597
    102  O          3.5400   16.3800   -9.3590 O.2   127  ASN127     -0.2718
    103  CB         5.7970   17.4670   -8.3540 C.3   127  ASN127      0.1169
    104  CG         6.5110   18.2180   -9.4280 C.2   127  ASN127      0.2627
    105  OD1        5.9040   18.9380  -10.1740 O.2   127  ASN127     -0.2716
    106  ND2        7.8000   18.0610   -9.4990 N.am  127  ASN127     -0.0877
    107  N          2.4320   18.3380   -9.2280 N.am  128  ARG128     -0.1966
    108  CA         1.1810   18.1330   -9.9860 C.3   128  ARG128      0.1729
    109  C          0.1370   17.5480   -9.0380 C.2   128  ARG128      0.2616
    110  O          0.4660   16.9020   -8.0790 O.2   128  ARG128     -0.2715
    111  CB         1.2760   17.4210  -11.3360 C.3   128  ARG128      0.0348
    112  CG         2.0110   18.2040  -12.3870 C.3   128  ARG128      0.0492
    113  CD         2.0930   17.4090  -13.6610 C.3   128  ARG128      0.2205
    114  NE         3.0310   17.9850  -14.6050 N.pl3 128  ARG128     -0.0865
    115  CZ         2.7010   18.8240  -15.5740 C.cat 128  ARG128      0.5346
    116  NH1        3.6200   19.2950  -16.3830 N.pl3 128  ARG128      0.1354
    117  NH2        1.4590   19.1960  -15.7330 N.pl3 128  ARG128      0.1354
    118  N         -1.1320   17.7790   -9.3030 N.am  129  SER129     -0.1950
    119  CA        -2.1460   17.3580   -8.3640 C.3   129  SER129      0.1924
    120  C         -3.4330   16.9060   -8.9480 C.2   129  SER129      0.2314
    121  O         -3.4800   16.4350  -10.0490 O.2   129  SER129     -0.2863
    122  CB        -2.3740   18.4980   -7.3990 C.3   129  SER129      0.2116
    123  OG        -2.6420   19.6640   -8.1170 O.3   129  SER129     -0.2180
    124  N         -4.8850   18.5010  -12.0880 N.3   132  GLU132     -0.1231
    125  CA        -4.7210   18.0340  -13.4460 C.3   132  GLU132      0.1699
    126  C         -6.0490   17.6310  -14.0540 C.2   132  GLU132      0.2592
    127  O         -6.2500   17.7410  -15.2700 O.2   132  GLU132     -0.2718
    128  CB        -3.7420   16.8500  -13.4860 C.3   132  GLU132      0.0402
    129  CG        -2.2970   17.2270  -13.1730 C.3   132  GLU132      0.1161
    130  CD        -1.6400   18.0120  -14.2830 C.2   132  GLU132      0.3649
    131  OE1       -1.9800   17.7580  -15.4680 O.co2 132  GLU132     -0.2457
    132  OE2       -0.7950   18.8810  -13.9750 O.co2 132  GLU132     -0.2457
    133  N         -6.9630   17.1770  -13.2080 N.am  133  ASN133     -0.1974
    134  CA        -8.2810   16.7510  -13.6570 C.3   133  ASN133      0.1688
    135  C         -9.2470   17.9170  -14.0210 C.2   133  ASN133      0.2292
    136  O        -10.4050   17.6870  -14.3370 O.2   133  ASN133     -0.2864
    137  CB        -8.9030   15.8700  -12.5850 C.3   133  ASN133      0.1181
    138  CG        -8.0410   14.6470  -12.2570 C.2   133  ASN133      0.2629
    139  OD1       -7.3420   14.6130  -11.2590 O.2   133  ASN133     -0.2716
    140  ND2       -8.0910   13.6570  -13.0980 N.am  133  ASN133     -0.0877
    141  N         -5.3940   19.5230  -17.9880 N.3   136  VAL136     -0.1231
    142  CA        -5.1100   18.7400  -19.1740 C.3   136  VAL136      0.1692
    143  C         -6.3610   18.0450  -19.6390 C.2   136  VAL136      0.2592
    144  O         -6.6330   17.9560  -20.7990 O.2   136  VAL136     -0.2718
    145  CB        -3.9920   17.7260  -18.9260 C.3   136  VAL136      0.0266
    146  CG1       -4.4560   16.6040  -18.0450 C.3   136  VAL136      0.0020
    147  CG2       -3.4750   17.1690  -20.2190 C.3   136  VAL136      0.0020
    148  N         -7.1440   17.5760  -18.7040 N.am  137  THR137     -0.1953
    149  CA        -8.3930   16.9140  -19.0290 C.3   137  THR137      0.1897
    150  C         -9.4110   17.9010  -19.6450 C.2   137  THR137      0.2313
    151  O        -10.2620   17.4980  -20.4310 O.2   137  THR137     -0.2863
    152  CB        -9.0010   16.2890  -17.7540 C.3   137  THR137      0.1794
    153  OG1       -8.0110   15.4850  -17.1260 O.3   137  THR137     -0.2208
    154  CG2      -10.1320   15.4120  -18.0960 C.3   137  THR137      0.0378
    155  N        -10.0760   12.5990  -23.2710 N.3   143  TYR143     -0.1241
    156  CA        -9.5590   11.6950  -22.2380 C.3   143  TYR143      0.1605
    157  C        -10.6500   11.2160  -21.3070 C.2   143  TYR143      0.2264
    158  O        -10.6730   10.0370  -20.9440 O.2   143  TYR143     -0.2867
    159  CB        -8.4530   12.2990  -21.4000 C.3   143  TYR143      0.0534
    160  CG        -7.2170   12.7590  -22.1470 C.ar  143  TYR143     -0.0201
    161  CD1       -6.9630   12.3870  -23.4930 C.ar  143  TYR143     -0.0009
    162  CD2       -6.2670   13.5610  -21.4900 C.ar  143  TYR143     -0.0009
    163  CE1       -5.8050   12.8200  -24.1400 C.ar  143  TYR143      0.0417
    164  CE2       -5.1200   13.9880  -22.1340 C.ar  143  TYR143      0.0417
    165  CZ        -4.8850   13.6110  -23.4530 C.ar  143  TYR143      0.1957
    166  OH        -3.7370   14.0550  -24.0540 O.3   143  TYR143     -0.2866
    167  N        -11.8630    7.4260  -19.0230 N.3   147  GLU147     -0.1245
    168  CA       -11.8210    7.2950  -17.5660 C.3   147  GLU147      0.1567
    169  C        -13.1860    6.7290  -17.1880 C.2   147  GLU147      0.2260
    170  O        -14.1600    7.4740  -17.1010 O.2   147  GLU147     -0.2867
    171  CB       -11.5530    8.6560  -16.9170 C.3   147  GLU147      0.0388
    172  CG       -10.3030    9.3570  -17.4110 C.3   147  GLU147      0.1160
    173  CD       -10.0170   10.6910  -16.7180 C.2   147  GLU147      0.3649
    174  OE1      -10.8440   11.1590  -15.8750 O.co2 147  GLU147     -0.2457
    175  OE2       -8.9520   11.2850  -17.0290 O.co2 147  GLU147     -0.2457
    176  N         16.7720   23.8250  -23.6940 N.3   203  ARG203     -0.1245
    177  CA        16.7050   22.3760  -23.4880 C.3   203  ARG203      0.1563
    178  C         17.0540   21.5970  -24.7680 C.2   203  ARG203      0.2260
    179  O         17.6990   20.5350  -24.7050 O.2   203  ARG203     -0.2867
    180  CB        15.3150   21.9450  -22.9950 C.3   203  ARG203      0.0307
    181  CG        15.1410   22.1140  -21.5170 C.3   203  ARG203      0.0489
    182  CD        13.7920   21.6390  -21.0180 C.3   203  ARG203      0.2205
    183  NE        13.5290   22.2450  -19.7050 N.pl3 203  ARG203     -0.0865
    184  CZ        12.4710   21.9870  -18.9450 C.cat 203  ARG203      0.5346
    185  NH1       12.3420   22.5970  -17.7750 N.pl3 203  ARG203      0.1354
    186  NH2       11.5440   21.1160  -19.3410 N.pl3 203  ARG203      0.1354
    187  N         16.3280   14.3690  -22.6190 N.3   212  LYS212     -0.1245
    188  CA        15.1350   14.4620  -21.7520 C.3   212  LYS212      0.1561
    189  C         13.9470   15.1000  -22.4610 C.2   212  LYS212      0.2260
    190  O         12.8020   14.7320  -22.1980 O.2   212  LYS212     -0.2867
    191  CB        15.4340   15.2510  -20.4520 C.3   212  LYS212      0.0271
    192  CG        14.3160   15.0100  -19.4140 C.3   212  LYS212      0.0035
    193  CD        14.2540   16.0470  -18.3350 C.3   212  LYS212      0.0206
    194  CE        13.9510   17.4740  -18.8190 C.3   212  LYS212      0.1093
    195  NZ        14.5430   18.3920  -17.7630 N.3   212  LYS212     -0.1314
    196  N          5.5940   18.0810  -25.4140 N.3   217  ASP217     -0.1239
    197  CA         5.5040   19.3610  -24.7320 C.3   217  ASP217      0.1674
    198  C          5.0850   20.5060  -25.6460 C.2   217  ASP217      0.2266
    199  O          4.4560   21.4700  -25.2050 O.2   217  ASP217     -0.2867
    200  CB         6.8230   19.6900  -24.0260 C.3   217  ASP217      0.1410
    201  CG         7.1510   18.7050  -22.8920 C.2   217  ASP217      0.3668
    202  OD1        6.5160   17.6100  -22.8140 O.co2 217  ASP217     -0.2456
    203  OD2        8.0450   19.0400  -22.0860 O.co2 217  ASP217     -0.2456
    204  N          1.1760   20.6320  -26.2450 N.3   220  GLU220     -0.1245
    205  CA         0.4780   21.3430  -25.1870 C.3   220  GLU220      0.1567
    206  C          0.7080   22.8510  -25.2640 C.2   220  GLU220      0.2260
    207  O         -0.1830   23.6140  -24.9140 O.2   220  GLU220     -0.2867
    208  CB         0.8930   20.8090  -23.7960 C.3   220  GLU220      0.0388
    209  CG         0.7850   19.3030  -23.6160 C.3   220  GLU220      0.1160
    210  CD        -0.5870   18.7640  -23.9500 C.2   220  GLU220      0.3649
    211  OE1       -1.5840   19.4980  -23.8380 O.co2 220  GLU220     -0.2457
    212  OE2       -0.6980   17.5810  -24.2910 O.co2 220  GLU220     -0.2457
@<TRIPOS>BOND
     1   204   205    1
     2   198   199    2
     3   198   197    1
     4   196   197    1
     5   206   205    1
     6   206   207    2
     7   205   208    1
     8   178   179    2
     9   178   177    1
    10   197   200    1
    11   212   210   ar
    12   163   161   ar
    13   163   165   ar
    14   166   165    1
    15   200   201    1
    16   210   211   ar
    17   210   209    1
    18   208   209    1
    19   176   177    1
    20   161   160   ar
    21   177   180    1
    22   165   164   ar
    23   155   156    1
    24   180   181    1
    25   201   202   ar
    26   201   203   ar
    27   187   188    1
    28   189   190    2
    29   189   188    1
    30   156   159    1
    31   156   157    1
    32   160   162   ar
    33   160   159    1
    34   164   162   ar
    35   188   191    1
    36   181   182    1
    37   157   158    2
    38   182   183    1
    39   144   143    2
    40     8     6   ar
    41   191   192    1
    42   151   150    2
    43   147   145    1
    44     6     5    1
    45     6     7   ar
    46     5     2    1
    47   183   184    2
    48    13    10    1
    49   150   149    1
    50   143   142    1
    51   143   148   am
    52   192   193    1
    53   186   184    1
    54     4     3    2
    55   142   145    1
    56   142   141    1
    57   149   148    1
    58   149   152    1
    59   167   168    1
    60   184   185    1
    61   145   146    1
    62     3     2    1
    63     3     9   am
    64   194   193    1
    65   194   195    1
    66     2     1    1
    67    70    68    1
    68     9    10    1
    69    10    11    1
    70    69    68    1
    71   154   152    1
    72   152   153    1
    73    68    65    1
    74   168   169    1
    75   168   171    1
    76    12    11    2
    77    11    14   am
    78   172   171    1
    79   172   173    1
    80   169   170    2
    81   175   173   ar
    82   173   174   ar
    83    14    15    1
    84   116   115    1
    85    65    64    1
    86    65    66    1
    87    74    73    2
    88   117   115    1
    89    64    57   am
    90    15    18    1
    91    15    16    1
    92   115   114    2
    93    77    71    1
    94    77    76    1
    95   131   130   ar
    96    66    71   am
    97    66    67    2
    98   127   126    2
    99    71    72    1
   100    73    72    1
   101   114   113    1
   102    76    75    1
   103    16    19   am
   104    16    17    2
   105    57    56    1
   106    57    58    2
   107   136   135    2
   108   130   132   ar
   109   130   129    1
   110    72    75    1
   111    19    20    1
   112   126   125    1
   113   126   133   am
   114   135   134    1
   115    63    62    1
   116    59    56    1
   117    59    60    1
   118    56    55    1
   119   113   112    1
   120   134   133    1
   121   134   137    1
   122    61    62    1
   123    61    60    1
   124    31    30    1
   125   128   125    1
   126   128   129    1
   127   125   124    1
   128   140   138   am
   129    20    21    1
   130    30    29    1
   131   137   138    1
   132   112   111    1
   133    55    46   am
   134   138   139    2
   135    47    46    2
   136    88    86    1
   137    23    21   am
   138    23    24    1
   139    21    22    2
   140    46    45    1
   141    29    28    1
   142   111   108    1
   143    36    37    1
   144    36    33    1
   145    87    86    1
   146    27    28    1
   147    27    24    1
   148    86    85    2
   149    32    33    1
   150    32    25   am
   151    24    25    1
   152    37    39   ar
   153    37    38   ar
   154    85    84    1
   155    33    34    1
   156    45    48    1
   157    45    44    1
   158    40    41    1
   159    40    34   am
   160   105   104    2
   161    25    26    2
   162   121   120    2
   163   108   107    1
   164   108   109    1
   165    48    49    1
   166    41    42    1
   167    34    35    2
   168   106   104   am
   169   104   103    1
   170    84    83    1
   171   102   101    2
   172   118   109   am
   173   118   119    1
   174   107   101   am
   175   109   110    2
   176   101   100    1
   177   120   119    1
   178   119   122    1
   179   103   100    1
   180    97    98   ar
   181    97    95   ar
   182    49    50   ar
   183    49    51   ar
   184    42    43    2
   185   123   122    1
   186   100    99    1
   187    83    82    1
   188    50    52   ar
   189    98    96   ar
   190    51    53   ar
   191    95    94   ar
   192    82    79    1
   193    52    54   ar
   194    96    94   ar
   195    94    93    1
   196    53    54   ar
   197    78    79    1
   198    79    80    1
   199    80    89   am
   200    80    81    2
   201    89    90    1
   202    93    90    1
   203    90    91    1
   204    91    92    2
