@<TRIPOS>MOLECULE
tmp/6anqA00.pdb
 141 134 0 0 0
SMALL
GASTEIGER

@<TRIPOS>ATOM
      1  N         31.0290   33.8860   33.4340 N.3    67  LYS67      -0.1245
      2  CA        31.8570   33.1630   34.3900 C.3    67  LYS67       0.1561
      3  C         31.6810   33.7370   35.7940 C.2    67  LYS67       0.2260
      4  O         30.9610   34.7150   36.0130 O.2    67  LYS67      -0.2867
      5  CB        33.3280   33.1990   33.9680 C.3    67  LYS67       0.0271
      6  CG        33.6920   32.1860   32.8970 C.3    67  LYS67       0.0035
      7  CD        35.1990   32.0850   32.7350 C.3    67  LYS67       0.0206
      8  CE        35.5790   31.0020   31.7410 C.3    67  LYS67       0.1093
      9  NZ        37.0550   30.8590   31.6170 N.3    67  LYS67      -0.1314
     10  N         35.1060   36.8330   31.2050 N.3    72  LYS72      -0.1245
     11  CA        35.2310   35.8750   30.1180 C.3    72  LYS72       0.1561
     12  C         33.9690   35.0280   30.0050 C.2    72  LYS72       0.2260
     13  O         33.2280   34.8380   30.9730 O.2    72  LYS72      -0.2867
     14  CB        36.4550   34.9810   30.3250 C.3    72  LYS72       0.0271
     15  CG        37.7780   35.7130   30.1770 C.3    72  LYS72       0.0035
     16  CD        38.9440   34.8520   30.6270 C.3    72  LYS72       0.0206
     17  CE        40.2680   35.5510   30.3710 C.3    72  LYS72       0.1093
     18  NZ        41.4160   34.7660   30.8980 N.3    72  LYS72      -0.1314
     19  N         31.8270   31.4720   28.7320 N.3    74  ARG74      -0.1245
     20  CA        31.9440   30.0200   28.7760 C.3    74  ARG74       0.1563
     21  C         31.0810   29.4230   27.6730 C.2    74  ARG74       0.2260
     22  O         29.8670   29.6540   27.6380 O.2    74  ARG74      -0.2867
     23  CB        31.5200   29.4920   30.1480 C.3    74  ARG74       0.0307
     24  CG        31.6210   27.9870   30.3110 C.3    74  ARG74       0.0489
     25  CD        31.3490   27.5660   31.7480 C.3    74  ARG74       0.2205
     26  NE        32.4000   28.0150   32.6570 N.pl3  74  ARG74      -0.0865
     27  CZ        33.5270   27.3470   32.8780 C.cat  74  ARG74       0.5346
     28  NH1       33.7520   26.1990   32.2540 N.pl3  74  ARG74       0.1354
     29  NH2       34.4310   27.8250   33.7230 N.pl3  74  ARG74       0.1354
     30  N         29.2810   26.3850   26.2130 N.3    76  LEU76      -0.1245
     31  CA        28.7300   25.1210   26.6910 C.3    76  LEU76       0.1561
     32  C         27.8670   24.5200   25.5900 C.2    76  LEU76       0.2260
     33  O         26.7560   24.9980   25.3360 O.2    76  LEU76      -0.2867
     34  CB        27.9170   25.3350   27.9670 C.3    76  LEU76       0.0270
     35  CG        28.6510   26.0060   29.1280 C.3    76  LEU76       0.0019
     36  CD1       27.6650   26.5270   30.1630 C.3    76  LEU76       0.0001
     37  CD2       29.6290   25.0310   29.7610 C.3    76  LEU76       0.0001
     38  N         45.6520   26.5030   38.5900 N.3   112  ASP112     -0.1225
     39  CA        44.3920   26.3760   37.8620 C.3   112  ASP112      0.1805
     40  C         44.7280   26.3320   36.3780 C.2   112  ASP112      0.2598
     41  O         45.1380   27.3480   35.8080 O.2   112  ASP112     -0.2718
     42  CB        43.4540   27.5320   38.1900 C.3   112  ASP112      0.1424
     43  CG        42.0140   27.2510   37.7980 C.2   112  ASP112      0.3668
     44  OD1       41.7840   26.6660   36.7180 O.co2 112  ASP112     -0.2456
     45  OD2       41.1070   27.6140   38.5750 O.co2 112  ASP112     -0.2456
     46  N         44.5600   25.1640   35.7630 N.am  113  VAL113     -0.1966
     47  CA        44.8990   24.9940   34.3550 C.3   113  VAL113      0.1727
     48  C         43.9530   25.8310   33.5040 C.2   113  VAL113      0.2617
     49  O         42.7280   25.6690   33.5680 O.2   113  VAL113     -0.2715
     50  CB        44.8420   23.5160   33.9520 C.3   113  VAL113      0.0290
     51  CG1       45.1120   23.3670   32.4610 C.3   113  VAL113      0.0023
     52  CG2       45.8430   22.7050   34.7580 C.3   113  VAL113      0.0023
     53  N         44.5220   26.7310   32.7020 N.am  114  GLY114     -0.1940
     54  CA        43.7250   27.5160   31.7730 C.3   114  GLY114      0.2014
     55  C         43.3580   26.7020   30.5430 C.2   114  GLY114      0.2639
     56  O         44.1910   26.0140   29.9530 O.2   114  GLY114     -0.2714
     57  N         42.0880   26.7990   30.1570 N.am  115  ASP115     -0.1957
     58  CA        41.5200   26.0260   29.0480 C.3   115  ASP115      0.1840
     59  C         41.7760   24.5320   29.2540 C.2   115  ASP115      0.2622
     60  O         42.5110   23.8790   28.5130 O.2   115  ASP115     -0.2715
     61  CB        42.0720   26.5070   27.7010 C.3   115  ASP115      0.1450
     62  CG        41.6330   27.9180   27.3660 C.2   115  ASP115      0.3671
     63  OD1       40.5200   28.3090   27.7760 O.co2 115  ASP115     -0.2456
     64  OD2       42.4020   28.6360   26.6910 O.co2 115  ASP115     -0.2456
     65  N         41.1560   24.0150   30.3130 N.am  116  ALA116     -0.1963
     66  CA        41.3230   22.6210   30.6980 C.3   116  ALA116      0.1728
     67  C         40.8610   21.6860   29.5880 C.2   116  ALA116      0.2616
     68  O         41.6730   20.9660   28.9980 O.2   116  ALA116     -0.2715
     69  CB        40.5590   22.3300   31.9910 C.3   116  ALA116      0.0334
     70  N         39.5590   21.6960   29.2940 N.am  117  TYR117     -0.1974
     71  CA        39.0250   20.8000   28.2740 C.3   117  TYR117      0.1639
     72  C         39.5540   21.1430   26.8870 C.2   117  TYR117      0.2290
     73  O         39.6240   20.2670   26.0180 O.2   117  TYR117     -0.2864
     74  CB        37.4960   20.8420   28.2750 C.3   117  TYR117      0.0560
     75  CG        36.8400   20.2490   29.5050 C.ar  117  TYR117     -0.0198
     76  CD1       37.5930   19.6380   30.5010 C.ar  117  TYR117     -0.0009
     77  CD2       35.4610   20.2900   29.6600 C.ar  117  TYR117     -0.0009
     78  CE1       36.9910   19.0970   31.6210 C.ar  117  TYR117      0.0417
     79  CE2       34.8500   19.7490   30.7750 C.ar  117  TYR117      0.0417
     80  CZ        35.6190   19.1540   31.7520 C.ar  117  TYR117      0.1957
     81  OH        35.0090   18.6170   32.8630 O.3   117  TYR117     -0.2866
     82  N         32.9910   21.3890   26.2060 N.3   153  GLN153     -0.1231
     83  CA        32.3700   21.5700   27.5140 C.3   153  GLN153      0.1698
     84  C         30.8710   21.3300   27.3780 C.2   153  GLN153      0.2592
     85  O         30.1730   22.0850   26.6940 O.2   153  GLN153     -0.2718
     86  CB        32.6610   22.9640   28.0600 C.3   153  GLN153      0.0381
     87  CG        34.1420   23.2690   28.2120 C.3   153  GLN153      0.0905
     88  CD        34.3950   24.5950   28.8990 C.2   153  GLN153      0.2608
     89  OE1       33.4780   25.2080   29.4470 O.2   153  GLN153     -0.2717
     90  NE2       35.6440   25.0470   28.8740 N.am  153  GLN153     -0.0878
     91  N         30.3770   20.2780   28.0240 N.am  154  GLY154     -0.1957
     92  CA        28.9800   19.9080   27.9170 C.3   154  GLY154      0.1869
     93  C         28.8070   18.4550   27.5300 C.2   154  GLY154      0.2309
     94  O         27.7400   17.8670   27.7290 O.2   154  GLY154     -0.2863
     95  N         34.6360   15.3620   31.3160 N.3   159  PRO159     -0.2116
     96  CA        35.2550   15.3290   32.6560 C.3   159  PRO159      0.1372
     97  C         36.1070   14.0950   32.9020 C.2   159  PRO159      0.2244
     98  O         37.2270   14.2130   33.4130 O.2   159  PRO159     -0.2868
     99  CB        34.0440   15.3930   33.5980 C.3   159  PRO159      0.0268
    100  CG        32.9720   16.0320   32.7940 C.3   159  PRO159      0.0207
    101  CD        33.1710   15.5100   31.4080 C.3   159  PRO159      0.0892
    102  N         39.7430   17.9680   39.1490 N.3   186  MET186     -0.1230
    103  CA        39.4100   18.5860   37.8620 C.3   186  MET186      0.1702
    104  C         40.6640   19.2880   37.3540 C.2   186  MET186      0.2592
    105  O         41.6990   18.6190   37.1950 O.2   186  MET186     -0.2718
    106  CB        38.1680   19.4660   38.0280 C.3   186  MET186      0.0401
    107  CG        37.4880   19.8610   36.7200 C.3   186  MET186      0.0596
    108  SD        36.3730   18.6060   36.0500 S.3   186  MET186     -0.1393
    109  CE        37.4780   17.6600   35.0070 C.3   186  MET186      0.0692
    110  N         40.6390   20.5960   37.1020 N.am  187  ASP187     -0.1960
    111  CA        41.8150   21.3040   36.6180 C.3   187  ASP187      0.1840
    112  C         42.6200   21.9590   37.7300 C.2   187  ASP187      0.2622
    113  O         43.8140   22.2180   37.5390 O.2   187  ASP187     -0.2715
    114  CB        41.4050   22.3760   35.6080 C.3   187  ASP187      0.1450
    115  CG        40.5300   23.4430   36.2250 C.2   187  ASP187      0.3671
    116  OD1       39.6760   23.0940   37.0670 O.co2 187  ASP187     -0.2456
    117  OD2       40.6970   24.6280   35.8740 O.co2 187  ASP187     -0.2456
    118  N         42.0010   22.2390   38.8740 N.am  188  ASP188     -0.1971
    119  CA        42.7150   22.8790   39.9700 C.3   188  ASP188      0.1709
    120  C         43.6610   21.8900   40.6370 C.2   188  ASP188      0.2293
    121  O         43.3000   20.7390   40.8990 O.2   188  ASP188     -0.2864
    122  CB        41.7280   23.4450   40.9900 C.3   188  ASP188      0.1436
    123  CG        40.9620   24.6410   40.4560 C.2   188  ASP188      0.3671
    124  OD1       40.0630   24.4460   39.6110 O.co2 188  ASP188     -0.2456
    125  OD2       41.2610   25.7790   40.8760 O.co2 188  ASP188     -0.2456
    126  N         48.3720   29.9250   34.0570 N.3   219  PRO219     -0.2116
    127  CA        48.5900   31.3750   34.0380 C.3   219  PRO219      0.1372
    128  C         48.6730   31.9580   35.4400 C.2   219  PRO219      0.2244
    129  O         48.2380   31.3600   36.4260 O.2   219  PRO219     -0.2868
    130  CB        47.3650   31.9080   33.2870 C.3   219  PRO219      0.0268
    131  CG        46.3130   30.8770   33.5160 C.3   219  PRO219      0.0207
    132  CD        47.0330   29.5570   33.5630 C.3   219  PRO219      0.0892
    133  N         45.2230   32.9430   38.0750 N.3   222  LYS222     -0.1245
    134  CA        44.7050   32.0900   39.1360 C.3   222  LYS222      0.1561
    135  C         45.8200   31.3370   39.8580 C.2   222  LYS222      0.2260
    136  O         45.6190   30.2160   40.3300 O.2   222  LYS222     -0.2867
    137  CB        43.6710   31.1140   38.5800 C.3   222  LYS222      0.0271
    138  CG        42.4290   31.7850   38.0140 C.3   222  LYS222      0.0035
    139  CD        41.4340   30.7590   37.4970 C.3   222  LYS222      0.0206
    140  CE        40.1780   31.4260   36.9590 C.3   222  LYS222      0.1093
    141  NZ        39.1980   30.4240   36.4550 N.3   222  LYS222     -0.1314
@<TRIPOS>BOND
     1    33    32    2
     2    32    31    1
     3    73    72    2
     4    82    83    1
     5    30    31    1
     6    31    34    1
     7    64    62   ar
     8    85    84    2
     9    72    71    1
    10    62    61    1
    11    62    63   ar
    12    84    83    1
    13    84    91   am
    14    83    86    1
    15    93    94    2
    16    93    92    1
    17    22    21    2
    18    21    20    1
    19    61    58    1
    20    92    91    1
    21    34    35    1
    22    86    87    1
    23    87    88    1
    24    71    74    1
    25    71    70    1
    26    74    75    1
    27    60    59    2
    28    19    20    1
    29    20    23    1
    30    90    88   am
    31    88    89    2
    32    68    67    2
    33    58    59    1
    34    58    57    1
    35    35    37    1
    36    35    36    1
    37    59    65   am
    38    70    67   am
    39    75    77   ar
    40    75    76   ar
    41    67    66    1
    42    77    79   ar
    43    56    55    2
    44    12    11    1
    45    12    13    2
    46    11    14    1
    47    11    10    1
    48    23    24    1
    49    57    55   am
    50    15    14    1
    51    15    16    1
    52    24    25    1
    53    65    66    1
    54    17    16    1
    55    17    18    1
    56    76    78   ar
    57    55    54    1
    58    66    69    1
    59    79    80   ar
    60    95   101    1
    61    95    96    1
    62   101   100    1
    63     9     8    1
    64    78    80   ar
    65     8     7    1
    66    25    26    1
    67    80    81    1
    68    54    53    1
    69    28    27    1
    70    51    50    1
    71    96    97    1
    72    96    99    1
    73    26    27    2
    74    53    48   am
    75     7     6    1
    76   100    99    1
    77    27    29    1
    78     6     5    1
    79    97    98    2
    80   130   131    1
    81   130   127    1
    82     1     2    1
    83    48    49    2
    84    48    47    1
    85   131   132    1
    86   132   126    1
    87    50    47    1
    88    50    52    1
    89     5     2    1
    90   127   126    1
    91   127   128    1
    92    47    46    1
    93     2     3    1
    94   109   108    1
    95   128   129    2
    96   114   115    1
    97   114   111    1
    98    46    40   am
    99     3     4    2
   100    41    40    2
   101   117   115   ar
   102   108   107    1
   103   115   116   ar
   104    40    39    1
   105   141   140    1
   106   111   110    1
   107   111   112    1
   108    44    43   ar
   109   107   106    1
   110   140   139    1
   111   110   104   am
   112   105   104    2
   113   104   103    1
   114   139   138    1
   115   113   112    2
   116   112   118   am
   117    43    42    1
   118    43    45   ar
   119    39    42    1
   120    39    38    1
   121   103   106    1
   122   103   102    1
   123   138   137    1
   124   133   134    1
   125   137   134    1
   126   118   119    1
   127   134   135    1
   128   124   123   ar
   129   135   136    2
   130   119   120    1
   131   119   122    1
   132   123   125   ar
   133   123   122    1
   134   120   121    2
