@<TRIPOS>MOLECULE
tmp/6anvA05.pdb
 86 79 0 0 0
SMALL
GASTEIGER

@<TRIPOS>ATOM
      1  N        -77.7800  -81.9130   40.9230 N.3     2  MET2       -0.1245
      2  CA       -77.6620  -81.5610   39.5130 C.3     2  MET2        0.1570
      3  C        -77.2960  -82.8480   38.7720 C.2     2  MET2        0.2261
      4  O        -76.1450  -83.2850   38.8150 O.2     2  MET2       -0.2867
      5  CB       -76.6000  -80.4790   39.3600 C.3     2  MET2        0.0387
      6  CG       -76.6330  -79.7140   38.1140 C.3     2  MET2        0.0595
      7  SD       -77.8650  -78.4130   38.1350 S.3     2  MET2       -0.1393
      8  CE       -77.3710  -77.6730   36.5840 C.3     2  MET2        0.0692
      9  N        -82.9310  -77.9440   35.3950 N.3    28  LYS28      -0.1245
     10  CA       -82.0990  -76.8170   35.0080 C.3    28  LYS28       0.1561
     11  C        -81.5190  -77.0910   33.6260 C.2    28  LYS28       0.2260
     12  O        -81.1060  -78.2120   33.3300 O.2    28  LYS28      -0.2867
     13  CB       -80.9720  -76.5550   36.0150 C.3    28  LYS28       0.0271
     14  CG       -80.3800  -75.1650   35.8380 C.3    28  LYS28       0.0035
     15  CD       -79.1710  -74.8730   36.7270 C.3    28  LYS28       0.0206
     16  CE       -79.5350  -74.7630   38.1850 C.3    28  LYS28       0.1093
     17  NZ       -78.6190  -73.8190   38.9030 N.3    28  LYS28      -0.1314
     18  N        -78.5890  -75.6150   30.9290 N.3    30  ARG30      -0.1245
     19  CA       -77.4180  -74.7450   30.9110 C.3    30  ARG30       0.1563
     20  C        -76.8140  -74.6920   29.5180 C.2    30  ARG30       0.2260
     21  O        -76.7250  -75.7070   28.8250 O.2    30  ARG30      -0.2867
     22  CB       -76.3520  -75.2010   31.8970 C.3    30  ARG30       0.0307
     23  CG       -76.8230  -75.2640   33.3250 C.3    30  ARG30       0.0489
     24  CD       -75.6730  -75.0000   34.3010 C.3    30  ARG30       0.2205
     25  NE       -74.5580  -75.9300   34.1350 N.pl3  30  ARG30      -0.0865
     26  CZ       -73.5420  -76.0240   34.9920 C.cat  30  ARG30       0.5346
     27  NH1      -73.5290  -75.2520   36.0760 N.pl3  30  ARG30       0.1354
     28  NH2      -72.5500  -76.8940   34.7770 N.pl3  30  ARG30       0.1354
     29  N        -78.6020  -66.5290   46.2880 N.3    93  ASN93      -0.1225
     30  CA       -77.6490  -66.8170   45.2300 C.3    93  ASN93       0.1785
     31  C        -77.9090  -68.1710   44.5690 C.2    93  ASN93       0.2598
     32  O        -78.3480  -69.1310   45.2090 O.2    93  ASN93      -0.2718
     33  CB       -76.2320  -66.7870   45.7710 C.3    93  ASN93       0.1169
     34  CG       -75.2240  -66.6060   44.6760 C.2    93  ASN93       0.2627
     35  OD1      -75.4420  -65.8190   43.7530 O.2    93  ASN93      -0.2716
     36  ND2      -74.1270  -67.3380   44.7520 N.am   93  ASN93      -0.0877
     37  N        -77.5750  -68.2460   43.2760 N.am   94  GLY94      -0.1942
     38  CA       -77.8540  -69.3880   42.4100 C.3    94  GLY94       0.2014
     39  C        -77.1620  -70.6860   42.7860 C.2    94  GLY94       0.2638
     40  O        -77.5240  -71.7330   42.2360 O.2    94  GLY94      -0.2714
     41  N        -76.1910  -70.6600   43.6960 N.am   95  ASP95      -0.1971
     42  CA       -75.5310  -71.8850   44.1410 C.3    95  ASP95       0.1709
     43  C        -76.1370  -72.4640   45.4160 C.2    95  ASP95       0.2293
     44  O        -75.7090  -73.5350   45.8570 O.2    95  ASP95      -0.2864
     45  CB       -74.0310  -71.6380   44.3530 C.3    95  ASP95       0.1436
     46  CG       -73.7510  -70.4390   45.2620 C.2    95  ASP95       0.3671
     47  OD1      -74.7130  -69.8230   45.7920 O.co2  95  ASP95      -0.2456
     48  OD2      -72.5600  -70.0980   45.4240 O.co2  95  ASP95      -0.2456
     49  N        -65.8760  -71.5480   38.0370 N.3   291  TYR291     -0.1241
     50  CA       -66.5910  -72.4710   38.9110 C.3   291  TYR291      0.1605
     51  C        -67.0740  -73.6940   38.1440 C.2   291  TYR291      0.2264
     52  O        -66.8370  -74.8360   38.5610 O.2   291  TYR291     -0.2867
     53  CB       -67.7700  -71.7650   39.5900 C.3   291  TYR291      0.0534
     54  CG       -68.3900  -72.5930   40.6950 C.ar  291  TYR291     -0.0201
     55  CD1      -69.3710  -73.5500   40.4230 C.ar  291  TYR291     -0.0009
     56  CD2      -67.9850  -72.4300   42.0050 C.ar  291  TYR291     -0.0009
     57  CE1      -69.9340  -74.2990   41.4420 C.ar  291  TYR291      0.0417
     58  CE2      -68.5380  -73.1690   43.0310 C.ar  291  TYR291      0.0417
     59  CZ       -69.5050  -74.0980   42.7510 C.ar  291  TYR291      0.1957
     60  OH       -70.0260  -74.8230   43.7920 O.3   291  TYR291     -0.2866
     61  N        -65.9490  -77.6460   38.6200 N.3   295  GLU295     -0.1245
     62  CA       -66.9520  -78.5960   39.0810 C.3   295  GLU295      0.1567
     63  C        -67.0820  -79.7570   38.1000 C.2   295  GLU295      0.2260
     64  O        -66.9700  -80.9250   38.4910 O.2   295  GLU295     -0.2867
     65  CB       -68.2970  -77.8950   39.2850 C.3   295  GLU295      0.0388
     66  CG       -69.4390  -78.8440   39.6860 C.3   295  GLU295      0.1160
     67  CD       -70.7290  -78.0980   40.0690 C.2   295  GLU295      0.3649
     68  OE1      -71.2100  -78.2600   41.2190 O.co2 295  GLU295     -0.2457
     69  OE2      -71.2540  -77.3400   39.2240 O.co2 295  GLU295     -0.2457
     70  N        -73.9810  -82.3710   44.3880 N.3   315  ASN315     -0.1240
     71  CA       -73.6360  -82.6010   42.9860 C.3   315  ASN315      0.1653
     72  C        -72.5950  -83.6890   42.8690 C.2   315  ASN315      0.2266
     73  O        -72.6160  -84.4820   41.9230 O.2   315  ASN315     -0.2867
     74  CB       -73.1100  -81.3300   42.3350 C.3   315  ASN315      0.1155
     75  CG       -74.2090  -80.3810   41.9700 C.2   315  ASN315      0.2627
     76  OD1      -75.3940  -80.7140   42.0840 O.2   315  ASN315     -0.2716
     77  ND2      -73.8330  -79.1920   41.5160 N.am  315  ASN315     -0.0877
     78  N        -79.3960  -77.9880   48.2340 N.3   378  LYS378     -0.1245
     79  CA       -77.9450  -77.8250   48.2240 C.3   378  LYS378      0.1561
     80  C        -77.5600  -77.7840   49.6990 C.2   378  LYS378      0.2260
     81  O        -78.1940  -77.0490   50.4770 O.2   378  LYS378     -0.2867
     82  CB       -77.4570  -76.5550   47.5090 C.3   378  LYS378      0.0271
     83  CG       -77.7220  -76.5150   46.0190 C.3   378  LYS378      0.0035
     84  CD       -77.1330  -77.7260   45.3030 C.3   378  LYS378      0.0206
     85  CE       -77.4510  -77.6780   43.8130 C.3   378  LYS378      0.1093
     86  NZ       -76.7080  -76.5350   43.1610 N.3   378  LYS378     -0.1314
@<TRIPOS>BOND
     1    21    20    2
     2    20    19    1
     3    19    18    1
     4    19    22    1
     5    22    23    1
     6    23    24    1
     7    12    11    2
     8    11    10    1
     9    25    24    1
    10    25    26    2
    11    28    26    1
    12    26    27    1
    13    10     9    1
    14    10    13    1
    15    14    13    1
    16    14    15    1
    17     8     7    1
    18    15    16    1
    19    49    50    1
    20    63    64    2
    21    63    62    1
    22     6     7    1
    23     6     5    1
    24    51    52    2
    25    51    50    1
    26    16    17    1
    27    61    62    1
    28     3     4    2
    29     3     2    1
    30    50    53    1
    31    62    65    1
    32    69    67   ar
    33    65    66    1
    34     5     2    1
    35     2     1    1
    36    53    54    1
    37    66    67    1
    38    67    68   ar
    39    55    54   ar
    40    55    57   ar
    41    54    56   ar
    42    57    59   ar
    43    77    75   am
    44    73    72    2
    45    75    76    2
    46    75    74    1
    47    56    58   ar
    48    40    39    2
    49    74    71    1
    50    38    39    1
    51    38    37    1
    52    59    58   ar
    53    59    60    1
    54    39    41   am
    55    72    71    1
    56    71    70    1
    57    86    85    1
    58    37    31   am
    59    41    42    1
    60    35    34    2
    61    85    84    1
    62    42    45    1
    63    42    43    1
    64    45    46    1
    65    31    32    2
    66    31    30    1
    67    34    36   am
    68    34    33    1
    69    30    33    1
    70    30    29    1
    71    46    48   ar
    72    46    47   ar
    73    84    83    1
    74    43    44    2
    75    83    82    1
    76    82    79    1
    77    79    78    1
    78    79    80    1
    79    80    81    2
