@<TRIPOS>MOLECULE
tmp/6anvB02.pdb
 108 102 0 0 0
SMALL
GASTEIGER

@<TRIPOS>ATOM
      1  N        -84.7810  -37.1270    8.3300 N.3    26  LYS26      -0.1245
      2  CA       -85.1390  -37.9890    9.4430 C.3    26  LYS26       0.1561
      3  C        -84.2720  -37.6330   10.6490 C.2    26  LYS26       0.2260
      4  O        -83.5710  -36.6110   10.6650 O.2    26  LYS26      -0.2867
      5  CB       -85.0020  -39.4670    9.0480 C.3    26  LYS26       0.0271
      6  CG       -85.9730  -39.9230    7.9510 C.3    26  LYS26       0.0035
      7  CD       -87.4250  -39.7120    8.3460 C.3    26  LYS26       0.0206
      8  CE       -88.3830  -39.9220    7.1610 C.3    26  LYS26       0.1093
      9  NZ       -88.3940  -38.7420    6.2340 N.3    26  LYS26      -0.1314
     10  N        -82.5780  -45.0580   13.7250 N.3    44  ASP44      -0.1239
     11  CA       -83.2710  -44.0270   12.9820 C.3    44  ASP44       0.1674
     12  C        -84.6240  -43.7750   13.6090 C.2    44  ASP44       0.2266
     13  O        -85.2430  -44.6810   14.1600 O.2    44  ASP44      -0.2867
     14  CB       -83.4540  -44.4520   11.5210 C.3    44  ASP44       0.1410
     15  CG       -82.1350  -44.7250   10.8390 C.2    44  ASP44       0.3668
     16  OD1      -81.3510  -43.7670   10.6620 O.co2  44  ASP44      -0.2456
     17  OD2      -81.8710  -45.8990   10.5190 O.co2  44  ASP44      -0.2456
     18  N        -78.7430  -54.4260   15.4270 N.3    77  GLU77      -0.1245
     19  CA       -79.8890  -54.0900   14.5880 C.3    77  GLU77       0.1567
     20  C        -80.1590  -55.2680   13.6600 C.2    77  GLU77       0.2260
     21  O        -79.3500  -55.5750   12.7780 O.2    77  GLU77      -0.2867
     22  CB       -79.6470  -52.8050   13.8050 C.3    77  GLU77       0.0388
     23  CG       -80.8910  -52.3520   13.0590 C.3    77  GLU77       0.1160
     24  CD       -80.9470  -50.8520   12.8190 C.2    77  GLU77       0.3649
     25  OE1      -79.9060  -50.1640   12.9820 O.co2  77  GLU77      -0.2457
     26  OE2      -82.0520  -50.3720   12.4800 O.co2  77  GLU77      -0.2457
     27  N        -85.9820  -56.6210   10.2750 N.3    80  LEU80      -0.1245
     28  CA       -87.3370  -56.6180   10.8000 C.3    80  LEU80       0.1561
     29  C        -88.3500  -57.0620    9.7560 C.2    80  LEU80       0.2260
     30  O        -89.1450  -57.9710   10.0110 O.2    80  LEU80      -0.2867
     31  CB       -87.6820  -55.2230   11.3430 C.3    80  LEU80       0.0270
     32  CG       -86.6270  -54.6300   12.2860 C.3    80  LEU80       0.0019
     33  CD1      -87.0560  -53.2630   12.8290 C.3    80  LEU80       0.0001
     34  CD2      -86.2950  -55.5770   13.4390 C.3    80  LEU80       0.0001
     35  N        -79.5770  -44.4530    2.7490 N.3    98  TYR98      -0.1227
     36  CA       -80.7240  -45.3530    2.7460 C.3    98  TYR98       0.1736
     37  C        -82.0430  -44.6000    2.8810 C.2    98  TYR98       0.2595
     38  O        -83.0860  -45.1140    2.4710 O.2    98  TYR98      -0.2718
     39  CB       -80.5900  -46.3720    3.8690 C.3    98  TYR98       0.0548
     40  CG       -80.3000  -45.7730    5.2370 C.ar   98  TYR98      -0.0200
     41  CD1      -81.3240  -45.2440    6.0270 C.ar   98  TYR98      -0.0009
     42  CD2      -78.9990  -45.7590    5.7460 C.ar   98  TYR98      -0.0009
     43  CE1      -81.0500  -44.6990    7.2940 C.ar   98  TYR98       0.0417
     44  CE2      -78.7150  -45.2220    7.0010 C.ar   98  TYR98       0.0417
     45  CZ       -79.7440  -44.6970    7.7710 C.ar   98  TYR98       0.1957
     46  OH       -79.4570  -44.1780    9.0270 O.3    98  TYR98      -0.2866
     47  N        -82.0330  -43.4060    3.4730 N.am   99  ASN99      -0.1974
     48  CA       -83.2620  -42.6080    3.5110 C.3    99  ASN99       0.1688
     49  C        -83.5920  -42.0460    2.1320 C.2    99  ASN99       0.2292
     50  O        -84.7660  -41.9660    1.7490 O.2    99  ASN99      -0.2864
     51  CB       -83.1390  -41.4720    4.5310 C.3    99  ASN99       0.1181
     52  CG       -83.2790  -41.9570    5.9720 C.2    99  ASN99       0.2629
     53  OD1      -84.0370  -42.8830    6.2630 O.2    99  ASN99      -0.2716
     54  ND2      -82.5350  -41.3320    6.8740 N.am   99  ASN99      -0.0877
     55  N        -85.0360  -44.9730    0.2840 N.3   102  ALA102     -0.1245
     56  CA       -86.4390  -45.1520    0.6540 C.3   102  ALA102      0.1562
     57  C        -87.3370  -44.1790   -0.1030 C.2   102  ALA102      0.2260
     58  O        -88.4890  -44.5080   -0.4170 O.2   102  ALA102     -0.2867
     59  CB       -86.6090  -44.9800    2.1700 C.3   102  ALA102      0.0290
     60  N        -90.5520  -44.7600   -2.3040 N.3   106  LYS106     -0.1245
     61  CA       -91.8680  -44.1250   -2.2990 C.3   106  LYS106      0.1561
     62  C        -92.2960  -43.7260   -3.7080 C.2   106  LYS106      0.2260
     63  O        -93.4870  -43.7770   -4.0290 O.2   106  LYS106     -0.2867
     64  CB       -91.8740  -42.9370   -1.3260 C.3   106  LYS106      0.0271
     65  CG       -91.6200  -43.4050    0.1230 C.3   106  LYS106      0.0035
     66  CD       -91.9630  -42.3900    1.1850 C.3   106  LYS106      0.0206
     67  CE       -91.1150  -42.6250    2.4330 C.3   106  LYS106      0.1093
     68  NZ       -91.5760  -41.8520    3.6160 N.3   106  LYS106     -0.1314
     69  N        -91.9470  -50.3860   -0.5320 N.3   116  VAL116     -0.1231
     70  CA       -90.5190  -50.6560   -0.5380 C.3   116  VAL116      0.1692
     71  C        -89.9890  -50.3270    0.8510 C.2   116  VAL116      0.2593
     72  O        -89.9370  -49.1510    1.2360 O.2   116  VAL116     -0.2718
     73  CB       -89.7800  -49.8320   -1.6030 C.3   116  VAL116      0.0266
     74  CG1      -88.2820  -50.1780   -1.6110 C.3   116  VAL116      0.0020
     75  CG2      -90.4100  -50.0330   -2.9800 C.3   116  VAL116      0.0020
     76  N        -89.5670  -51.3510    1.5910 N.am  117  THR117     -0.1939
     77  CA       -88.9100  -51.1540    2.8750 C.3   117  THR117      0.2028
     78  C        -87.3940  -51.2150    2.7000 C.2   117  THR117      0.2642
     79  O        -86.8670  -52.0580    1.9680 O.2   117  THR117     -0.2714
     80  CB       -89.3730  -52.1940    3.8960 C.3   117  THR117      0.1808
     81  OG1      -88.9110  -53.4940    3.5110 O.3   117  THR117     -0.2208
     82  CG2      -90.8980  -52.2220    3.9720 C.3   117  THR117      0.0379
     83  N        -86.7030  -50.2940    3.3590 N.am  118  VAL118     -0.1963
     84  CA       -85.2500  -50.1970    3.3230 C.3   118  VAL118      0.1727
     85  C        -84.7590  -50.3490    4.7600 C.2   118  VAL118      0.2616
     86  O        -85.2510  -49.6620    5.6630 O.2   118  VAL118     -0.2715
     87  CB       -84.7810  -48.8560    2.7120 C.3   118  VAL118      0.0290
     88  CG1      -83.2570  -48.7230    2.7800 C.3   118  VAL118      0.0023
     89  CG2      -85.2560  -48.7080    1.2500 C.3   118  VAL118      0.0023
     90  N        -83.8280  -51.2720    4.9760 N.am  119  GLU119     -0.1963
     91  CA       -83.2110  -51.4650    6.2790 C.3   119  GLU119      0.1733
     92  C        -81.7110  -51.5590    6.0920 C.2   119  GLU119      0.2616
     93  O        -81.2170  -51.8470    5.0040 O.2   119  GLU119     -0.2715
     94  CB       -83.7140  -52.7290    6.9920 C.3   119  GLU119      0.0429
     95  CG       -85.1860  -52.7050    7.2840 C.3   119  GLU119      0.1163
     96  CD       -85.7250  -54.0350    7.7750 C.2   119  GLU119      0.3649
     97  OE1      -85.0500  -54.7470    8.5420 O.co2 119  GLU119     -0.2457
     98  OE2      -86.8460  -54.3680    7.3970 O.co2 119  GLU119     -0.2457
     99  N        -80.9830  -51.3380    7.1760 N.am  120  HIS120     -0.1973
    100  CA       -79.5350  -51.5160    7.1900 C.3   120  HIS120      0.1656
    101  C        -79.1830  -52.4460    8.3420 C.2   120  HIS120      0.2291
    102  O        -78.5880  -52.0170    9.3300 O.2   120  HIS120     -0.2864
    103  CB       -78.8080  -50.1690    7.3050 C.3   120  HIS120      0.0771
    104  CG       -79.3500  -49.2590    8.3680 C.ar  120  HIS120      0.0820
    105  ND1      -79.0930  -49.4420    9.7120 N.ar  120  HIS120     -0.2267
    106  CD2      -80.1120  -48.1400    8.2830 C.ar  120  HIS120      0.1154
    107  CE1      -79.6820  -48.4820   10.4070 C.ar  120  HIS120      0.1986
    108  NE2      -80.3030  -47.6770    9.5650 N.ar  120  HIS120     -0.2212
@<TRIPOS>BOND
     1    63    62    2
     2    62    61    1
     3    75    73    1
     4    60    61    1
     5    61    64    1
     6    74    73    1
     7    73    70    1
     8    64    65    1
     9    70    69    1
    10    70    71    1
    11    58    57    2
    12    57    56    1
    13    65    66    1
    14    55    56    1
    15    56    59    1
    16    71    72    2
    17    71    76   am
    18    66    67    1
    19    89    87    1
    20    76    77    1
    21    50    49    2
    22    79    78    2
    23    49    48    1
    24    67    68    1
    25    38    37    2
    26    78    77    1
    27    78    83   am
    28    87    88    1
    29    87    84    1
    30    36    35    1
    31    36    37    1
    32    36    39    1
    33    77    80    1
    34    37    47   am
    35    84    83    1
    36    84    85    1
    37    47    48    1
    38    81    80    1
    39    48    51    1
    40    39    40    1
    41    80    82    1
    42    51    52    1
    43    85    90   am
    44    85    86    2
    45    90    91    1
    46    93    92    2
    47    40    42   ar
    48    40    41   ar
    49    42    44   ar
    50    52    53    2
    51    52    54   am
    52    41    43   ar
    53    92    91    1
    54    92    99   am
    55     9     8    1
    56    91    94    1
    57    94    95    1
    58    44    45   ar
    59     8     7    1
    60    99   100    1
    61   100   103    1
    62   100   101    1
    63    95    96    1
    64    43    45   ar
    65   103   104    1
    66    98    96   ar
    67    45    46    1
    68    96    97   ar
    69     6     7    1
    70     6     5    1
    71   106   104   ar
    72   106   108   ar
    73     1     2    1
    74   101   102    2
    75   104   105   ar
    76     5     2    1
    77     2     3    1
    78   108   107   ar
    79   105   107   ar
    80    29    30    2
    81    29    28    1
    82    27    28    1
    83    17    15   ar
    84     3     4    2
    85    16    15   ar
    86    28    31    1
    87    15    14    1
    88    31    32    1
    89    14    11    1
    90    32    33    1
    91    32    34    1
    92    26    24   ar
    93    21    20    2
    94    24    25   ar
    95    24    23    1
    96    11    12    1
    97    11    10    1
    98    23    22    1
    99    12    13    2
   100    20    19    1
   101    22    19    1
   102    19    18    1
