@<TRIPOS>MOLECULE
tmp/6anvB03.pdb
 89 84 0 0 0
SMALL
GASTEIGER

@<TRIPOS>ATOM
      1  N        -75.6580  -35.4810    8.6210 N.3     2  MET2       -0.1245
      2  CA       -75.6840  -35.7580   10.0510 C.3     2  MET2        0.1570
      3  C        -75.4690  -34.4260   10.7590 C.2     2  MET2        0.2261
      4  O        -74.3620  -33.8820   10.7370 O.2     2  MET2       -0.2867
      5  CB       -74.6000  -36.7660   10.4040 C.3     2  MET2        0.0387
      6  CG       -74.9130  -37.6320   11.5500 C.3     2  MET2        0.0595
      7  SD       -76.1290  -38.9170   11.2400 S.3     2  MET2       -0.1393
      8  CE       -75.7690  -39.8550   12.7240 C.3     2  MET2        0.0692
      9  N        -81.5880  -39.3880   13.6910 N.3    28  LYS28      -0.1245
     10  CA       -80.8110  -40.5430   14.1090 C.3    28  LYS28       0.1561
     11  C        -80.2880  -40.3030   15.5180 C.2    28  LYS28       0.2260
     12  O        -79.7730  -39.2210   15.8130 O.2    28  LYS28      -0.2867
     13  CB       -79.6610  -40.8180   13.1480 C.3    28  LYS28       0.0271
     14  CG       -79.2600  -42.2540   13.1730 C.3    28  LYS28       0.0035
     15  CD       -77.8550  -42.4320   12.7120 C.3    28  LYS28       0.0206
     16  CE       -77.7810  -42.6190   11.2320 C.3    28  LYS28       0.1093
     17  NZ       -77.3570  -44.0120   10.9170 N.3    28  LYS28      -0.1314
     18  N        -77.7210  -41.7560   18.5400 N.3    30  ARG30      -0.1245
     19  CA       -76.5320  -42.5790   18.7060 C.3    30  ARG30       0.1563
     20  C        -76.1200  -42.6080   20.1660 C.2    30  ARG30       0.2260
     21  O        -76.1430  -41.5790   20.8490 O.2    30  ARG30      -0.2867
     22  CB       -75.3720  -42.0520   17.8560 C.3    30  ARG30       0.0307
     23  CG       -75.6650  -42.0260   16.3720 C.3    30  ARG30       0.0489
     24  CD       -74.4100  -42.2980   15.5570 C.3    30  ARG30       0.2205
     25  NE       -73.3420  -41.3520   15.8560 N.pl3  30  ARG30      -0.0865
     26  CZ       -72.2170  -41.2560   15.1520 C.cat  30  ARG30       0.5346
     27  NH1      -72.0210  -42.0450   14.1030 N.pl3  30  ARG30       0.1354
     28  NH2      -71.2890  -40.3700   15.4960 N.pl3  30  ARG30       0.1354
     29  N        -66.8900  -41.7310   20.1790 N.3    38  LYS38      -0.1231
     30  CA       -67.0600  -43.0840   19.6690 C.3    38  LYS38       0.1693
     31  C        -68.5220  -43.4860   19.7390 C.2    38  LYS38       0.2593
     32  O        -69.1560  -43.3540   20.7890 O.2    38  LYS38      -0.2718
     33  CB       -66.2240  -44.0900   20.4540 C.3    38  LYS38       0.0285
     34  CG       -66.3550  -45.5130   19.8930 C.3    38  LYS38       0.0035
     35  CD       -65.3910  -46.4860   20.5420 C.3    38  LYS38       0.0206
     36  CE       -65.5580  -47.8790   19.9680 C.3    38  LYS38       0.1093
     37  NZ       -64.3030  -48.3980   19.3320 N.3    38  LYS38      -0.1314
     38  N        -69.0490  -44.0080   18.6310 N.am   39  SER39      -0.1938
     39  CA       -70.4190  -44.4980   18.6030 C.3    39  SER39       0.2055
     40  C        -70.4540  -45.9920   18.8850 C.2    39  SER39       0.2643
     41  O        -69.6770  -46.7550   18.3090 O.2    39  SER39      -0.2714
     42  CB       -71.0830  -44.2330   17.2590 C.3    39  SER39       0.2130
     43  OG       -72.4180  -44.6980   17.3200 O.3    39  SER39      -0.2179
     44  N        -71.3640  -46.4110   19.7620 N.am   40  VAL40      -0.1963
     45  CA       -71.5620  -47.8250   20.0350 C.3    40  VAL40       0.1727
     46  C        -72.9500  -48.2890   19.6150 C.2    40  VAL40       0.2617
     47  O        -73.3640  -49.3970   19.9590 O.2    40  VAL40      -0.2715
     48  CB       -71.2910  -48.1540   21.5180 C.3    40  VAL40       0.0290
     49  CG1      -69.9330  -47.6060   21.9350 C.3    40  VAL40       0.0023
     50  CG2      -72.3800  -47.5980   22.4000 C.3    40  VAL40       0.0023
     51  N        -73.6800  -47.4590   18.8750 N.am   41  GLY41      -0.1940
     52  CA       -74.9910  -47.8470   18.4080 C.3    41  GLY41       0.2014
     53  C        -75.7640  -46.6650   17.8720 C.2    41  GLY41       0.2638
     54  O        -75.5190  -45.5240   18.2720 O.2    41  GLY41      -0.2714
     55  N        -76.6920  -46.9320   16.9570 N.am   42  ALA42      -0.1977
     56  CA       -77.5190  -45.8900   16.3740 C.3    42  ALA42       0.1597
     57  C        -78.8640  -46.4860   15.9840 C.2    42  ALA42       0.2287
     58  O        -78.9780  -47.6880   15.7330 O.2    42  ALA42      -0.2864
     59  CB       -76.8400  -45.2540   15.1600 C.3    42  ALA42       0.0319
     60  N        -75.4540  -49.2160    6.4770 N.3    94  GLY94      -0.1225
     61  CA       -75.8270  -48.0630    7.2820 C.3    94  GLY94       0.1811
     62  C        -75.0560  -46.7910    6.9860 C.2    94  GLY94       0.2280
     63  O        -75.5040  -45.7130    7.3910 O.2    94  GLY94      -0.2866
     64  N        -61.6120  -45.8900   15.5600 N.3   290  ASP290     -0.1225
     65  CA       -62.5350  -46.5090   14.6280 C.3   290  ASP290      0.1805
     66  C        -63.1490  -45.4270   13.7450 C.2   290  ASP290      0.2598
     67  O        -62.6940  -44.2760   13.7300 O.2   290  ASP290     -0.2718
     68  CB       -63.5940  -47.3240   15.3780 C.3   290  ASP290      0.1424
     69  CG       -64.5330  -46.4610   16.2010 C.2   290  ASP290      0.3668
     70  OD1      -64.2930  -45.2380   16.3300 O.co2 290  ASP290     -0.2456
     71  OD2      -65.5200  -47.0180   16.7230 O.co2 290  ASP290     -0.2456
     72  N        -64.2000  -45.7990   13.0100 N.am  291  TYR291     -0.1962
     73  CA       -64.7810  -44.8830   12.0390 C.3   291  TYR291      0.1771
     74  C        -65.3420  -43.6380   12.7320 C.2   291  TYR291      0.2620
     75  O        -65.0560  -42.5010   12.3270 O.2   291  TYR291     -0.2715
     76  CB       -65.8580  -45.6220   11.2220 C.3   291  TYR291      0.0574
     77  CG       -66.4040  -44.8210   10.0570 C.ar  291  TYR291     -0.0198
     78  CD1      -67.4050  -43.8690   10.2460 C.ar  291  TYR291     -0.0009
     79  CD2      -65.9110  -45.0030    8.7770 C.ar  291  TYR291     -0.0009
     80  CE1      -67.8970  -43.1320    9.1850 C.ar  291  TYR291      0.0417
     81  CE2      -66.3910  -44.2650    7.7070 C.ar  291  TYR291      0.0417
     82  CZ       -67.3830  -43.3310    7.9170 C.ar  291  TYR291      0.1957
     83  OH       -67.8630  -42.6050    6.8570 O.3   291  TYR291     -0.2866
     84  N        -66.1140  -43.8310   13.8080 N.am  292  SER292     -0.1950
     85  CA       -66.8330  -42.7090   14.4120 C.3   292  SER292      0.1924
     86  C        -65.8880  -41.7440   15.1300 C.2   292  SER292      0.2314
     87  O        -66.0400  -40.5210   15.0250 O.2   292  SER292     -0.2863
     88  CB       -67.9110  -43.2400   15.3550 C.3   292  SER292      0.2116
     89  OG       -67.3550  -44.1090   16.3330 O.3   292  SER292     -0.2180
@<TRIPOS>BOND
     1    60    61    1
     2    83    82    1
     3    62    61    1
     4    62    63    2
     5    81    82   ar
     6    81    79   ar
     7    82    80   ar
     8     1     2    1
     9    79    77   ar
    10    80    78   ar
    11     2     5    1
    12     2     3    1
    13    77    78   ar
    14    77    76    1
    15     5     6    1
    16     4     3    2
    17    17    16    1
    18    76    73    1
    19    16    15    1
    20     7     6    1
    21     7     8    1
    22    73    74    1
    23    73    72    1
    24    75    74    2
    25    15    14    1
    26    74    84   am
    27    72    66   am
    28    13    14    1
    29    13    10    1
    30     9    10    1
    31    67    66    2
    32    66    65    1
    33    84    85    1
    34    27    26    1
    35    10    11    1
    36    85    86    1
    37    85    88    1
    38    65    68    1
    39    65    64    1
    40    87    86    2
    41    26    28    1
    42    26    25    2
    43    59    56    1
    44    88    89    1
    45    68    69    1
    46    11    12    2
    47    24    25    1
    48    24    23    1
    49    58    57    2
    50    57    56    1
    51    69    70   ar
    52    69    71   ar
    53    23    22    1
    54    56    55    1
    55    55    53   am
    56    42    43    1
    57    42    39    1
    58    22    19    1
    59    53    54    2
    60    53    52    1
    61    41    40    2
    62    52    51    1
    63    18    19    1
    64    39    38    1
    65    39    40    1
    66    38    31   am
    67    19    20    1
    68    51    46   am
    69    40    44   am
    70    37    36    1
    71    46    47    2
    72    46    45    1
    73    30    31    1
    74    30    29    1
    75    30    33    1
    76    31    32    2
    77    44    45    1
    78    34    33    1
    79    34    35    1
    80    36    35    1
    81    45    48    1
    82    20    21    2
    83    48    49    1
    84    48    50    1
