@<TRIPOS>MOLECULE
tmp/6anvB00.pdb
 223 217 0 0 0
SMALL
GASTEIGER

@<TRIPOS>ATOM
      1  N        -76.1610  -50.8910    3.3670 N.3    93  ASN93      -0.1240
      2  CA       -75.3310  -50.6510    4.5290 C.3    93  ASN93       0.1653
      3  C        -75.6210  -49.2870    5.1480 C.2    93  ASN93       0.2266
      4  O        -75.9690  -48.3240    4.4540 O.2    93  ASN93      -0.2867
      5  CB       -73.8680  -50.7580    4.1500 C.3    93  ASN93       0.1155
      6  CG       -72.9970  -50.8830    5.3510 C.2    93  ASN93       0.2627
      7  OD1      -73.2800  -51.6790    6.2500 O.2    93  ASN93      -0.2716
      8  ND2      -71.9460  -50.0810    5.4040 N.am   93  ASN93      -0.0877
      9  N        -73.9360  -46.8730    6.2820 N.3    95  ASP95      -0.1225
     10  CA       -73.2270  -45.6590    5.9050 C.3    95  ASP95       0.1805
     11  C        -73.6810  -45.0940    4.5570 C.2    95  ASP95       0.2597
     12  O        -73.1650  -44.0580    4.1370 O.2    95  ASP95      -0.2718
     13  CB       -71.7120  -45.9150    5.8890 C.3    95  ASP95       0.1424
     14  CG       -71.3020  -47.0370    4.9340 C.2    95  ASP95       0.3668
     15  OD1      -72.1700  -47.5860    4.2220 O.co2  95  ASP95      -0.2456
     16  OD2      -70.0950  -47.3810    4.9020 O.co2  95  ASP95      -0.2456
     17  N        -74.6370  -45.7300    3.8800 N.am   96  LYS96      -0.1979
     18  CA       -75.1050  -45.2730    2.5760 C.3    96  LYS96       0.1596
     19  C        -76.3780  -44.4420    2.7390 C.2    96  LYS96       0.2287
     20  O        -76.9350  -44.3320    3.8300 O.2    96  LYS96      -0.2864
     21  CB       -75.3370  -46.4700    1.6430 C.3    96  LYS96       0.0298
     22  CG       -74.1200  -47.3810    1.4980 C.3    96  LYS96       0.0038
     23  CD       -72.9450  -46.5990    0.9540 C.3    96  LYS96       0.0206
     24  CE       -71.7870  -47.4950    0.5310 C.3    96  LYS96       0.1093
     25  NZ       -71.3190  -48.3560    1.6200 N.3    96  LYS96      -0.1314
     26  N        -74.1860  -56.3130    9.9320 N.3   123  LYS123     -0.1245
     27  CA       -73.5570  -57.4640    9.2710 C.3   123  LYS123      0.1561
     28  C        -74.4620  -58.0650    8.1900 C.2   123  LYS123      0.2260
     29  O        -74.4870  -59.2800    7.9710 O.2   123  LYS123     -0.2867
     30  CB       -73.1680  -58.5130   10.3080 C.3   123  LYS123      0.0271
     31  CG       -72.2720  -57.9480   11.4120 C.3   123  LYS123      0.0035
     32  CD       -72.4030  -58.7620   12.7030 C.3   123  LYS123      0.0206
     33  CE       -71.2390  -58.5200   13.6570 C.3   123  LYS123      0.1093
     34  NZ       -70.0820  -59.3950   13.3090 N.3   123  LYS123     -0.1314
     35  N        -74.1940  -58.2240    5.1360 N.3   125  GLU125     -0.1231
     36  CA       -73.4710  -59.0050    4.1490 C.3   125  GLU125      0.1699
     37  C        -73.0540  -60.3710    4.6840 C.2   125  GLU125      0.2592
     38  O        -72.6810  -61.2400    3.8870 O.2   125  GLU125     -0.2718
     39  CB       -72.2410  -58.2350    3.6650 C.3   125  GLU125      0.0402
     40  CG       -71.0050  -58.3990    4.5400 C.3   125  GLU125      0.1161
     41  CD       -71.1490  -57.7290    5.9080 C.2   125  GLU125      0.3649
     42  OE1      -70.2910  -57.9780    6.7810 O.co2 125  GLU125     -0.2457
     43  OE2      -72.1100  -56.9540    6.1100 O.co2 125  GLU125     -0.2457
     44  N        -73.0860  -60.5750    6.0060 N.am  126  GLU126     -0.1979
     45  CA       -72.9260  -61.9170    6.5680 C.3   126  GLU126      0.1602
     46  C        -74.2590  -62.6030    6.7790 C.2   126  GLU126      0.2287
     47  O        -74.3570  -63.8220    6.6250 O.2   126  GLU126     -0.2864
     48  CB       -72.1900  -61.8620    7.9100 C.3   126  GLU126      0.0415
     49  CG       -70.7230  -61.5020    7.8190 C.3   126  GLU126      0.1163
     50  CD       -70.0650  -61.4230    9.1930 C.2   126  GLU126      0.3649
     51  OE1      -68.8380  -61.5990    9.2750 O.co2 126  GLU126     -0.2457
     52  OE2      -70.7720  -61.1900   10.1890 O.co2 126  GLU126     -0.2457
     53  N        -74.3600  -54.0670   -1.6710 N.3   143  TRP143     -0.1227
     54  CA       -73.0290  -54.1050   -1.0850 C.3   143  TRP143      0.1737
     55  C        -72.0480  -53.8050   -2.2050 C.2   143  TRP143      0.2595
     56  O        -72.3980  -53.8670   -3.3840 O.2   143  TRP143     -0.2718
     57  CB       -72.7490  -55.4670   -0.4440 C.3   143  TRP143      0.0564
     58  CG       -71.6580  -55.4670    0.5680 C.ar  143  TRP143      0.0003
     59  CD1      -70.3870  -55.9270    0.3970 C.ar  143  TRP143      0.0946
     60  CD2      -71.7340  -54.9910    1.9230 C.ar  143  TRP143      0.0152
     61  NE1      -69.6670  -55.7670    1.5480 N.ar  143  TRP143     -0.2442
     62  CE2      -70.4690  -55.1970    2.5040 C.ar  143  TRP143      0.0810
     63  CE3      -72.7480  -54.4120    2.6950 C.ar  143  TRP143      0.0012
     64  CZ2      -70.1880  -54.8520    3.8230 C.ar  143  TRP143      0.0191
     65  CZ3      -72.4760  -54.0850    4.0070 C.ar  143  TRP143      0.0001
     66  CH2      -71.2040  -54.3030    4.5590 C.ar  143  TRP143      0.0015
     67  N        -70.8120  -53.4980   -1.8400 N.am  144  ALA144     -0.1980
     68  CA       -69.7930  -53.4190   -2.8740 C.3   144  ALA144      0.1597
     69  C        -69.6470  -54.7830   -3.5380 C.2   144  ALA144      0.2287
     70  O        -69.9170  -55.8260   -2.9340 O.2   144  ALA144     -0.2864
     71  CB       -68.4570  -52.9510   -2.2990 C.3   144  ALA144      0.0319
     72  N        -67.4930  -56.8870   -4.2160 N.3   146  ASP146     -0.1225
     73  CA       -66.5830  -57.9660   -3.8120 C.3   146  ASP146      0.1805
     74  C        -67.3200  -59.1140   -3.1210 C.2   146  ASP146      0.2597
     75  O        -66.8720  -60.2620   -3.1830 O.2   146  ASP146     -0.2718
     76  CB       -65.4740  -57.4240   -2.8970 C.3   146  ASP146      0.1424
     77  CG       -66.0210  -56.7680   -1.6430 C.2   146  ASP146      0.3668
     78  OD1      -65.6610  -57.2020   -0.5290 O.co2 146  ASP146     -0.2456
     79  OD2      -66.8310  -55.8200   -1.7710 O.co2 146  ASP146     -0.2456
     80  N        -68.4570  -58.8430   -2.4940 N.am  147  ARG147     -0.1979
     81  CA       -69.2030  -59.8990   -1.8190 C.3   147  ARG147      0.1597
     82  C        -70.0040  -60.7920   -2.7640 C.2   147  ARG147      0.2287
     83  O        -70.4360  -61.8740   -2.3500 O.2   147  ARG147     -0.2864
     84  CB       -70.1630  -59.2810   -0.7970 C.3   147  ARG147      0.0334
     85  CG       -69.5770  -59.1820    0.6120 C.3   147  ARG147      0.0492
     86  CD       -69.4560  -60.5710    1.2260 C.3   147  ARG147      0.2205
     87  NE       -69.0740  -60.5680    2.6390 N.pl3 147  ARG147     -0.0865
     88  CZ       -69.1050  -61.6540    3.4000 C.cat 147  ARG147      0.5346
     89  NH1      -69.5030  -62.8150    2.8820 N.pl3 147  ARG147      0.1354
     90  NH2      -68.7380  -61.5940    4.6680 N.pl3 147  ARG147      0.1354
     91  N        -66.7120  -46.5960   -5.8690 N.3   192  GLU192     -0.1245
     92  CA       -66.1790  -46.0340   -4.6330 C.3   192  GLU192      0.1567
     93  C        -64.6740  -46.2510   -4.5390 C.2   192  GLU192      0.2260
     94  O        -64.1870  -47.3700   -4.7490 O.2   192  GLU192     -0.2867
     95  CB       -66.8470  -46.6610   -3.4100 C.3   192  GLU192      0.0388
     96  CG       -68.3490  -46.5490   -3.3750 C.3   192  GLU192      0.1160
     97  CD       -68.9430  -47.4960   -2.3570 C.2   192  GLU192      0.3649
     98  OE1      -68.1560  -48.1900   -1.6760 O.co2 192  GLU192     -0.2457
     99  OE2      -70.1830  -47.5450   -2.2380 O.co2 192  GLU192     -0.2457
    100  N        -60.3120  -44.8280   10.2120 N.3   231  ASN231     -0.1240
    101  CA       -60.7680  -46.0930   10.7820 C.3   231  ASN231      0.1653
    102  C        -59.6820  -47.1470   10.6360 C.2   231  ASN231      0.2266
    103  O        -59.4850  -47.7040    9.5570 O.2   231  ASN231     -0.2867
    104  CB       -62.0440  -46.5440   10.0940 C.3   231  ASN231      0.1155
    105  CG       -62.6290  -47.7690   10.7140 C.2   231  ASN231      0.2627
    106  OD1      -62.1810  -48.2370   11.7700 O.2   231  ASN231     -0.2716
    107  ND2      -63.6640  -48.3000   10.0750 N.am  231  ASN231     -0.0877
    108  N        -61.0560  -51.3920   10.1390 N.3   234  GLU234     -0.1231
    109  CA       -61.4870  -52.0960    8.9390 C.3   234  GLU234      0.1684
    110  C        -60.3700  -52.1090    7.9120 C.2   234  GLU234      0.2434
    111  O        -59.8650  -51.0420    7.5360 O.2   234  GLU234     -0.2733
    112  CB       -62.7480  -51.4460    8.3370 C.3   234  GLU234      0.0402
    113  CG       -64.0520  -51.8200    9.0670 C.3   234  GLU234      0.1161
    114  CD       -64.4150  -53.2980    8.9020 C.2   234  GLU234      0.3649
    115  OE1      -64.1850  -53.8460    7.8040 O.co2 234  GLU234     -0.2457
    116  OE2      -64.9130  -53.9190    9.8680 O.co2 234  GLU234     -0.2457
    117  N        -59.9860  -53.2820    7.4110 N.am  235  PRO235     -0.2718
    118  CA       -58.8410  -53.3480    6.4920 C.3   235  PRO235      0.1535
    119  C        -59.0550  -52.5870    5.2030 C.2   235  PRO235      0.2599
    120  O        -58.0730  -52.3050    4.5000 O.2   235  PRO235     -0.2715
    121  CB       -58.6800  -54.8530    6.2350 C.3   235  PRO235      0.0310
    122  CG       -60.0520  -55.4190    6.4680 C.3   235  PRO235      0.0237
    123  CD       -60.6670  -54.5770    7.5580 C.3   235  PRO235      0.0939
    124  N        -60.3040  -52.2500    4.8610 N.am  236  TYR236     -0.1960
    125  CA       -60.5540  -51.3940    3.7060 C.3   236  TYR236      0.1771
    126  C        -59.7110  -50.1240    3.7650 C.2   236  TYR236      0.2619
    127  O        -59.1860  -49.6660    2.7400 O.2   236  TYR236     -0.2715
    128  CB       -62.0400  -51.0510    3.6430 C.3   236  TYR236      0.0574
    129  CG       -62.4830  -50.2310    2.4390 C.ar  236  TYR236     -0.0198
    130  CD1      -62.4830  -50.7760    1.1530 C.ar  236  TYR236     -0.0009
    131  CD2      -62.9470  -48.9280    2.5930 C.ar  236  TYR236     -0.0009
    132  CE1      -62.9140  -50.0380    0.0530 C.ar  236  TYR236      0.0417
    133  CE2      -63.3720  -48.1810    1.4950 C.ar  236  TYR236      0.0417
    134  CZ       -63.3680  -48.7440    0.2380 C.ar  236  TYR236      0.1957
    135  OH       -63.8000  -48.0070   -0.8430 O.3   236  TYR236     -0.2866
    136  N        -59.5500  -49.5520    4.9640 N.am  237  PHE237     -0.1974
    137  CA       -58.9180  -48.2450    5.0870 C.3   237  PHE237      0.1639
    138  C        -57.4080  -48.3280    5.1630 C.2   237  PHE237      0.2290
    139  O        -56.7260  -47.3710    4.7980 O.2   237  PHE237     -0.2864
    140  CB       -59.4380  -47.5120    6.3220 C.3   237  PHE237      0.0560
    141  CG       -60.8910  -47.1940    6.2510 C.ar  237  PHE237     -0.0200
    142  CD1      -61.8440  -48.1550    6.5590 C.ar  237  PHE237     -0.0042
    143  CD2      -61.3070  -45.9430    5.8670 C.ar  237  PHE237     -0.0042
    144  CE1      -63.1960  -47.8680    6.4820 C.ar  237  PHE237     -0.0003
    145  CE2      -62.6570  -45.6390    5.7860 C.ar  237  PHE237     -0.0003
    146  CZ       -63.6050  -46.6000    6.0950 C.ar  237  PHE237     -0.0000
    147  N        -69.4050  -41.2600    0.8070 N.3   311  TRP311     -0.1241
    148  CA       -70.5060  -41.3770    1.7630 C.3   311  TRP311      0.1605
    149  C        -70.3150  -40.5150    3.0130 C.2   311  TRP311      0.2264
    150  O        -71.2680  -40.3130    3.7780 O.2   311  TRP311     -0.2867
    151  CB       -70.6870  -42.8450    2.1790 C.3   311  TRP311      0.0550
    152  CG       -69.4090  -43.4470    2.7260 C.ar  311  TRP311      0.0003
    153  CD1      -68.9130  -43.3130    3.9950 C.ar  311  TRP311      0.0946
    154  CD2      -68.4560  -44.2400    2.0030 C.ar  311  TRP311      0.0152
    155  NE1      -67.7200  -43.9930    4.1110 N.ar  311  TRP311     -0.2442
    156  CE2      -67.4160  -44.5690    2.9040 C.ar  311  TRP311      0.0810
    157  CE3      -68.3840  -44.7140    0.6850 C.ar  311  TRP311      0.0012
    158  CZ2      -66.3150  -45.3460    2.5280 C.ar  311  TRP311      0.0191
    159  CZ3      -67.2840  -45.4870    0.3090 C.ar  311  TRP311      0.0001
    160  CH2      -66.2660  -45.7930    1.2280 C.ar  311  TRP311      0.0015
    161  N        -64.4940  -50.2820   -4.9180 N.3   341  GLY341     -0.1225
    162  CA       -65.7420  -50.9970   -4.7650 C.3   341  GLY341      0.1811
    163  C        -66.7940  -50.4090   -5.6870 C.2   341  GLY341      0.2280
    164  O        -66.9460  -49.1880   -5.7780 O.2   341  GLY341     -0.2866
    165  N        -70.4660  -50.2210   -5.6750 N.3   343  LEU343     -0.1245
    166  CA       -71.6880  -50.4540   -4.9240 C.3   343  LEU343      0.1561
    167  C        -72.7230  -51.0480   -5.8680 C.2   343  LEU343      0.2260
    168  O        -72.9710  -50.5070   -6.9500 O.2   343  LEU343     -0.2867
    169  CB       -72.2010  -49.1560   -4.3100 C.3   343  LEU343      0.0270
    170  CG       -73.5760  -49.2870   -3.6480 C.3   343  LEU343      0.0019
    171  CD1      -73.4990  -50.1060   -2.3340 C.3   343  LEU343      0.0001
    172  CD2      -74.1470  -47.8990   -3.4080 C.3   343  LEU343      0.0001
    173  N        -61.8280  -54.3710   -6.8460 N.3   411  MET411     -0.1245
    174  CA       -61.8030  -55.5750   -6.0320 C.3   411  MET411      0.1570
    175  C        -62.1830  -56.7810   -6.8810 C.2   411  MET411      0.2261
    176  O        -63.0830  -56.6930   -7.7250 O.2   411  MET411     -0.2867
    177  CB       -62.7630  -55.4730   -4.8500 C.3   411  MET411      0.0387
    178  CG       -62.3190  -54.4960   -3.8070 C.3   411  MET411      0.0595
    179  SD       -63.3980  -54.6240   -2.3940 S.3   411  MET411     -0.1393
    180  CE       -64.6030  -53.3980   -2.7370 C.3   411  MET411      0.0692
    181  N        -63.8610  -62.7340    0.7090 N.3   418  SER418     -0.1217
    182  CA       -64.2810  -62.6400    2.0960 C.3   418  SER418      0.1889
    183  C        -63.1840  -63.1280    3.0380 C.2   418  SER418      0.2288
    184  O        -62.8510  -62.4590    4.0240 O.2   418  SER418     -0.2866
    185  CB       -65.5610  -63.4580    2.2820 C.3   418  SER418      0.2089
    186  OG       -66.5180  -62.6980    2.9800 O.3   418  SER418     -0.2183
    187  N        -60.4120  -60.6340    3.3160 N.3   421  TRP421     -0.1227
    188  CA       -60.7160  -59.4840    4.1690 C.3   421  TRP421      0.1737
    189  C        -60.6320  -59.8490    5.6450 C.2   421  TRP421      0.2595
    190  O        -60.0060  -59.1320    6.4330 O.2   421  TRP421     -0.2718
    191  CB       -62.1050  -58.9300    3.8540 C.3   421  TRP421      0.0564
    192  CG       -62.1980  -58.1020    2.6150 C.ar  421  TRP421      0.0003
    193  CD1      -63.0120  -58.3260    1.5360 C.ar  421  TRP421      0.0946
    194  CD2      -61.4630  -56.9070    2.3250 C.ar  421  TRP421      0.0152
    195  NE1      -62.8280  -57.3370    0.5960 N.ar  421  TRP421     -0.2442
    196  CE2      -61.8750  -56.4620    1.0500 C.ar  421  TRP421      0.0810
    197  CE3      -60.4890  -56.1720    3.0180 C.ar  421  TRP421      0.0012
    198  CZ2      -61.3590  -55.3060    0.4540 C.ar  421  TRP421      0.0191
    199  CZ3      -59.9730  -55.0200    2.4230 C.ar  421  TRP421      0.0001
    200  CH2      -60.4150  -54.6000    1.1550 C.ar  421  TRP421      0.0015
    201  N        -61.2840  -60.9520    6.0380 N.am  422  TYR422     -0.1976
    202  CA       -61.2200  -61.4220    7.4220 C.3   422  TYR422      0.1639
    203  C        -59.7810  -61.6050    7.8940 C.2   422  TYR422      0.2290
    204  O        -59.4420  -61.2490    9.0250 O.2   422  TYR422     -0.2864
    205  CB       -61.9740  -62.7440    7.5660 C.3   422  TYR422      0.0560
    206  CG       -63.4830  -62.6260    7.5250 C.ar  422  TYR422     -0.0198
    207  CD1      -64.2370  -63.4050    6.6540 C.ar  422  TYR422     -0.0009
    208  CD2      -64.1540  -61.7600    8.3740 C.ar  422  TYR422     -0.0009
    209  CE1      -65.6100  -63.3100    6.6230 C.ar  422  TYR422      0.0417
    210  CE2      -65.5400  -61.6530    8.3450 C.ar  422  TYR422      0.0417
    211  CZ       -66.2570  -62.4340    7.4710 C.ar  422  TYR422      0.1957
    212  OH       -67.6310  -62.3390    7.4400 O.3   422  TYR422     -0.2866
    213  N        -58.0240  -58.1830    8.2990 N.3   425  ARG425     -0.1245
    214  CA       -58.5450  -57.4300    9.4340 C.3   425  ARG425      0.1563
    215  C        -57.8860  -57.8850   10.7260 C.2   425  ARG425      0.2260
    216  O        -57.4400  -57.0660   11.5360 O.2   425  ARG425     -0.2867
    217  CB       -60.0610  -57.5830    9.5370 C.3   425  ARG425      0.0307
    218  CG       -60.6160  -56.9120   10.7930 C.3   425  ARG425      0.0489
    219  CD       -62.1130  -57.1000   10.9740 C.3   425  ARG425      0.2205
    220  NE       -62.7370  -55.8500   11.4160 N.pl3 425  ARG425     -0.0865
    221  CZ       -62.8610  -55.4680   12.6890 C.cat 425  ARG425      0.5346
    222  NH1      -62.4190  -56.2430   13.6730 N.pl3 425  ARG425      0.1354
    223  NH2      -63.4360  -54.3090   12.9790 N.pl3 425  ARG425      0.1354
@<TRIPOS>BOND
     1   176   175    2
     2   168   167    2
     3   175   174    1
     4   173   174    1
     5   174   177    1
     6    91    92    1
     7   167   166    1
     8   164   163    2
     9   163   162    1
    10   165   166    1
    11   166   169    1
    12   161   162    1
    13   177   178    1
    14    94    93    2
    15    92    93    1
    16    92    95    1
    17   169   170    1
    18    72    73    1
    19    73    74    1
    20    73    76    1
    21   178   179    1
    22   170   172    1
    23   170   171    1
    24    69    70    2
    25    69    68    1
    26    95    96    1
    27    56    55    2
    28    96    97    1
    29    75    74    2
    30    74    80   am
    31    76    77    1
    32    68    71    1
    33    68    67    1
    34    82    83    2
    35    82    81    1
    36   180   179    1
    37    80    81    1
    38    97    99   ar
    39    97    98   ar
    40    55    67   am
    41    55    54    1
    42    81    84    1
    43    79    77   ar
    44    53    54    1
    45    77    78   ar
    46    54    57    1
    47   135   134    1
    48    84    85    1
    49    57    58    1
    50   132   134   ar
    51   132   130   ar
    52   134   133   ar
    53   159   157   ar
    54   159   160   ar
    55    59    58   ar
    56    59    61   ar
    57   198   196   ar
    58   198   200   ar
    59    24    23    1
    60    24    25    1
    61    58    60   ar
    62   195   196   ar
    63   195   193   ar
    64    85    86    1
    65   157   154   ar
    66   181   182    1
    67   147   148    1
    68    23    22    1
    69   196   194   ar
    70   130   129   ar
    71   200   199   ar
    72    86    87    1
    73   160   158   ar
    74   133   131   ar
    75    22    21    1
    76   193   192   ar
    77    61    62   ar
    78    21    18    1
    79   148   151    1
    80   148   149    1
    81    60    62   ar
    82    60    63   ar
    83   154   152   ar
    84   154   156   ar
    85   182   185    1
    86   182   183    1
    87   151   152    1
    88   185   186    1
    89   194   192   ar
    90   194   197   ar
    91   199   197   ar
    92   129   131   ar
    93   129   128    1
    94    62    64   ar
    95   158   156   ar
    96    18    19    1
    97    18    17    1
    98   192   191    1
    99    87    88    2
   100    63    65   ar
   101   152   153   ar
   102    19    20    2
   103   127   126    2
   104    89    88    1
   105   156   155   ar
   106   149   150    2
   107   183   184    2
   108   187   188    1
   109     1     2    1
   110    88    90    1
   111   128   125    1
   112    39    36    1
   113    39    40    1
   114   125   126    1
   115   125   124    1
   116   126   136   am
   117    64    66   ar
   118   191   188    1
   119    17    11   am
   120    38    37    2
   121   153   155   ar
   122    65    66   ar
   123    12    11    2
   124    36    37    1
   125    36    35    1
   126     5     2    1
   127     5     6    1
   128   188   189    1
   129    15    14   ar
   130     4     3    2
   131   120   119    2
   132     2     3    1
   133    40    41    1
   134    11    10    1
   135    37    44   am
   136   139   138    2
   137   124   119   am
   138    16    14   ar
   139    14    13    1
   140   136   137    1
   141   137   138    1
   142   137   140    1
   143   119   118    1
   144     6     8   am
   145     6     7    2
   146   189   201   am
   147   189   190    2
   148   145   143   ar
   149   145   146   ar
   150   143   141   ar
   151    13    10    1
   152    10     9    1
   153    41    43   ar
   154    41    42   ar
   155    44    45    1
   156   201   202    1
   157   146   144   ar
   158   121   122    1
   159   121   118    1
   160   141   140    1
   161   141   142   ar
   162   122   123    1
   163   144   142   ar
   164   118   117    1
   165    45    46    1
   166    45    48    1
   167   209   207   ar
   168   209   211   ar
   169    47    46    2
   170   207   206   ar
   171   117   123    1
   172   117   110   am
   173   202   205    1
   174   202   203    1
   175   212   211    1
   176   211   210   ar
   177   206   205    1
   178   206   208   ar
   179   111   110    2
   180   115   114   ar
   181    49    48    1
   182    49    50    1
   183   203   204    2
   184   110   109    1
   185    29    28    2
   186    28    27    1
   187   213   214    1
   188   112   109    1
   189   112   113    1
   190   210   208   ar
   191   114   113    1
   192   114   116   ar
   193   109   108    1
   194    50    51   ar
   195    50    52   ar
   196    27    26    1
   197    27    30    1
   198   214   217    1
   199   214   215    1
   200   217   218    1
   201   103   102    2
   202   107   105   am
   203   104   105    1
   204   104   101    1
   205   100   101    1
   206    30    31    1
   207   102   101    1
   208   105   106    2
   209   215   216    2
   210   218   219    1
   211   219   220    1
   212    31    32    1
   213   220   221    2
   214   221   223    1
   215   221   222    1
   216    32    33    1
   217    34    33    1
