@<TRIPOS>MOLECULE
tmp/6anvB01.pdb
 99 96 0 0 0
SMALL
GASTEIGER

@<TRIPOS>ATOM
      1  N        -71.3640  -46.4110   19.7620 N.3    40  VAL40      -0.1231
      2  CA       -71.5620  -47.8250   20.0350 C.3    40  VAL40       0.1692
      3  C        -72.9500  -48.2890   19.6150 C.2    40  VAL40       0.2593
      4  O        -73.3640  -49.3970   19.9590 O.2    40  VAL40      -0.2718
      5  CB       -71.2910  -48.1540   21.5180 C.3    40  VAL40       0.0266
      6  CG1      -69.9330  -47.6060   21.9350 C.3    40  VAL40       0.0020
      7  CG2      -72.3800  -47.5980   22.4000 C.3    40  VAL40       0.0020
      8  N        -73.6800  -47.4590   18.8750 N.am   41  GLY41      -0.1942
      9  CA       -74.9910  -47.8470   18.4080 C.3    41  GLY41       0.2014
     10  C        -75.7640  -46.6650   17.8720 C.2    41  GLY41       0.2639
     11  O        -75.5190  -45.5240   18.2720 O.2    41  GLY41      -0.2714
     12  N        -76.6920  -46.9320   16.9570 N.am   42  ALA42      -0.1963
     13  CA       -77.5190  -45.8900   16.3740 C.3    42  ALA42       0.1728
     14  C        -78.8640  -46.4860   15.9840 C.2    42  ALA42       0.2616
     15  O        -78.9780  -47.6880   15.7330 O.2    42  ALA42      -0.2715
     16  CB       -76.8400  -45.2540   15.1600 C.3    42  ALA42       0.0334
     17  N        -79.8910  -45.6380   15.9730 N.am   43  ARG43      -0.1977
     18  CA       -81.1800  -46.0150   15.4150 C.3    43  ARG43       0.1597
     19  C        -81.7910  -44.7950   14.7600 C.2    43  ARG43       0.2287
     20  O        -81.5490  -43.6580   15.1710 O.2    43  ARG43      -0.2864
     21  CB       -82.1620  -46.5780   16.4440 C.3    43  ARG43       0.0334
     22  CG       -81.8240  -47.9600   16.9420 C.3    43  ARG43       0.0492
     23  CD       -81.9220  -49.0280   15.8600 C.3    43  ARG43       0.2205
     24  NE       -81.9060  -50.3550   16.4780 N.pl3  43  ARG43      -0.0865
     25  CZ       -80.8030  -50.9610   16.9130 C.cat  43  ARG43       0.5346
     26  NH1      -80.8740  -52.1560   17.4820 N.pl3  43  ARG43       0.1354
     27  NH2      -79.6240  -50.3740   16.7720 N.pl3  43  ARG43       0.1354
     28  N        -80.6540  -48.9730   21.7500 N.3    73  ILE73      -0.1231
     29  CA       -79.9940  -48.3930   20.5890 C.3    73  ILE73       0.1692
     30  C        -78.7130  -49.1510   20.2630 C.2    73  ILE73       0.2593
     31  O        -78.3630  -49.3230   19.0920 O.2    73  ILE73      -0.2718
     32  CB       -79.7350  -46.9020   20.8350 C.3    73  ILE73       0.0266
     33  CG1      -81.0690  -46.1490   20.8810 C.3    73  ILE73       0.0019
     34  CG2      -78.7830  -46.3160   19.7940 C.3    73  ILE73       0.0020
     35  CD1      -80.9110  -44.6810   21.1630 C.3    73  ILE73       0.0001
     36  N        -78.0030  -49.6360   21.2790 N.am   74  SER74      -0.1938
     37  CA       -76.7240  -50.2820   21.0160 C.3    74  SER74       0.2055
     38  C        -76.8340  -51.8000   20.8660 C.2    74  SER74       0.2643
     39  O        -75.8420  -52.4500   20.5260 O.2    74  SER74      -0.2714
     40  CB       -75.7110  -49.9140   22.1090 C.3    74  SER74       0.2130
     41  OG       -76.1500  -50.3250   23.3730 O.3    74  SER74      -0.2179
     42  N        -78.0090  -52.3850   21.0550 N.am   75  ARG75      -0.1963
     43  CA       -78.1240  -53.7850   20.7020 C.3    75  ARG75       0.1729
     44  C        -78.1170  -53.9390   19.1790 C.2    75  ARG75       0.2616
     45  O        -78.3940  -53.0020   18.4190 O.2    75  ARG75      -0.2715
     46  CB       -79.3840  -54.4020   21.3070 C.3    75  ARG75       0.0348
     47  CG       -80.6560  -53.8650   20.7300 C.3    75  ARG75       0.0492
     48  CD       -81.8580  -54.2410   21.5840 C.3    75  ARG75       0.2205
     49  NE       -82.0400  -55.6860   21.7070 N.pl3  75  ARG75      -0.0865
     50  CZ       -83.2200  -56.2740   21.8990 C.cat  75  ARG75       0.5346
     51  NH1      -84.3230  -55.5400   21.9710 N.pl3  75  ARG75       0.1354
     52  NH2      -83.3030  -57.5960   22.0030 N.pl3  75  ARG75       0.1354
     53  N        -77.7540  -55.1390   18.7430 N.am   76  ARG76      -0.1963
     54  CA       -77.6160  -55.4330   17.3270 C.3    76  ARG76       0.1729
     55  C        -78.8960  -55.0910   16.5700 C.2    76  ARG76       0.2616
     56  O        -80.0040  -55.3920   17.0250 O.2    76  ARG76      -0.2715
     57  CB       -77.2660  -56.9110   17.1530 C.3    76  ARG76       0.0348
     58  CG       -77.3970  -57.4170   15.7240 C.3    76  ARG76       0.0492
     59  CD       -77.1990  -58.9140   15.6660 C.3    76  ARG76       0.2205
     60  NE       -75.8400  -59.2880   16.0280 N.pl3  76  ARG76      -0.0865
     61  CZ       -74.9590  -59.8190   15.1870 C.cat  76  ARG76       0.5346
     62  NH1      -75.3000  -60.0550   13.9240 N.pl3  76  ARG76       0.1354
     63  NH2      -73.7390  -60.1200   15.6160 N.pl3  76  ARG76       0.1354
     64  N        -78.7430  -54.4260   15.4270 N.am   77  GLU77      -0.1977
     65  CA       -79.8890  -54.0900   14.5880 C.3    77  GLU77       0.1602
     66  C        -80.1590  -55.2680   13.6600 C.2    77  GLU77       0.2287
     67  O        -79.3500  -55.5750   12.7780 O.2    77  GLU77      -0.2864
     68  CB       -79.6470  -52.8050   13.8050 C.3    77  GLU77       0.0415
     69  CG       -80.8910  -52.3520   13.0590 C.3    77  GLU77       0.1163
     70  CD       -80.9470  -50.8520   12.8190 C.2    77  GLU77       0.3649
     71  OE1      -79.9060  -50.1640   12.9820 O.co2  77  GLU77      -0.2457
     72  OE2      -82.0520  -50.3720   12.4800 O.co2  77  GLU77      -0.2457
     73  N        -80.9830  -51.3380    7.1760 N.3   120  HIS120     -0.1241
     74  CA       -79.5350  -51.5160    7.1900 C.3   120  HIS120      0.1621
     75  C        -79.1830  -52.4460    8.3420 C.2   120  HIS120      0.2264
     76  O        -78.5880  -52.0170    9.3300 O.2   120  HIS120     -0.2867
     77  CB       -78.8080  -50.1690    7.3050 C.3   120  HIS120      0.0745
     78  CG       -79.3500  -49.2590    8.3680 C.ar  120  HIS120      0.0817
     79  ND1      -79.0930  -49.4420    9.7120 N.ar  120  HIS120     -0.2268
     80  CD2      -80.1120  -48.1400    8.2830 C.ar  120  HIS120      0.1154
     81  CE1      -79.6820  -48.4820   10.4070 C.ar  120  HIS120      0.1986
     82  NE2      -80.3030  -47.6770    9.5650 N.ar  120  HIS120     -0.2212
     83  N        -77.3230  -54.8910   10.8050 N.3   122  ASP122     -0.1225
     84  CA       -75.9200  -55.1120   11.1220 C.3   122  ASP122      0.1805
     85  C        -75.4160  -56.3750   10.4310 C.2   122  ASP122      0.2597
     86  O        -76.1360  -57.3730   10.3190 O.2   122  ASP122     -0.2718
     87  CB       -75.7400  -55.2120   12.6420 C.3   122  ASP122      0.1424
     88  CG       -75.9350  -53.8610   13.3460 C.2   122  ASP122      0.3668
     89  OD1      -75.7010  -52.8220   12.6910 O.co2 122  ASP122     -0.2456
     90  OD2      -76.3150  -53.8260   14.5380 O.co2 122  ASP122     -0.2456
     91  N        -74.1860  -56.3130    9.9320 N.am  123  LYS123     -0.1979
     92  CA       -73.5570  -57.4640    9.2710 C.3   123  LYS123      0.1596
     93  C        -74.4620  -58.0650    8.1900 C.2   123  LYS123      0.2287
     94  O        -74.4870  -59.2800    7.9710 O.2   123  LYS123     -0.2864
     95  CB       -73.1680  -58.5130   10.3080 C.3   123  LYS123      0.0298
     96  CG       -72.2720  -57.9480   11.4120 C.3   123  LYS123      0.0038
     97  CD       -72.4030  -58.7620   12.7030 C.3   123  LYS123      0.0206
     98  CE       -71.2390  -58.5200   13.6570 C.3   123  LYS123      0.1093
     99  NZ       -70.0820  -59.3950   13.3090 N.3   123  LYS123     -0.1314
@<TRIPOS>BOND
     1    73    74    1
     2    74    77    1
     3    74    75    1
     4    77    78    1
     5    94    93    2
     6    93    92    1
     7    80    78   ar
     8    80    82   ar
     9    75    76    2
    10    78    79   ar
    11    92    91    1
    12    92    95    1
    13    82    81   ar
    14    79    81   ar
    15    91    85   am
    16    95    96    1
    17    86    85    2
    18    85    84    1
    19    83    84    1
    20    84    87    1
    21    96    97    1
    22    72    70   ar
    23    87    88    1
    24    89    88   ar
    25    97    98    1
    26    67    66    2
    27    70    71   ar
    28    70    69    1
    29    69    68    1
    30    99    98    1
    31    88    90   ar
    32    66    65    1
    33    68    65    1
    34    62    61    1
    35    65    64    1
    36    19    20    2
    37    19    18    1
    38    16    13    1
    39    61    63    1
    40    61    60    2
    41    18    17    1
    42    18    21    1
    43    64    55   am
    44    59    58    1
    45    59    60    1
    46    58    57    1
    47    15    14    2
    48    23    24    1
    49    23    22    1
    50    17    14   am
    51    14    13    1
    52    13    12    1
    53    21    22    1
    54    24    25    2
    55    55    56    2
    56    55    54    1
    57    27    25    1
    58    25    26    1
    59    12    10   am
    60    57    54    1
    61    54    53    1
    62    10    11    2
    63    10     9    1
    64     9     8    1
    65    45    44    2
    66    53    44   am
    67     8     3   am
    68    31    30    2
    69    44    43    1
    70     3     4    2
    71     3     2    1
    72     1     2    1
    73    34    32    1
    74     2     5    1
    75    30    29    1
    76    30    36   am
    77    39    38    2
    78    29    32    1
    79    29    28    1
    80    43    42    1
    81    43    46    1
    82    47    46    1
    83    47    48    1
    84    32    33    1
    85    38    37    1
    86    38    42   am
    87    33    35    1
    88    37    36    1
    89    37    40    1
    90     5     6    1
    91     5     7    1
    92    48    49    1
    93    49    50    2
    94    50    51    1
    95    50    52    1
    96    40    41    1
