@<TRIPOS>MOLECULE
tmp/6anvB04.pdb
 86 84 0 0 0
SMALL
GASTEIGER

@<TRIPOS>ATOM
      1  N        -58.7140  -33.4280    3.7950 N.3   198  TYR198     -0.1241
      2  CA       -57.8510  -32.6240    4.6430 C.3   198  TYR198      0.1605
      3  C        -58.5150  -31.2950    4.9590 C.2   198  TYR198      0.2264
      4  O        -59.2850  -30.7550    4.1610 O.2   198  TYR198     -0.2867
      5  CB       -56.4780  -32.4030    3.9990 C.3   198  TYR198      0.0534
      6  CG       -56.4720  -31.4920    2.7910 C.ar  198  TYR198     -0.0201
      7  CD1      -56.8630  -31.9580    1.5410 C.ar  198  TYR198     -0.0009
      8  CD2      -56.0430  -30.1730    2.8990 C.ar  198  TYR198     -0.0009
      9  CE1      -56.8460  -31.1310    0.4280 C.ar  198  TYR198      0.0417
     10  CE2      -56.0170  -29.3390    1.7940 C.ar  198  TYR198      0.0417
     11  CZ       -56.4200  -29.8210    0.5620 C.ar  198  TYR198      0.1957
     12  OH       -56.3950  -28.9960   -0.5370 O.3   198  TYR198     -0.2866
     13  N        -58.3830  -27.6190    5.1150 N.3   200  LYS200     -0.1245
     14  CA       -57.5830  -26.5940    4.4570 C.3   200  LYS200      0.1561
     15  C        -57.1000  -25.5010    5.4090 C.2   200  LYS200      0.2260
     16  O        -56.1240  -24.8190    5.0870 O.2   200  LYS200     -0.2867
     17  CB       -58.3720  -25.9480    3.3170 C.3   200  LYS200      0.0271
     18  CG       -58.5910  -26.8250    2.0950 C.3   200  LYS200      0.0035
     19  CD       -59.5520  -26.1610    1.1180 C.3   200  LYS200      0.0206
     20  CE       -59.7980  -27.0480   -0.1010 C.3   200  LYS200      0.1093
     21  NZ       -60.8630  -26.5290   -1.0130 N.3   200  LYS200     -0.1314
     22  N        -69.6640  -31.3490    5.0180 N.3   317  ASP317     -0.1239
     23  CA       -70.2790  -30.0820    4.6070 C.3   317  ASP317      0.1674
     24  C        -71.0460  -29.4610    5.7620 C.2   317  ASP317      0.2266
     25  O        -70.9450  -28.2560    6.0230 O.2   317  ASP317     -0.2867
     26  CB       -71.2300  -30.2760    3.4290 C.3   317  ASP317      0.1410
     27  CG       -70.5480  -30.8340    2.2030 C.2   317  ASP317      0.3668
     28  OD1      -71.2090  -31.5990    1.4710 O.co2 317  ASP317     -0.2456
     29  OD2      -69.3640  -30.5300    1.9840 O.co2 317  ASP317     -0.2456
     30  N        -63.5690  -26.3600    6.3010 N.3   322  ASN322     -0.1225
     31  CA       -63.1180  -26.0550    4.9500 C.3   322  ASN322      0.1785
     32  C        -62.2150  -27.2050    4.5280 C.2   322  ASN322      0.2597
     33  O        -61.0060  -27.1980    4.7610 O.2   322  ASN322     -0.2718
     34  CB       -62.4100  -24.7040    4.9000 C.3   322  ASN322      0.1169
     35  CG       -62.0750  -24.2680    3.4810 C.2   322  ASN322      0.2627
     36  OD1      -62.5920  -24.8130    2.5060 O.2   322  ASN322     -0.2716
     37  ND2      -61.2030  -23.2680    3.3640 N.am  322  ASN322     -0.0877
     38  N        -62.8090  -28.2150    3.9030 N.am  323  TYR323     -0.1962
     39  CA       -62.0810  -29.4260    3.5640 C.3   323  TYR323      0.1771
     40  C        -61.8040  -29.5150    2.0720 C.2   323  TYR323      0.2620
     41  O        -62.4970  -28.9190    1.2460 O.2   323  TYR323     -0.2715
     42  CB       -62.8350  -30.6780    4.0210 C.3   323  TYR323      0.0574
     43  CG       -64.0730  -31.0180    3.2200 C.ar  323  TYR323     -0.0198
     44  CD1      -65.2880  -30.3750    3.4610 C.ar  323  TYR323     -0.0009
     45  CD2      -64.0390  -32.0060    2.2460 C.ar  323  TYR323     -0.0009
     46  CE1      -66.4330  -30.7080    2.7410 C.ar  323  TYR323      0.0417
     47  CE2      -65.1680  -32.3420    1.5290 C.ar  323  TYR323      0.0417
     48  CZ       -66.3610  -31.6940    1.7790 C.ar  323  TYR323      0.1957
     49  OH       -67.4830  -32.0300    1.0560 O.3   323  TYR323     -0.2866
     50  N        -60.7500  -30.2640    1.7550 N.am  324  GLY324     -0.1940
     51  CA       -60.4500  -30.6680    0.4040 C.3   324  GLY324      0.2014
     52  C        -60.3650  -32.1770    0.2990 C.2   324  GLY324      0.2638
     53  O        -60.1470  -32.8700    1.2940 O.2   324  GLY324     -0.2714
     54  N        -60.5370  -32.6990   -0.9090 N.am  325  VAL325     -0.1977
     55  CA       -60.4600  -34.1270   -1.1830 C.3   325  VAL325      0.1596
     56  C        -59.3810  -34.3120   -2.2370 C.2   325  VAL325      0.2287
     57  O        -59.4060  -33.6410   -3.2720 O.2   325  VAL325     -0.2864
     58  CB       -61.8170  -34.6700   -1.6700 C.3   325  VAL325      0.0276
     59  CG1      -61.7530  -36.1590   -1.9290 C.3   325  VAL325      0.0022
     60  CG2      -62.9110  -34.3540   -0.6560 C.3   325  VAL325      0.0022
     61  N        -67.2470  -32.0730  -10.3710 N.3   395  ASP395     -0.1225
     62  CA       -66.9260  -31.8220   -8.9670 C.3   395  ASP395      0.1790
     63  C        -65.5130  -32.3190   -8.6620 C.2   395  ASP395      0.2440
     64  O        -65.2250  -33.5040   -8.8710 O.2   395  ASP395     -0.2733
     65  CB       -67.9710  -32.5220   -8.0920 C.3   395  ASP395      0.1423
     66  CG       -67.6790  -32.4530   -6.5920 C.2   395  ASP395      0.3668
     67  OD1      -66.6330  -31.9380   -6.1600 O.co2 395  ASP395     -0.2456
     68  OD2      -68.5360  -32.9390   -5.8220 O.co2 395  ASP395     -0.2456
     69  N        -64.6100  -31.4600   -8.1720 N.am  396  PRO396     -0.2718
     70  CA       -63.2310  -31.9210   -7.9080 C.3   396  PRO396      0.1535
     71  C        -63.1530  -33.1070   -6.9540 C.2   396  PRO396      0.2598
     72  O        -62.2740  -33.9650   -7.1120 O.2   396  PRO396     -0.2715
     73  CB       -62.5550  -30.6780   -7.3140 C.3   396  PRO396      0.0310
     74  CG       -63.3980  -29.5240   -7.7330 C.3   396  PRO396      0.0237
     75  CD       -64.8010  -30.0470   -7.7990 C.3   396  PRO396      0.0939
     76  N        -64.0520  -33.1920   -5.9720 N.am  397  ARG397     -0.1978
     77  CA       -64.0560  -34.3540   -5.0880 C.3   397  ARG397      0.1597
     78  C        -64.3130  -35.6320   -5.8670 C.2   397  ARG397      0.2287
     79  O        -63.7900  -36.6970   -5.5140 O.2   397  ARG397     -0.2864
     80  CB       -65.1090  -34.1740   -3.9990 C.3   397  ARG397      0.0334
     81  CG       -65.0930  -32.7970   -3.3460 C.3   397  ARG397      0.0492
     82  CD       -66.2820  -32.6180   -2.4040 C.3   397  ARG397      0.2205
     83  NE       -67.5480  -32.7690   -3.1190 N.pl3 397  ARG397     -0.0865
     84  CZ       -68.7450  -32.7980   -2.5370 C.cat 397  ARG397      0.5346
     85  NH1      -68.8540  -32.6820   -1.2160 N.pl3 397  ARG397      0.1354
     86  NH2      -69.8370  -32.9430   -3.2800 N.pl3 397  ARG397      0.1354
@<TRIPOS>BOND
     1    61    62    1
     2    62    63    1
     3    62    65    1
     4    64    63    2
     5    63    69   am
     6    69    70    1
     7    69    75    1
     8    65    66    1
     9    70    73    1
    10    70    71    1
    11    75    74    1
    12    74    73    1
    13    72    71    2
    14    71    76   am
    15    66    67   ar
    16    66    68   ar
    17    76    77    1
    18    78    79    2
    19    78    77    1
    20    77    80    1
    21    80    81    1
    22    81    82    1
    23    86    84    1
    24    57    56    2
    25    83    84    2
    26    83    82    1
    27    84    85    1
    28    56    55    1
    29    59    58    1
    30    58    55    1
    31    58    60    1
    32    55    54    1
    33    21    20    1
    34    54    52   am
    35    12    11    1
    36    20    19    1
    37    52    51    1
    38    52    53    2
    39    51    50    1
    40     9    11   ar
    41     9     7   ar
    42    11    10   ar
    43    49    48    1
    44    19    18    1
    45    41    40    2
    46    28    27   ar
    47    47    48   ar
    48    47    45   ar
    49     7     6   ar
    50    50    40   am
    51    48    46   ar
    52    10     8   ar
    53    29    27   ar
    54    40    39    1
    55    18    17    1
    56    27    26    1
    57    45    43   ar
    58    36    35    2
    59    46    44   ar
    60     6     8   ar
    61     6     5    1
    62    43    44   ar
    63    43    42    1
    64    17    14    1
    65    37    35   am
    66    26    23    1
    67    35    34    1
    68    39    38    1
    69    39    42    1
    70     1     2    1
    71    38    32   am
    72     5     2    1
    73     4     3    2
    74    14    13    1
    75    14    15    1
    76    32    33    2
    77    32    31    1
    78    23    22    1
    79    23    24    1
    80     2     3    1
    81    34    31    1
    82    31    30    1
    83    16    15    2
    84    24    25    2
