@<TRIPOS>MOLECULE
tmp/6anxA00.pdb
 180 170 0 0 0
SMALL
GASTEIGER

@<TRIPOS>ATOM
      1  N          9.4960   32.7110   -4.8330 N.3    14  ASN14      -0.1240
      2  CA        10.6510   33.4290   -4.4790 C.3    14  ASN14       0.1653
      3  C         10.8290   34.7150   -5.3020 C.2    14  ASN14       0.2266
      4  O         10.0020   35.0350   -6.1760 O.2    14  ASN14      -0.2867
      5  CB        11.9030   32.5310   -4.5150 C.3    14  ASN14       0.1155
      6  CG        12.3350   32.1410   -5.9310 C.2    14  ASN14       0.2627
      7  OD1       11.9380   32.7230   -6.9530 O.2    14  ASN14      -0.2716
      8  ND2       13.2730   31.2060   -5.9880 N.am   14  ASN14      -0.0877
      9  N         12.6720   35.4290   -7.7050 N.3    16  LEU16      -0.1245
     10  CA        12.8990   35.1880   -9.1370 C.3    16  LEU16       0.1561
     11  C         11.5800   34.8910   -9.8660 C.2    16  LEU16       0.2260
     12  O         11.6040   34.7760  -11.1190 O.2    16  LEU16      -0.2867
     13  CB        13.8500   34.0670   -9.3640 C.3    16  LEU16       0.0270
     14  CG        15.2830   34.2370   -8.8580 C.3    16  LEU16       0.0019
     15  CD1       16.0410   32.9280   -8.9340 C.3    16  LEU16       0.0001
     16  CD2       15.9550   35.2940   -9.7010 C.3    16  LEU16       0.0001
     17  N          9.9820   31.9480   -9.1490 N.3    18  SER18      -0.1217
     18  CA         9.8310   30.5060   -9.0310 C.3    18  SER18       0.1889
     19  C          8.7240   30.1090   -8.0490 C.2    18  SER18       0.2288
     20  O          8.4660   30.8410   -7.1000 O.2    18  SER18      -0.2866
     21  CB        11.1790   29.8410   -8.6780 C.3    18  SER18       0.2089
     22  OG        12.1560   30.2040   -9.6110 O.3    18  SER18      -0.2183
     23  N          8.8400   21.8320   -7.7900 N.3    34  TYR34      -0.1241
     24  CA         9.4460   23.1050   -7.9140 C.3    34  TYR34       0.1605
     25  C          9.3730   23.4510   -9.3370 C.2    34  TYR34       0.2264
     26  O          9.6610   22.6140  -10.1980 O.2    34  TYR34      -0.2867
     27  CB        10.9310   23.0210   -7.4920 C.3    34  TYR34       0.0534
     28  CG        11.5320   24.3410   -7.1450 C.ar   34  TYR34      -0.0201
     29  CD1       12.0690   25.1540   -8.1320 C.ar   34  TYR34      -0.0009
     30  CD2       11.5340   24.8010   -5.8310 C.ar   34  TYR34      -0.0009
     31  CE1       12.6230   26.3990   -7.8190 C.ar   34  TYR34       0.0417
     32  CE2       12.0960   26.0220   -5.4890 C.ar   34  TYR34       0.0417
     33  CZ        12.6270   26.8290   -6.4470 C.ar   34  TYR34       0.1957
     34  OH        13.1390   28.0920   -6.1830 O.3    34  TYR34      -0.2866
     35  N         11.0790   26.4650  -11.6900 N.3    36  SER36      -0.1217
     36  CA        11.9650   27.6350  -11.7570 C.3    36  SER36       0.1889
     37  C         11.6220   28.5850  -12.8250 C.2    36  SER36       0.2288
     38  O         11.4470   28.1570  -13.9840 O.2    36  SER36      -0.2866
     39  CB        13.3920   27.1470  -11.9580 C.3    36  SER36       0.2089
     40  OG        14.2760   28.2740  -11.9480 O.3    36  SER36      -0.2183
     41  N         13.7600   30.6860  -13.9680 N.3    38  VAL38      -0.1231
     42  CA        15.0520   30.8970  -14.6510 C.3    38  VAL38       0.1692
     43  C         15.8450   29.6180  -14.9120 C.2    38  VAL38       0.2593
     44  O         15.6110   28.5500  -14.2960 O.2    38  VAL38      -0.2718
     45  CB        15.9450   31.8670  -13.8730 C.3    38  VAL38       0.0266
     46  CG1       15.3140   33.2370  -13.6400 C.3    38  VAL38       0.0020
     47  CG2       16.4380   31.3030  -12.5300 C.3    38  VAL38       0.0020
     48  N         16.8180   29.7080  -15.8120 N.am   39  GLY39      -0.1942
     49  CA        17.6990   28.6060  -16.0060 C.3    39  GLY39       0.2014
     50  C         17.2370   27.5700  -16.9870 C.2    39  GLY39       0.2639
     51  O         16.2530   27.7690  -17.7060 O.2    39  GLY39      -0.2714
     52  N         17.9480   26.4560  -16.9830 N.am   40  ASN40      -0.1958
     53  CA        17.6560   25.3420  -17.9020 C.3    40  ASN40       0.1819
     54  C         16.5950   24.4240  -17.3200 C.2    40  ASN40       0.2621
     55  O         16.8770   23.3620  -16.8410 O.2    40  ASN40      -0.2715
     56  CB        18.9240   24.6540  -18.3310 C.3    40  ASN40       0.1195
     57  CG        18.6750   23.6420  -19.4590 C.2    40  ASN40       0.2630
     58  OD1       17.6040   23.6330  -20.0390 O.2    40  ASN40      -0.2716
     59  ND2       19.6060   22.7760  -19.6720 N.am   40  ASN40      -0.0877
     60  N         15.3620   24.9030  -17.4100 N.am   41  ALA41      -0.1977
     61  CA        14.2470   24.3190  -16.7120 C.3    41  ALA41       0.1597
     62  C         12.9380   24.6780  -17.3290 C.2    41  ALA41       0.2287
     63  O         12.7220   25.8230  -17.7730 O.2    41  ALA41      -0.2864
     64  CB        14.2670   24.7400  -15.2570 C.3    41  ALA41       0.0319
     65  N         17.4230   18.3780  -11.6310 N.3    70  TRP70      -0.1241
     66  CA        16.8250   19.1150  -12.7420 C.3    70  TRP70       0.1605
     67  C         16.5920   18.2390  -13.9740 C.2    70  TRP70       0.2264
     68  O         16.9120   18.6070  -15.1010 O.2    70  TRP70      -0.2867
     69  CB        17.6300   20.3840  -13.0360 C.3    70  TRP70       0.0550
     70  CG        17.6520   21.3470  -11.9330 C.ar   70  TRP70       0.0003
     71  CD1       18.6950   21.5860  -11.0830 C.ar   70  TRP70       0.0946
     72  CD2       16.5880   22.1610  -11.5350 C.ar   70  TRP70       0.0152
     73  NE1       18.3370   22.5250  -10.1460 N.ar   70  TRP70      -0.2442
     74  CE2       17.0080   22.8560  -10.3430 C.ar   70  TRP70       0.0810
     75  CE3       15.2510   22.3210  -11.9990 C.ar   70  TRP70       0.0012
     76  CZ2       16.2230   23.7930   -9.7100 C.ar   70  TRP70       0.0191
     77  CZ3       14.4390   23.2640  -11.3420 C.ar   70  TRP70       0.0001
     78  CH2       14.9250   23.9640  -10.1880 C.ar   70  TRP70       0.0015
     79  N         18.9550   19.1040  -17.1540 N.3    77  ALA77      -0.1245
     80  CA        20.0390   20.0360  -17.0470 C.3    77  ALA77       0.1562
     81  C         21.2610   19.4740  -16.2850 C.2    77  ALA77       0.2260
     82  O         22.1460   20.2390  -15.9360 O.2    77  ALA77      -0.2867
     83  CB        19.5840   21.3300  -16.3980 C.3    77  ALA77       0.0290
     84  N         22.0300   18.4810  -13.2870 N.3    79  SER79      -0.1217
     85  CA        22.3890   19.3110  -12.1610 C.3    79  SER79       0.1889
     86  C         21.3910   19.1150  -11.0550 C.2    79  SER79       0.2288
     87  O         20.2630   18.6340  -11.2950 O.2    79  SER79      -0.2866
     88  CB        22.4580   20.8010  -12.5470 C.3    79  SER79       0.2089
     89  OG        21.3380   21.2920  -13.3060 O.3    79  SER79      -0.2183
     90  N         19.9820   21.2460   -7.3200 N.3    81  THR81      -0.1218
     91  CA        20.0780   22.3000   -6.3350 C.3    81  THR81       0.1862
     92  C         19.5860   21.8160   -5.0030 C.2    81  THR81       0.2287
     93  O         18.5470   21.1670   -4.9270 O.2    81  THR81      -0.2866
     94  CB        19.1790   23.4590   -6.7630 C.3    81  THR81       0.1770
     95  OG1       19.6310   23.9940   -8.0340 O.3    81  THR81      -0.2211
     96  CG2       19.2590   24.6270   -5.7570 C.3    81  THR81       0.0375
     97  N         18.5070   23.5610   -1.3350 N.3    83  TRP83      -0.1241
     98  CA        18.2820   24.7650   -0.5070 C.3    83  TRP83       0.1605
     99  C         18.3540   24.3550    0.9280 C.2    83  TRP83       0.2264
    100  O         17.6890   23.4290    1.3580 O.2    83  TRP83      -0.2867
    101  CB        16.8400   25.3200   -0.7840 C.3    83  TRP83       0.0550
    102  CG        16.5730   25.9000   -2.1450 C.ar   83  TRP83       0.0003
    103  CD1       16.4890   27.2400   -2.4290 C.ar   83  TRP83       0.0946
    104  CD2       16.3310   25.2310   -3.3640 C.ar   83  TRP83       0.0152
    105  NE1       16.2100   27.4380   -3.7200 N.ar   83  TRP83      -0.2442
    106  CE2       16.0480   26.2300   -4.3280 C.ar   83  TRP83       0.0810
    107  CE3       16.2540   23.8820   -3.7320 C.ar   83  TRP83       0.0012
    108  CZ2       15.7700   25.9520   -5.6700 C.ar   83  TRP83       0.0191
    109  CZ3       15.9230   23.5710   -5.0380 C.ar   83  TRP83       0.0001
    110  CH2       15.6600   24.6070   -6.0060 C.ar   83  TRP83       0.0015
    111  N         21.4370   28.3580   -1.2410 N.3    99  TRP99      -0.1241
    112  CA        21.4560   27.1460   -2.1220 C.3    99  TRP99       0.1605
    113  C         22.7600   26.8860   -2.7890 C.2    99  TRP99       0.2264
    114  O         23.5810   27.8100   -3.0010 O.2    99  TRP99      -0.2867
    115  CB        20.2900   27.2100   -3.1240 C.3    99  TRP99       0.0550
    116  CG        20.2170   28.4290   -3.9980 C.ar   99  TRP99       0.0003
    117  CD1       19.3070   29.4510   -3.8970 C.ar   99  TRP99       0.0946
    118  CD2       20.9770   28.7130   -5.1520 C.ar   99  TRP99       0.0152
    119  NE1       19.5390   30.3930   -4.8410 N.ar   99  TRP99      -0.2442
    120  CE2       20.5350   29.9630   -5.6730 C.ar   99  TRP99       0.0810
    121  CE3       22.0110   28.0600   -5.7940 C.ar   99  TRP99       0.0012
    122  CZ2       21.0510   30.5140   -6.8090 C.ar   99  TRP99       0.0191
    123  CZ3       22.5550   28.6480   -6.9460 C.ar   99  TRP99       0.0001
    124  CH2       22.1030   29.9080   -7.3910 C.ar   99  TRP99       0.0015
    125  N         24.0060   24.7410   -6.2430 N.3   101  LEU101     -0.1245
    126  CA        23.5820   24.1460   -7.5420 C.3   101  LEU101      0.1561
    127  C         24.8040   23.4870   -8.1840 C.2   101  LEU101      0.2260
    128  O         25.6990   24.1640   -8.6790 O.2   101  LEU101     -0.2867
    129  CB        22.9670   25.1770   -8.4130 C.3   101  LEU101      0.0270
    130  CG        22.7190   24.9670   -9.9010 C.3   101  LEU101      0.0019
    131  CD1       22.0450   23.6890  -10.1990 C.3   101  LEU101      0.0001
    132  CD2       21.8000   26.0620  -10.4150 C.3   101  LEU101      0.0001
    133  N         26.4890   21.0220  -11.0050 N.3   103  SER103     -0.1202
    134  CA        26.3150   20.4250  -12.3310 C.3   103  SER103      0.2020
    135  C         27.1900   19.1940  -12.4140 C.2   103  SER103      0.2619
    136  O         28.2930   19.2160  -11.8390 O.2   103  SER103     -0.2717
    137  CB        26.6440   21.3750  -13.4350 C.3   103  SER103      0.2103
    138  OG        25.6800   22.4220  -13.4550 O.3   103  SER103     -0.2182
    139  N         26.7800   18.1420  -13.1300 N.am  104  GLY104     -0.1942
    140  CA        27.7490   17.1110  -13.4880 C.3   104  GLY104      0.2014
    141  C         28.8150   17.6480  -14.4250 C.2   104  GLY104      0.2639
    142  O         28.5220   18.3690  -15.3690 O.2   104  GLY104     -0.2714
    143  N         30.0550   17.3830  -14.1070 N.am  105  THR105     -0.1950
    144  CA        31.1750   17.8670  -14.8960 C.3   105  THR105      0.1897
    145  C         32.2050   16.7220  -15.0720 C.2   105  THR105      0.2313
    146  O         32.2500   15.7400  -14.3270 O.2   105  THR105     -0.2863
    147  CB        31.9090   19.0500  -14.2600 C.3   105  THR105      0.1794
    148  OG1       32.6270   18.6440  -13.0680 O.3   105  THR105     -0.2208
    149  CG2       30.9240   20.2260  -14.0140 C.3   105  THR105      0.0378
    150  N         34.6180   24.3220  -11.3250 N.3   112  LYS112     -0.1231
    151  CA        33.5640   25.2550  -11.7220 C.3   112  LYS112      0.1693
    152  C         32.1890   24.5880  -11.7540 C.2   112  LYS112      0.2592
    153  O         31.2610   25.0030  -12.4740 O.2   112  LYS112     -0.2718
    154  CB        33.9350   25.9460  -13.0230 C.3   112  LYS112      0.0285
    155  CG        34.1630   25.0280  -14.1670 C.3   112  LYS112      0.0035
    156  CD        34.3930   25.8820  -15.4070 C.3   112  LYS112      0.0206
    157  CE        34.8160   24.9830  -16.5290 C.3   112  LYS112      0.1093
    158  NZ        34.9590   25.7090  -17.8190 N.3   112  LYS112     -0.1314
    159  N         32.0330   23.5130  -10.9530 N.am  113  SER113     -0.1952
    160  CA        30.7550   22.7530  -10.9560 C.3   113  SER113      0.1924
    161  C         29.6150   23.3650  -10.1520 C.2   113  SER113      0.2314
    162  O         28.4530   22.9770  -10.3410 O.2   113  SER113     -0.2863
    163  CB        30.9920   21.3130  -10.4480 C.3   113  SER113      0.2116
    164  OG        31.3260   21.3890   -9.0760 O.3   113  SER113     -0.2180
    165  N         27.3880   26.4180   -8.3380 N.3   115  LEU115     -0.1245
    166  CA        26.9060   27.7820   -8.0940 C.3   115  LEU115      0.1561
    167  C         26.3210   27.8770   -6.6630 C.2   115  LEU115      0.2260
    168  O         25.7760   26.8940   -6.0960 O.2   115  LEU115     -0.2867
    169  CB        25.8100   28.1540   -9.0720 C.3   115  LEU115      0.0270
    170  CG        26.3070   28.3530  -10.4960 C.3   115  LEU115      0.0019
    171  CD1       25.0990   28.3130  -11.4320 C.3   115  LEU115      0.0001
    172  CD2       27.0910   29.6210  -10.6710 C.3   115  LEU115      0.0001
    173  N         17.7710   32.4600   -1.9320 N.3   119  ASP119     -0.1239
    174  CA        16.3680   32.6990   -2.2620 C.3   119  ASP119      0.1674
    175  C         15.5570   32.9480   -1.0130 C.2   119  ASP119      0.2266
    176  O         15.6930   32.2460   -0.0180 O.2   119  ASP119     -0.2867
    177  CB        15.7700   31.5050   -2.9530 C.3   119  ASP119      0.1410
    178  CG        16.2920   31.2180   -4.3560 C.2   119  ASP119      0.3668
    179  OD1       17.0240   32.0360   -4.9540 O.co2 119  ASP119     -0.2456
    180  OD2       15.9860   30.1080   -4.8710 O.co2 119  ASP119     -0.2456
@<TRIPOS>BOND
     1    58    57    2
     2    59    57   am
     3    57    56    1
     4    56    53    1
     5    53    54    1
     6    53    52    1
     7   158   157    1
     8    63    62    2
     9    51    50    2
    10    60    54   am
    11    60    61    1
    12    62    61    1
    13    54    55    2
    14    79    80    1
    15    80    83    1
    16    80    81    1
    17    50    52   am
    18    50    49    1
    19    61    64    1
    20   157   156    1
    21    81    82    2
    22    49    48    1
    23    48    43   am
    24   156   155    1
    25   142   141    2
    26    68    67    2
    27   145   144    1
    28   145   146    2
    29    43    42    1
    30    43    44    2
    31   144   147    1
    32   144   143    1
    33    42    41    1
    34    42    45    1
    35   141   143   am
    36   141   140    1
    37   147   149    1
    38   147   148    1
    39   155   154    1
    40    38    37    2
    41    67    66    1
    42    45    46    1
    43    45    47    1
    44   140   139    1
    45   138   137    1
    46   137   134    1
    47    89    88    1
    48    84    85    1
    49   139   135   am
    50    69    66    1
    51    69    70    1
    52   154   151    1
    53    37    36    1
    54    66    65    1
    55    88    85    1
    56   153   152    2
    57   135   134    1
    58   135   136    2
    59   134   133    1
    60    85    86    1
    61    75    72   ar
    62    75    77   ar
    63    39    40    1
    64    39    36    1
    65    70    72   ar
    66    70    71   ar
    67    36    35    1
    68   152   151    1
    69   152   159   am
    70   151   150    1
    71    72    74   ar
    72   171   170    1
    73    77    78   ar
    74    87    86    2
    75    12    11    2
    76    71    73   ar
    77   160   159    1
    78   160   163    1
    79   160   161    1
    80   172   170    1
    81   170   169    1
    82   163   164    1
    83   132   130    1
    84    74    73   ar
    85    74    76   ar
    86   162   161    2
    87   131   130    1
    88    26    25    2
    89    78    76   ar
    90   130   129    1
    91    11    10    1
    92    16    14    1
    93    22    21    1
    94    13    10    1
    95    13    14    1
    96    25    24    1
    97    17    18    1
    98    10     9    1
    99   169   166    1
   100    18    21    1
   101    18    19    1
   102    15    14    1
   103   128   127    2
   104   129   126    1
   105   165   166    1
   106   127   126    1
   107    29    31   ar
   108    29    28   ar
   109   166   167    1
   110    19    20    2
   111    95    94    1
   112    24    23    1
   113    24    27    1
   114    31    33   ar
   115   126   125    1
   116    27    28    1
   117   124   123   ar
   118   124   122   ar
   119    90    91    1
   120    28    30   ar
   121     7     6    2
   122   123   121   ar
   123   122   120   ar
   124    94    91    1
   125    94    96    1
   126   167   168    2
   127    33    34    1
   128    33    32   ar
   129    91    92    1
   130     4     3    2
   131   110   108   ar
   132   110   109   ar
   133     8     6   am
   134     6     5    1
   135    30    32   ar
   136   121   118   ar
   137   120   118   ar
   138   120   119   ar
   139   108   106   ar
   140     3     2    1
   141   118   116   ar
   142   109   107   ar
   143    92    93    2
   144   179   178   ar
   145   180   178   ar
   146   119   117   ar
   147     1     2    1
   148     5     2    1
   149   178   177    1
   150   106   105   ar
   151   106   104   ar
   152   116   117   ar
   153   116   115    1
   154   107   104   ar
   155   105   103   ar
   156   104   102   ar
   157   115   112    1
   158   114   113    2
   159   177   174    1
   160   113   112    1
   161   103   102   ar
   162   174   173    1
   163   174   175    1
   164   102   101    1
   165   112   111    1
   166    97    98    1
   167   175   176    2
   168   101    98    1
   169    98    99    1
   170    99   100    2
