@<TRIPOS>MOLECULE
tmp/6ao8A00.pdb
 145 139 0 0 0
SMALL
GASTEIGER

@<TRIPOS>ATOM
      1  N         -0.1090   -7.3560    8.3540 N.3   118  ASP118     -0.1239
      2  CA         0.7070   -6.1860    8.0630 C.3   118  ASP118      0.1674
      3  C          0.1020   -5.0170    8.8410 C.2   118  ASP118      0.2266
      4  O         -1.0260   -4.5960    8.5540 O.2   118  ASP118     -0.2867
      5  CB         0.6570   -5.9910    6.5440 C.3   118  ASP118      0.1410
      6  CG         1.4910   -4.8030    6.0150 C.2   118  ASP118      0.3668
      7  OD1        1.4600   -3.6710    6.5670 O.co2 118  ASP118     -0.2456
      8  OD2        2.1590   -5.0120    4.9750 O.co2 118  ASP118     -0.2456
      9  N          0.9110   -1.3460   11.6740 N.3   120  SER120     -0.1202
     10  CA         1.7690   -0.2330   12.0950 C.3   120  SER120      0.2020
     11  C          2.4480    0.3490   10.8570 C.2   120  SER120      0.2619
     12  O          1.9870    1.3630   10.3330 O.2   120  SER120     -0.2717
     13  CB         2.8080   -0.6280   13.1530 C.3   120  SER120      0.2103
     14  OG         3.4220    0.5350   13.7080 O.3   120  SER120     -0.2182
     15  N          3.5120   -0.3050   10.3890 N.am  121  SER121     -0.1938
     16  CA         4.1380   -0.0120    9.1000 C.3   121  SER121      0.2040
     17  C          4.3640    1.4780    8.7920 C.2   121  SER121      0.2485
     18  O          4.0030    1.9580    7.7270 O.2   121  SER121     -0.2729
     19  CB         3.3180   -0.6610    7.9910 C.3   121  SER121      0.2129
     20  OG         3.2190   -2.0650    8.1920 O.3   121  SER121     -0.2179
     21  N          5.0560    2.2040    9.6880 N.am  122  PRO122     -0.2715
     22  CA         5.2850    3.6360    9.4480 C.3   122  PRO122      0.1536
     23  C          6.3040    3.9030    8.3400 C.2   122  PRO122      0.2598
     24  O          7.2150    3.1120    8.0970 O.2   122  PRO122     -0.2715
     25  CB         5.8200    4.1320   10.7910 C.3   122  PRO122      0.0310
     26  CG         6.5320    2.9320   11.3470 C.3   122  PRO122      0.0237
     27  CD         5.6420    1.7670   10.9690 C.3   122  PRO122      0.0939
     28  N          6.1620    5.0690    7.7110 N.am  123  ASN123     -0.1973
     29  CA         7.2160    5.6120    6.8510 C.3   123  ASN123      0.1688
     30  C          8.3370    6.1540    7.7330 C.2   123  ASN123      0.2292
     31  O          8.1010    7.0060    8.5960 O.2   123  ASN123     -0.2864
     32  CB         6.6570    6.7190    5.9550 C.3   123  ASN123      0.1181
     33  CG         6.0030    6.1780    4.6730 C.2   123  ASN123      0.2629
     34  OD1        6.0760    4.9780    4.3790 O.2   123  ASN123     -0.2716
     35  ND2        5.3820    7.0690    3.8990 N.am  123  ASN123     -0.0877
     36  N         -0.7150    5.7010   11.7950 N.3   132  HIS132     -0.1241
     37  CA         0.0740    4.5480   12.2010 C.3   132  HIS132      0.1621
     38  C         -0.3040    4.1070   13.6060 C.2   132  HIS132      0.2264
     39  O         -0.2650    2.9080   13.8950 O.2   132  HIS132     -0.2867
     40  CB         1.5690    4.8530   12.1330 C.3   132  HIS132      0.0745
     41  CG         2.0110    5.3440   10.7800 C.ar  132  HIS132      0.0817
     42  ND1        2.6430    6.5560   10.6130 N.ar  132  HIS132     -0.2268
     43  CD2        1.8980    4.7940    9.5420 C.ar  132  HIS132      0.1154
     44  CE1        2.9000    6.7380    9.3220 C.ar  132  HIS132      0.1986
     45  NE2        2.4420    5.6940    8.6520 N.ar  132  HIS132     -0.2212
     46  N          5.7750   -3.3960    7.8920 N.3   158  HIS158     -0.1241
     47  CA         6.1890   -3.0610    6.5150 C.3   158  HIS158      0.1621
     48  C          6.6840   -1.6100    6.4690 C.2   158  HIS158      0.2264
     49  O          6.0510   -0.7170    5.8960 O.2   158  HIS158     -0.2867
     50  CB         4.9930   -3.3070    5.6030 C.3   158  HIS158      0.0745
     51  CG         5.2630   -3.2060    4.1270 C.ar  158  HIS158      0.0817
     52  ND1        5.7420   -4.2660    3.3920 N.ar  158  HIS158     -0.2268
     53  CD2        5.0080   -2.2130    3.2450 C.ar  158  HIS158      0.1154
     54  CE1        5.8190   -3.9150    2.1130 C.ar  158  HIS158      0.1986
     55  NE2        5.3660   -2.6770    1.9940 N.ar  158  HIS158     -0.2212
     56  N          8.4430    1.9210    5.7980 N.3   160  GLY160     -0.1225
     57  CA         8.8280    2.6480    4.5880 C.3   160  GLY160      0.1811
     58  C         10.2400    3.1600    4.7400 C.2   160  GLY160      0.2280
     59  O         10.4780    4.2420    5.2990 O.2   160  GLY160     -0.2866
     60  N         10.2310   -2.0840    3.2070 N.3   257  GLU257     -0.1245
     61  CA        10.0980   -2.0850    1.7360 C.3   257  GLU257      0.1567
     62  C         11.3880   -2.4270    1.0190 C.2   257  GLU257      0.2260
     63  O         11.3350   -3.0320   -0.0610 O.2   257  GLU257     -0.2867
     64  CB         9.5930   -0.7330    1.2510 C.3   257  GLU257      0.0388
     65  CG         8.1290   -0.4700    1.6270 C.3   257  GLU257      0.1160
     66  CD         7.5810    0.7980    1.0050 C.2   257  GLU257      0.3649
     67  OE1        8.1790    1.2960    0.0260 O.co2 257  GLU257     -0.2457
     68  OE2        6.5540    1.3050    1.4820 O.co2 257  GLU257     -0.2457
     69  N          5.2390    2.3170   -5.1110 N.3   309  TYR309     -0.1241
     70  CA         4.5430    1.6120   -4.0350 C.3   309  TYR309      0.1605
     71  C          3.8850    0.3260   -4.5400 C.2   309  TYR309      0.2264
     72  O          4.0060   -0.7320   -3.9160 O.2   309  TYR309     -0.2867
     73  CB         3.5110    2.5750   -3.4690 C.3   309  TYR309      0.0534
     74  CG         2.9040    2.2760   -2.1020 C.ar  309  TYR309     -0.0201
     75  CD1        3.6950    1.9180   -1.0100 C.ar  309  TYR309     -0.0009
     76  CD2        1.5370    2.4280   -1.9110 C.ar  309  TYR309     -0.0009
     77  CE1        3.1080    1.6870    0.2680 C.ar  309  TYR309      0.0417
     78  CE2        0.9420    2.2060   -0.6250 C.ar  309  TYR309      0.0417
     79  CZ         1.7390    1.8350    0.4250 C.ar  309  TYR309      0.1957
     80  OH         1.1430    1.6300    1.6630 O.3   309  TYR309     -0.2866
     81  N          4.5480   -3.6440   -3.3050 N.3   313  ASP313     -0.1239
     82  CA         3.5260   -4.4910   -2.6870 C.3   313  ASP313      0.1674
     83  C          3.2480   -5.7380   -3.5230 C.2   313  ASP313      0.2266
     84  O          2.8880   -6.7800   -2.9670 O.2   313  ASP313     -0.2867
     85  CB         2.2390   -3.7070   -2.4410 C.3   313  ASP313      0.1410
     86  CG         2.1540   -3.1750   -0.9970 C.2   313  ASP313      0.3668
     87  OD1        2.4970   -3.9160   -0.0280 O.co2 313  ASP313     -0.2456
     88  OD2        1.7310   -2.0240   -0.8470 O.co2 313  ASP313     -0.2456
     89  N          4.9540  -13.2570    0.4950 N.3   320  ARG320     -0.1245
     90  CA         4.1440  -13.7340    1.6220 C.3   320  ARG320      0.1563
     91  C          3.3810  -15.0020    1.2600 C.2   320  ARG320      0.2260
     92  O          3.2210  -15.9020    2.1010 O.2   320  ARG320     -0.2867
     93  CB         3.1870  -12.6290    2.0920 C.3   320  ARG320      0.0307
     94  CG         3.9310  -11.4800    2.7360 C.3   320  ARG320      0.0489
     95  CD         3.0200  -10.3400    3.1740 C.3   320  ARG320      0.2205
     96  NE         3.8120   -9.3070    3.8630 N.pl3 320  ARG320     -0.0865
     97  CZ         3.3600   -8.0860    4.1590 C.cat 320  ARG320      0.5346
     98  NH1        2.1040   -7.7330    3.8730 N.pl3 320  ARG320      0.1354
     99  NH2        4.1750   -7.2100    4.7390 N.pl3 320  ARG320      0.1354
    100  N         -4.1150   -6.6630    5.6240 N.3   331  TYR331     -0.1227
    101  CA        -3.3920   -5.3890    5.5600 C.3   331  TYR331      0.1736
    102  C         -4.1850   -4.3520    6.3490 C.2   331  TYR331      0.2595
    103  O         -5.2700   -3.9520    5.9160 O.2   331  TYR331     -0.2718
    104  CB        -3.2090   -4.9300    4.1150 C.3   331  TYR331      0.0548
    105  CG        -2.3240   -5.8080    3.2650 C.ar  331  TYR331     -0.0200
    106  CD1       -2.8270   -6.9660    2.6720 C.ar  331  TYR331     -0.0009
    107  CD2       -0.9960   -5.4590    3.0230 C.ar  331  TYR331     -0.0009
    108  CE1       -2.0250   -7.7720    1.8710 C.ar  331  TYR331      0.0417
    109  CE2       -0.1830   -6.2570    2.1980 C.ar  331  TYR331      0.0417
    110  CZ        -0.7060   -7.4060    1.6430 C.ar  331  TYR331      0.1957
    111  OH         0.1010   -8.1750    0.8200 O.3   331  TYR331     -0.2866
    112  N         -3.6790   -3.9600    7.5250 N.am  332  VAL332     -0.1966
    113  CA        -4.3740   -3.0080    8.3940 C.3   332  VAL332      0.1727
    114  C         -3.8520   -1.6210    8.0570 C.2   332  VAL332      0.2616
    115  O         -2.7540   -1.2310    8.4890 O.2   332  VAL332     -0.2715
    116  CB        -4.1740   -3.3480    9.8720 C.3   332  VAL332      0.0290
    117  CG1       -5.0500   -2.4070   10.7260 C.3   332  VAL332      0.0023
    118  CG2       -4.5240   -4.8330   10.1270 C.3   332  VAL332      0.0023
    119  N         -4.6290   -0.8780    7.2520 N.am  333  VAL333     -0.1977
    120  CA        -4.1220    0.3190    6.5840 C.3   333  VAL333      0.1596
    121  C         -5.2050    1.3850    6.5360 C.2   333  VAL333      0.2287
    122  O         -6.4030    1.0860    6.4560 O.2   333  VAL333     -0.2864
    123  CB        -3.6160   -0.0040    5.1460 C.3   333  VAL333      0.0276
    124  CG1       -2.9690    1.2330    4.5330 C.3   333  VAL333      0.0022
    125  CG2       -2.5930   -1.1350    5.1600 C.3   333  VAL333      0.0022
    126  N         -6.2030    4.2030    1.2800 N.3   337  GLN337     -0.1245
    127  CA        -5.4310    3.3390    0.3810 C.3   337  GLN337      0.1566
    128  C         -6.2380    2.1510   -0.1540 C.2   337  GLN337      0.2260
    129  O         -5.6540    1.2260   -0.7300 O.2   337  GLN337     -0.2867
    130  CB        -4.1520    2.8410    1.0780 C.3   337  GLN337      0.0367
    131  CG        -3.2690    3.9650    1.6090 C.3   337  GLN337      0.0905
    132  CD        -1.9170    3.4940    2.1390 C.2   337  GLN337      0.2608
    133  OE1       -1.3770    2.4740    1.6890 O.2   337  GLN337     -0.2717
    134  NE2       -1.3620    4.2390    3.1150 N.am  337  GLN337     -0.0878
    135  N         -5.0220   -1.3060   -2.6490 N.3   341  PHE341     -0.1241
    136  CA        -5.0230   -2.7280   -2.3300 C.3   341  PHE341      0.1605
    137  C         -6.0080   -3.5280   -3.1710 C.2   341  PHE341      0.2264
    138  O         -5.7430   -4.6990   -3.4560 O.2   341  PHE341     -0.2867
    139  CB        -5.2750   -2.8980   -0.8140 C.3   341  PHE341      0.0534
    140  CG        -4.0780   -2.5140   -0.0160 C.ar  341  PHE341     -0.0203
    141  CD1       -3.0060   -3.3900    0.1080 C.ar  341  PHE341     -0.0042
    142  CD2       -3.9470   -1.2210    0.4890 C.ar  341  PHE341     -0.0042
    143  CE1       -1.8420   -2.9990    0.7930 C.ar  341  PHE341     -0.0003
    144  CE2       -2.8000   -0.8320    1.1650 C.ar  341  PHE341     -0.0003
    145  CZ        -1.7540   -1.7210    1.3240 C.ar  341  PHE341     -0.0000
@<TRIPOS>BOND
     1    69    70    1
     2    71    70    1
     3    71    72    2
     4    70    73    1
     5    83    84    2
     6    83    82    1
     7    73    74    1
     8   138   137    2
     9    81    82    1
    10   137   136    1
    11    82    85    1
    12   135   136    1
    13    85    86    1
    14   136   139    1
    15    74    76   ar
    16    74    75   ar
    17    76    78   ar
    18    75    77   ar
    19    86    88   ar
    20    86    87   ar
    21   139   140    1
    22   129   128    2
    23    78    79   ar
    24   128   127    1
    25    63    62    2
    26   140   141   ar
    27   140   142   ar
    28    67    66   ar
    29   141   143   ar
    30    77    79   ar
    31   127   130    1
    32   127   126    1
    33    79    80    1
    34   142   144   ar
    35    89    90    1
    36   143   145   ar
    37   111   110    1
    38    66    68   ar
    39    66    65    1
    40    62    61    1
    41   130   131    1
    42   144   145   ar
    43    64    65    1
    44    64    61    1
    45    91    90    1
    46    91    92    2
    47   131   132    1
    48    90    93    1
    49   110   108   ar
    50   110   109   ar
    51   133   132    2
    52    61    60    1
    53   108   106   ar
    54    55    54   ar
    55    55    53   ar
    56    93    94    1
    57    54    52   ar
    58   132   134   am
    59   109   107   ar
    60   106   105   ar
    61    94    95    1
    62   107   105   ar
    63    95    96    1
    64    53    51   ar
    65   105   104    1
    66    52    51   ar
    67    96    97    2
    68    98    97    1
    69    35    33   am
    70   104   101    1
    71    51    50    1
    72    97    99    1
    73    34    33    2
    74   124   123    1
    75    57    58    1
    76    57    56    1
    77    33    32    1
    78    58    59    2
    79     8     6   ar
    80   123   125    1
    81   123   120    1
    82   101   100    1
    83   101   102    1
    84    50    47    1
    85    49    48    2
    86   103   102    2
    87    32    29    1
    88     6     5    1
    89     6     7   ar
    90   102   112   am
    91   122   121    2
    92    48    47    1
    93    47    46    1
    94   121   120    1
    95     5     2    1
    96   120   119    1
    97    29    28    1
    98    29    30    1
    99   119   114   am
   100   112   113    1
   101    28    23   am
   102    18    17    2
   103    30    31    2
   104    19    20    1
   105    19    16    1
   106   114   113    1
   107   114   115    2
   108     2     1    1
   109     2     3    1
   110    24    23    2
   111    23    22    1
   112   113   116    1
   113     4     3    2
   114    45    44   ar
   115    45    43   ar
   116    17    16    1
   117    17    21   am
   118    16    15    1
   119    44    42   ar
   120    22    21    1
   121    22    25    1
   122    43    41   ar
   123    21    27    1
   124   116   118    1
   125   116   117    1
   126    12    11    2
   127    15    11   am
   128    42    41   ar
   129    41    40    1
   130    25    26    1
   131    11    10    1
   132    27    26    1
   133     9    10    1
   134    36    37    1
   135    10    13    1
   136    40    37    1
   137    37    38    1
   138    13    14    1
   139    38    39    2
