@<TRIPOS>MOLECULE
tmp/6aocB02.pdb
 108 104 0 0 0
SMALL
GASTEIGER

@<TRIPOS>ATOM
      1  N         -0.4020   -5.0300   18.6130 N.3    66  LYS66      -0.1231
      2  CA        -1.6420   -4.9730   19.3630 C.3    66  LYS66       0.1693
      3  C         -1.3510   -5.1490   20.8460 C.2    66  LYS66       0.2591
      4  O         -0.2270   -5.5260   21.2510 O.2    66  LYS66      -0.2718
      5  CB        -2.5980   -6.0510   18.8820 C.3    66  LYS66       0.0285
      6  CG        -3.3650   -5.6650   17.6470 C.3    66  LYS66       0.0035
      7  CD        -2.9020   -6.4160   16.4170 C.3    66  LYS66       0.0206
      8  CE        -3.8340   -6.1620   15.2620 C.3    66  LYS66       0.1093
      9  NZ        -5.2800   -6.2590   15.6620 N.3    66  LYS66      -0.1314
     10  N         -2.3690   -4.8400   21.6700 N.am   67  LYS67      -0.1980
     11  CA        -2.2240   -5.0000   23.1200 C.3    67  LYS67       0.1596
     12  C         -1.8400   -6.4440   23.4310 C.2    67  LYS67       0.2287
     13  O         -2.4720   -7.3880   22.9370 O.2    67  LYS67      -0.2864
     14  CB        -3.5170   -4.6580   23.8480 C.3    67  LYS67       0.0298
     15  CG        -3.8590   -3.1190   23.9020 C.3    67  LYS67       0.0038
     16  CD        -5.0940   -2.9100   24.7980 C.3    67  LYS67       0.0206
     17  CE        -5.5250   -1.4260   24.8660 C.3    67  LYS67       0.1093
     18  NZ        -4.4080   -0.6080   25.3440 N.3    67  LYS67      -0.1314
     19  N        -13.9060   -8.2120   19.4040 N.3   109  VAL109     -0.1245
     20  CA       -13.3900   -7.6710   18.1550 C.3   109  VAL109      0.1561
     21  C        -12.3120   -8.6200   17.6410 C.2   109  VAL109      0.2260
     22  O        -11.3370   -8.9080   18.3550 O.2   109  VAL109     -0.2867
     23  CB       -12.8430   -6.2490   18.3420 C.3   109  VAL109      0.0252
     24  CG1      -12.5680   -5.6090   16.9810 C.3   109  VAL109      0.0019
     25  CG2      -13.8590   -5.4030   19.1220 C.3   109  VAL109      0.0019
     26  N        -11.8550   -5.0390   11.0870 N.3   187  ASP187     -0.1239
     27  CA       -12.3330   -5.6670   12.3160 C.3   187  ASP187      0.1674
     28  C        -13.7270   -6.2570   12.1370 C.2   187  ASP187      0.2266
     29  O        -14.5970   -5.6680   11.4860 O.2   187  ASP187     -0.2867
     30  CB       -12.4250   -4.6540   13.4540 C.3   187  ASP187      0.1410
     31  CG       -11.0870   -4.0120   13.7870 C.2   187  ASP187      0.3668
     32  OD1      -10.0340   -4.5920   13.4540 O.co2 187  ASP187     -0.2456
     33  OD2      -11.1240   -2.9390   14.4100 O.co2 187  ASP187     -0.2456
     34  N        -16.8390   -7.1860   14.6850 N.3   189  TYR189     -0.1241
     35  CA       -17.4090   -7.0140   16.0230 C.3   189  TYR189      0.1605
     36  C        -18.5160   -8.0390   16.1920 C.2   189  TYR189      0.2264
     37  O        -19.4520   -8.0480   15.3990 O.2   189  TYR189     -0.2867
     38  CB       -17.9850   -5.6020   16.2060 C.3   189  TYR189      0.0534
     39  CG       -16.9190   -4.5630   16.1760 C.ar  189  TYR189     -0.0201
     40  CD1      -16.3780   -4.1430   14.9740 C.ar  189  TYR189     -0.0009
     41  CD2      -16.4350   -4.0130   17.3580 C.ar  189  TYR189     -0.0009
     42  CE1      -15.3430   -3.2080   14.9440 C.ar  189  TYR189      0.0417
     43  CE2      -15.4130   -3.0790   17.3360 C.ar  189  TYR189      0.0417
     44  CZ       -14.8800   -2.6910   16.1180 C.ar  189  TYR189      0.1957
     45  OH       -13.8700   -1.7680   16.0820 O.3   189  TYR189     -0.2866
     46  N        -10.2390   -9.4120   21.5260 N.3   229  TYR229     -0.1241
     47  CA       -10.3330   -8.2620   22.4200 C.3   229  TYR229      0.1605
     48  C        -11.7970   -8.0600   22.7880 C.2   229  TYR229      0.2264
     49  O        -12.6330   -7.8870   21.8980 O.2   229  TYR229     -0.2867
     50  CB        -9.7650   -7.0050   21.7570 C.3   229  TYR229      0.0534
     51  CG        -9.5760   -5.8390   22.7010 C.ar  229  TYR229     -0.0201
     52  CD1       -8.5640   -5.8520   23.6510 C.ar  229  TYR229     -0.0009
     53  CD2      -10.4020   -4.7210   22.6370 C.ar  229  TYR229     -0.0009
     54  CE1       -8.3780   -4.7870   24.5170 C.ar  229  TYR229      0.0417
     55  CE2      -10.2240   -3.6490   23.5050 C.ar  229  TYR229      0.0417
     56  CZ        -9.2070   -3.6910   24.4380 C.ar  229  TYR229      0.1957
     57  OH        -9.0170   -2.6330   25.3040 O.3   229  TYR229     -0.2866
     58  N         -8.0430    5.8870   21.1520 N.3   370  GLN370     -0.1245
     59  CA        -8.4180    4.5420   20.7410 C.3   370  GLN370      0.1566
     60  C         -9.7260    4.1000   21.3780 C.2   370  GLN370      0.2260
     61  O        -10.5680    3.4770   20.7090 O.2   370  GLN370     -0.2867
     62  CB        -7.3160    3.5270   21.0800 C.3   370  GLN370      0.0367
     63  CG        -6.0630    3.6510   20.2640 C.3   370  GLN370      0.0905
     64  CD        -4.9150    2.6610   20.7450 C.2   370  GLN370      0.2608
     65  OE1       -3.8040    2.7210   20.2360 O.2   370  GLN370     -0.2717
     66  NE2       -5.2040    1.7850   21.7360 N.am  370  GLN370     -0.0878
     67  N        -13.2280    3.2430   19.4060 N.3   374  THR374     -0.1218
     68  CA       -13.9040    1.9730   19.5430 C.3   374  THR374      0.1862
     69  C        -15.3550    2.1820   19.9380 C.2   374  THR374      0.2287
     70  O        -16.2720    1.5460   19.3740 O.2   374  THR374     -0.2866
     71  CB       -13.1880    1.1170   20.5590 C.3   374  THR374      0.1770
     72  OG1      -11.8910    0.8100   20.0400 O.3   374  THR374     -0.2211
     73  CG2      -13.9720   -0.1420   20.8350 C.3   374  THR374      0.0375
     74  N         -2.1630    1.0300   18.8010 N.3   404  GLN404     -0.1231
     75  CA        -2.4280   -0.3970   18.8470 C.3   404  GLN404      0.1698
     76  C         -3.6490   -0.8350   18.0420 C.2   404  GLN404      0.2592
     77  O         -4.0430   -2.0080   18.1260 O.2   404  GLN404     -0.2718
     78  CB        -2.6110   -0.8600   20.2890 C.3   404  GLN404      0.0381
     79  CG        -1.3410   -0.6350   21.1700 C.3   404  GLN404      0.0905
     80  CD        -1.6390   -0.7650   22.6220 C.2   404  GLN404      0.2608
     81  OE1       -2.6080   -0.2100   23.1060 O.2   404  GLN404     -0.2717
     82  NE2       -0.7900   -1.5320   23.3620 N.am  404  GLN404     -0.0878
     83  N         -4.2250    0.0510   17.2630 N.am  405  ALA405     -0.1966
     84  CA        -5.4070   -0.2400   16.4560 C.3   405  ALA405      0.1728
     85  C         -5.0330   -0.3690   14.9850 C.2   405  ALA405      0.2617
     86  O         -3.9840    0.1120   14.5400 O.2   405  ALA405     -0.2715
     87  CB        -6.4460    0.8880   16.6160 C.3   405  ALA405      0.0334
     88  N         -5.8980   -1.0450   14.2240 N.am  406  THR406     -0.1937
     89  CA        -5.6730   -1.2410   12.7910 C.3   406  THR406      0.2028
     90  C         -6.3890   -0.2070   11.9320 C.2   406  THR406      0.2642
     91  O         -6.1700   -0.1750   10.7200 O.2   406  THR406     -0.2714
     92  CB        -6.1020   -2.6480   12.3670 C.3   406  THR406      0.1808
     93  OG1       -7.4920   -2.7860   12.5580 O.3   406  THR406     -0.2208
     94  CG2       -5.3770   -3.6830   13.2110 C.3   406  THR406      0.0379
     95  N         -7.1840    0.6640   12.5490 N.am  407  TRP407     -0.1973
     96  CA        -7.7200    1.8810   11.9430 C.3   407  TRP407      0.1640
     97  C         -6.9540    3.0920   12.4760 C.2   407  TRP407      0.2290
     98  O         -6.1540    3.0050   13.4260 O.2   407  TRP407     -0.2864
     99  CB        -9.2300    2.0010   12.1820 C.3   407  TRP407      0.0576
    100  CG        -9.7140    1.3980   13.4440 C.ar  407  TRP407      0.0006
    101  CD1      -10.4360    0.2210   13.5970 C.ar  407  TRP407      0.0946
    102  CD2       -9.5540    1.9420   14.7530 C.ar  407  TRP407      0.0152
    103  NE1      -10.7150    0.0200   14.9120 N.ar  407  TRP407     -0.2442
    104  CE2      -10.1680    1.0500   15.6420 C.ar  407  TRP407      0.0810
    105  CE3       -8.9250    3.0980   15.2670 C.ar  407  TRP407      0.0012
    106  CZ2      -10.2010    1.2750   16.9980 C.ar  407  TRP407      0.0191
    107  CZ3       -8.9290    3.2880   16.6240 C.ar  407  TRP407      0.0001
    108  CH2       -9.5610    2.3890   17.4700 C.ar  407  TRP407      0.0015
@<TRIPOS>BOND
     1    91    90    2
     2    26    27    1
     3    29    28    2
     4    90    95   am
     5    90    89    1
     6    96    99    1
     7    96    97    1
     8    96    95    1
     9    28    27    1
    10    99   100    1
    11    27    30    1
    12    92    93    1
    13    92    89    1
    14    92    94    1
    15    97    98    2
    16    89    88    1
    17   100   101   ar
    18   100   102   ar
    19    32    31   ar
    20    30    31    1
    21   101   103   ar
    22    31    33   ar
    23    88    85   am
    24    86    85    2
    25    34    35    1
    26   102   105   ar
    27   102   104   ar
    28   103   104   ar
    29    42    40   ar
    30    42    44   ar
    31    40    39   ar
    32    85    84    1
    33     8     9    1
    34     8     7    1
    35   105   107   ar
    36    37    36    2
    37   104   106   ar
    38    35    36    1
    39    35    38    1
    40    45    44    1
    41    44    43   ar
    42    39    38    1
    43    39    41   ar
    44     7     6    1
    45    84    87    1
    46    84    83    1
    47   107   108   ar
    48    24    23    1
    49   106   108   ar
    50    83    76   am
    51    43    41   ar
    52    21    20    1
    53    21    22    2
    54     6     5    1
    55    76    77    2
    56    76    75    1
    57    20    23    1
    58    20    19    1
    59    23    25    1
    60     1     2    1
    61    74    75    1
    62    75    78    1
    63     5     2    1
    64     2     3    1
    65    70    69    2
    66    67    68    1
    67    68    69    1
    68    68    71    1
    69    72    71    1
    70    65    64    2
    71    63    64    1
    72    63    62    1
    73    78    79    1
    74    71    73    1
    75    61    60    2
    76    59    62    1
    77    59    58    1
    78    59    60    1
    79    64    66   am
    80     3     4    2
    81     3    10   am
    82    79    80    1
    83    46    47    1
    84    10    11    1
    85    50    47    1
    86    50    51    1
    87    49    48    2
    88    47    48    1
    89    80    81    2
    90    80    82   am
    91    53    51   ar
    92    53    55   ar
    93    51    52   ar
    94    13    12    2
    95    11    12    1
    96    11    14    1
    97    55    56   ar
    98    52    54   ar
    99    14    15    1
   100    15    16    1
   101    56    54   ar
   102    56    57    1
   103    16    17    1
   104    17    18    1
