@<TRIPOS>MOLECULE
tmp/6aocB03.pdb
 108 106 0 0 0
SMALL
GASTEIGER

@<TRIPOS>ATOM
      1  N        -21.7040   -0.8140    3.8730 N.3    95  ILE95      -0.1231
      2  CA       -21.9590   -1.7490    4.9670 C.3    95  ILE95       0.1678
      3  C        -22.7970   -1.0360    6.0330 C.2    95  ILE95       0.2434
      4  O        -22.3260   -0.0460    6.6080 O.2    95  ILE95      -0.2733
      5  CB       -20.6490   -2.2920    5.5590 C.3    95  ILE95       0.0265
      6  CG1      -19.8760   -3.0740    4.4850 C.3    95  ILE95       0.0019
      7  CG2      -20.9270   -3.1760    6.7670 C.3    95  ILE95       0.0020
      8  CD1      -18.6130   -3.7590    4.9790 C.3    95  ILE95       0.0001
      9  N        -24.0070   -1.5070    6.3440 N.am   96  PRO96      -0.2718
     10  CA       -24.8640   -0.8360    7.3300 C.3    96  PRO96       0.1535
     11  C        -24.6040   -1.2880    8.7580 C.2    96  PRO96       0.2599
     12  O        -24.2080   -2.4190    9.0150 O.2    96  PRO96      -0.2715
     13  CB       -26.2750   -1.2540    6.8940 C.3    96  PRO96       0.0310
     14  CG       -26.0940   -2.6170    6.3500 C.3    96  PRO96       0.0237
     15  CD       -24.7040   -2.6510    5.7270 C.3    96  PRO96       0.0939
     16  N        -24.8480   -0.3440    9.7300 N.am   97  HIS97      -0.1960
     17  CA       -24.4660   -0.5380   11.1320 C.3    97  HIS97       0.1772
     18  C        -25.6510   -1.0070   11.9420 C.2    97  HIS97       0.2462
     19  O        -26.7310   -0.4300   11.7990 O.2    97  HIS97      -0.2730
     20  CB       -23.9290    0.7710   11.7220 C.3    97  HIS97       0.0785
     21  CG       -23.6940    0.7090   13.1950 C.ar   97  HIS97       0.0821
     22  ND1      -22.5250    0.2110   13.7440 N.ar   97  HIS97      -0.2267
     23  CD2      -24.4690    1.0690   14.2390 C.ar   97  HIS97       0.1154
     24  CE1      -22.6050    0.2550   15.0630 C.ar   97  HIS97       0.1986
     25  NE2      -23.7630    0.7910   15.3870 N.ar   97  HIS97      -0.2212
     26  N        -25.4950   -2.0360   12.8060 N.am   98  PRO98      -0.2727
     27  CA       -26.6050   -2.4780   13.6500 C.3    98  PRO98       0.1402
     28  C        -26.7300   -1.7590   14.9780 C.2    98  PRO98       0.2269
     29  O        -25.8090   -1.7840   15.8060 O.2    98  PRO98      -0.2865
     30  CB       -26.2760   -3.9470   13.8860 C.3    98  PRO98       0.0296
     31  CG       -24.8000   -3.9720   13.8760 C.3    98  PRO98       0.0237
     32  CD       -24.3690   -2.9970   12.8730 C.3    98  PRO98       0.0939
     33  N        -17.7140  -12.2830    2.7580 N.3   165  MET165     -0.1230
     34  CA       -17.9420  -12.3830    4.1940 C.3   165  MET165      0.1702
     35  C        -19.3570  -12.8770    4.4870 C.2   165  MET165      0.2593
     36  O        -19.5670  -13.6990    5.3950 O.2   165  MET165     -0.2718
     37  CB       -17.7080  -11.0060    4.8400 C.3   165  MET165      0.0401
     38  CG       -17.7580  -11.0610    6.3390 C.3   165  MET165      0.0596
     39  SD       -16.4260  -12.0400    7.0120 S.3   165  MET165     -0.1393
     40  CE       -15.1070  -10.8170    6.9770 C.3   165  MET165      0.0692
     41  N        -20.3170  -12.4360    3.6900 N.am  166  THR166     -0.1953
     42  CA       -21.7080  -12.8520    3.8740 C.3   166  THR166      0.1897
     43  C        -21.8570  -14.3660    3.6990 C.2   166  THR166      0.2313
     44  O        -22.4480  -15.0410    4.5520 O.2   166  THR166     -0.2863
     45  CB       -22.6100  -12.0730    2.9060 C.3   166  THR166      0.1794
     46  OG1      -22.6120  -10.6900    3.2730 O.3   166  THR166     -0.2208
     47  CG2      -24.0660  -12.5670    2.9420 C.3   166  THR166      0.0378
     48  N        -20.1470  -16.1520    6.7290 N.3   169  LEU169     -0.1245
     49  CA       -20.8360  -16.0690    8.0090 C.3   169  LEU169      0.1561
     50  C        -22.2430  -16.6590    7.9750 C.2   169  LEU169      0.2260
     51  O        -22.8080  -16.9190    9.0410 O.2   169  LEU169     -0.2867
     52  CB       -20.9290  -14.6100    8.4640 C.3   169  LEU169      0.0270
     53  CG       -19.6220  -13.8470    8.7080 C.3   169  LEU169      0.0019
     54  CD1      -19.9200  -12.3920    9.0430 C.3   169  LEU169      0.0001
     55  CD2      -18.8180  -14.4840    9.8030 C.3   169  LEU169      0.0001
     56  N        -24.5140  -17.4170   11.3370 N.3   173  LYS173     -0.1245
     57  CA       -25.6270  -16.5410   11.6830 C.3   173  LYS173      0.1561
     58  C        -26.9390  -17.3160   11.7340 C.2   173  LYS173      0.2260
     59  O        -27.7790  -17.0720   12.6050 O.2   173  LYS173     -0.2867
     60  CB       -25.7190  -15.3900   10.6810 C.3   173  LYS173      0.0271
     61  CG       -24.7330  -14.2490   10.9430 C.3   173  LYS173      0.0035
     62  CD       -24.4540  -13.4510    9.6740 C.3   173  LYS173      0.0206
     63  CE       -25.7000  -12.7760    9.1340 C.3   173  LYS173      0.1093
     64  NZ       -25.5160  -12.3360    7.7280 N.3   173  LYS173     -0.1314
     65  N        -24.9740  -10.5730   17.1150 N.3   180  VAL180     -0.1231
     66  CA       -24.8950   -9.4210   16.2290 C.3   180  VAL180      0.1692
     67  C        -23.4690   -9.3150   15.7240 C.2   180  VAL180      0.2592
     68  O        -22.5220   -9.3230   16.5150 O.2   180  VAL180     -0.2718
     69  CB       -25.3180   -8.1360   16.9590 C.3   180  VAL180      0.0266
     70  CG1      -25.2550   -6.9560   16.0190 C.3   180  VAL180      0.0020
     71  CG2      -26.7000   -8.3120   17.5510 C.3   180  VAL180      0.0020
     72  N        -23.3080   -9.1870   14.4160 N.am  181  ILE181     -0.1966
     73  CA       -21.9840   -9.0980   13.8280 C.3   181  ILE181      0.1727
     74  C        -21.9070   -7.8230   13.0050 C.2   181  ILE181      0.2616
     75  O        -22.8160   -7.5200   12.2250 O.2   181  ILE181     -0.2715
     76  CB       -21.6530  -10.3350   12.9820 C.3   181  ILE181      0.0290
     77  CG1      -21.7020  -11.5740   13.8830 C.3   181  ILE181      0.0022
     78  CG2      -20.2540  -10.2130   12.3950 C.3   181  ILE181      0.0023
     79  CD1      -21.6360  -12.9030   13.1120 C.3   181  ILE181      0.0001
     80  N        -20.8500   -7.0450   13.2250 N.am  182  TYR182     -0.1960
     81  CA       -20.6340   -5.8300   12.4550 C.3   182  TYR182      0.1771
     82  C        -19.1960   -5.8000   11.9660 C.2   182  TYR182      0.2619
     83  O        -18.2750   -6.0200   12.7420 O.2   182  TYR182     -0.2715
     84  CB       -20.9300   -4.5580   13.2770 C.3   182  TYR182      0.0574
     85  CG       -20.6520   -3.2500   12.5470 C.ar  182  TYR182     -0.0198
     86  CD1      -21.3340   -2.9270   11.3950 C.ar  182  TYR182     -0.0009
     87  CD2      -19.7390   -2.3200   13.0430 C.ar  182  TYR182     -0.0009
     88  CE1      -21.1110   -1.7490   10.7240 C.ar  182  TYR182      0.0417
     89  CE2      -19.5070   -1.0970   12.3710 C.ar  182  TYR182      0.0417
     90  CZ       -20.2000   -0.8220   11.2220 C.ar  182  TYR182      0.1957
     91  OH       -20.0330    0.3540   10.5280 O.3   182  TYR182     -0.2866
     92  N        -19.0210   -5.5130   10.6950 N.am  183  GLN183     -0.1977
     93  CA       -17.7040   -5.3950   10.1100 C.3   183  GLN183      0.1601
     94  C        -17.3890   -3.9110    9.9320 C.2   183  GLN183      0.2287
     95  O        -18.1740   -3.1630    9.3380 O.2   183  GLN183     -0.2864
     96  CB       -17.6700   -6.1230    8.7830 C.3   183  GLN183      0.0394
     97  CG       -16.3440   -6.1630    8.0830 C.3   183  GLN183      0.0908
     98  CD       -16.4240   -6.9040    6.7620 C.2   183  GLN183      0.2608
     99  OE1      -17.5200   -7.2380    6.2660 O.2   183  GLN183     -0.2717
    100  NE2      -15.2740   -7.1590    6.1770 N.am  183  GLN183     -0.0878
    101  N        -13.9480   -7.3750   12.8140 N.3   188  LEU188     -0.1245
    102  CA       -15.2620   -7.9690   12.9890 C.3   188  LEU188      0.1561
    103  C        -15.6770   -7.8040   14.4480 C.2   188  LEU188      0.2260
    104  O        -14.9490   -8.2260   15.3460 O.2   188  LEU188     -0.2867
    105  CB       -15.2150   -9.4510   12.6170 C.3   188  LEU188      0.0270
    106  CG       -16.4700  -10.0130   11.9740 C.3   188  LEU188      0.0019
    107  CD1      -16.8160   -9.3170   10.6380 C.3   188  LEU188      0.0001
    108  CD2      -16.3010  -11.5270   11.7800 C.3   188  LEU188      0.0001
@<TRIPOS>BOND
     1    33    34    1
     2    45    47    1
     3    45    46    1
     4    45    42    1
     5    41    42    1
     6    41    35   am
     7    43    42    1
     8    43    44    2
     9     1     2    1
    10    34    35    1
    11    34    37    1
    12     6     8    1
    13     6     5    1
    14    35    36    2
    15    37    38    1
    16     2     5    1
    17     2     3    1
    18     5     7    1
    19    15     9    1
    20    15    14    1
    21     3     9   am
    22     3     4    2
    23   100    98   am
    24    99    98    2
    25    38    39    1
    26     9    10    1
    27    14    13    1
    28    48    49    1
    29    98    97    1
    30    13    10    1
    31    40    39    1
    32    10    11    1
    33    64    63    1
    34    50    49    1
    35    50    51    2
    36    49    52    1
    37    97    96    1
    38    52    53    1
    39    53    54    1
    40    53    55    1
    41    11    12    2
    42    11    16   am
    43    96    93    1
    44    63    62    1
    45    95    94    2
    46    62    61    1
    47    16    17    1
    48    94    93    1
    49    93    92    1
    50    91    90    1
    51   107   106    1
    52    60    61    1
    53    60    57    1
    54    92    82   am
    55    88    90   ar
    56    88    86   ar
    57    17    20    1
    58    17    18    1
    59    90    89   ar
    60    56    57    1
    61    86    85   ar
    62    57    58    1
    63    20    21    1
    64    58    59    2
    65   108   106    1
    66    19    18    2
    67    18    26   am
    68    82    81    1
    69    82    83    2
    70   106   105    1
    71    75    74    2
    72    89    87   ar
    73    78    76    1
    74    81    80    1
    75    81    84    1
    76    85    87   ar
    77    85    84    1
    78   105   102    1
    79    26    32    1
    80    26    27    1
    81   101   102    1
    82    32    31    1
    83    76    73    1
    84    76    77    1
    85   102   103    1
    86    74    80   am
    87    74    73    1
    88    79    77    1
    89    21    22   ar
    90    21    23   ar
    91    27    30    1
    92    27    28    1
    93    22    24   ar
    94    73    72    1
    95    31    30    1
    96    23    25   ar
    97    72    67   am
    98   103   104    2
    99    28    29    2
   100    24    25   ar
   101    67    66    1
   102    67    68    2
   103    70    69    1
   104    66    69    1
   105    66    65    1
   106    69    71    1
