@<TRIPOS>MOLECULE
tmp/6aocD00.pdb
 129 128 0 0 0
SMALL
GASTEIGER

@<TRIPOS>ATOM
      1  N        -31.1820   62.1960  -31.2150 N.3    71  LEU71      -0.1231
      2  CA       -32.3150   61.2980  -31.3780 C.3    71  LEU71       0.1693
      3  C        -32.1040   60.1310  -30.4250 C.2    71  LEU71       0.2592
      4  O        -31.1260   59.3930  -30.5510 O.2    71  LEU71      -0.2718
      5  CB       -32.4510   60.8330  -32.8220 C.3    71  LEU71       0.0284
      6  CG       -33.6460   59.9110  -33.0890 C.3    71  LEU71       0.0019
      7  CD1      -34.8890   60.4610  -32.4650 C.3    71  LEU71       0.0001
      8  CD2      -33.8840   59.7820  -34.5630 C.3    71  LEU71       0.0001
      9  N        -32.9530   60.0210  -29.4250 N.am   72  VAL72      -0.1966
     10  CA       -32.9140   58.8780  -28.5280 C.3    72  VAL72       0.1727
     11  C        -33.8980   57.8450  -29.0540 C.2    72  VAL72       0.2616
     12  O        -35.0390   58.1850  -29.3720 O.2    72  VAL72      -0.2715
     13  CB       -33.2580   59.2880  -27.0940 C.3    72  VAL72       0.0290
     14  CG1      -33.0960   58.0630  -26.1230 C.3    72  VAL72       0.0023
     15  CG2      -32.3580   60.4590  -26.6580 C.3    72  VAL72       0.0023
     16  N        -33.4590   56.5830  -29.1430 N.am   73  ASP73      -0.1957
     17  CA       -34.2750   55.4710  -29.6560 C.3    73  ASP73       0.1840
     18  C        -35.0260   54.8030  -28.5070 C.2    73  ASP73       0.2622
     19  O        -34.6360   53.7610  -27.9610 O.2    73  ASP73      -0.2715
     20  CB       -33.4200   54.4500  -30.3940 C.3    73  ASP73       0.1450
     21  CG       -34.2620   53.2620  -30.9600 C.2    73  ASP73       0.3671
     22  OD1      -35.5160   53.2750  -30.8490 O.co2  73  ASP73      -0.2456
     23  OD2      -33.6560   52.2980  -31.4620 O.co2  73  ASP73      -0.2456
     24  N        -36.1330   55.4310  -28.1380 N.am   74  PHE74      -0.1960
     25  CA       -37.0070   54.9660  -27.0720 C.3    74  PHE74       0.1771
     26  C        -37.9670   53.8500  -27.4890 C.2    74  PHE74       0.2619
     27  O        -38.9590   53.6230  -26.7890 O.2    74  PHE74      -0.2715
     28  CB       -37.8140   56.1420  -26.5230 C.3    74  PHE74       0.0574
     29  CG       -37.0290   57.0410  -25.6020 C.ar   74  PHE74      -0.0200
     30  CD1      -36.4120   56.5070  -24.4630 C.ar   74  PHE74      -0.0042
     31  CD2      -36.9100   58.3900  -25.8580 C.ar   74  PHE74      -0.0042
     32  CE1      -35.7110   57.3310  -23.5870 C.ar   74  PHE74      -0.0003
     33  CE2      -36.2250   59.2180  -24.9950 C.ar   74  PHE74      -0.0003
     34  CZ       -35.6130   58.6930  -23.8560 C.ar   74  PHE74      -0.0000
     35  N        -37.7190   53.1220  -28.5630 N.am   75  ARG75      -0.1977
     36  CA       -38.7010   52.1150  -28.9790 C.3    75  ARG75       0.1597
     37  C        -38.9290   51.0660  -27.8750 C.2    75  ARG75       0.2287
     38  O        -40.0710   50.6680  -27.6080 O.2    75  ARG75      -0.2864
     39  CB       -38.2490   51.4760  -30.2920 C.3    75  ARG75       0.0334
     40  CG       -38.6040   52.3350  -31.4960 C.3    75  ARG75       0.0492
     41  CD       -38.0890   51.7520  -32.7880 C.3    75  ARG75       0.2205
     42  NE       -36.6450   51.6460  -32.7550 N.pl3  75  ARG75      -0.0865
     43  CZ       -35.9220   50.9770  -33.6440 C.cat  75  ARG75       0.5346
     44  NH1      -36.5150   50.3410  -34.6520 N.pl3  75  ARG75       0.1354
     45  NH2      -34.6020   50.9650  -33.5260 N.pl3  75  ARG75       0.1354
     46  N        -40.8190   52.6320  -25.0520 N.3    78  ASN78      -0.1240
     47  CA       -42.2030   52.8880  -25.4300 C.3    78  ASN78       0.1653
     48  C        -43.0480   51.6120  -25.3080 C.2    78  ASN78       0.2266
     49  O        -44.2040   51.6590  -24.8700 O.2    78  ASN78      -0.2867
     50  CB       -42.2430   53.4490  -26.8470 C.3    78  ASN78       0.1155
     51  CG       -41.7630   54.9200  -26.9310 C.2    78  ASN78       0.2627
     52  OD1      -41.6780   55.6170  -25.9200 O.2    78  ASN78      -0.2716
     53  ND2      -41.4700   55.3840  -28.1430 N.am   78  ASN78      -0.0877
     54  N        -39.5130   61.8210  -28.2760 N.3   149  GLY149     -0.1225
     55  CA       -39.4960   60.4500  -28.7720 C.3   149  GLY149      0.1811
     56  C        -40.1070   59.4170  -27.8470 C.2   149  GLY149      0.2280
     57  O        -40.3180   58.2710  -28.2740 O.2   149  GLY149     -0.2866
     58  N        -48.3780   64.0290  -33.8060 N.3   180  TYR180     -0.1227
     59  CA       -47.8640   62.6740  -33.6740 C.3   180  TYR180      0.1736
     60  C        -46.4500   62.7500  -33.1110 C.2   180  TYR180      0.2595
     61  O        -45.5440   63.2710  -33.7680 O.2   180  TYR180     -0.2718
     62  CB       -47.8760   61.9250  -35.0010 C.3   180  TYR180      0.0548
     63  CG       -47.3840   60.5320  -34.7820 C.ar  180  TYR180     -0.0200
     64  CD1      -48.2360   59.5450  -34.2710 C.ar  180  TYR180     -0.0009
     65  CD2      -46.0560   60.2060  -35.0340 C.ar  180  TYR180     -0.0009
     66  CE1      -47.7830   58.2630  -34.0570 C.ar  180  TYR180      0.0417
     67  CE2      -45.5830   58.9430  -34.7950 C.ar  180  TYR180      0.0417
     68  CZ       -46.4570   57.9740  -34.3240 C.ar  180  TYR180      0.1957
     69  OH       -45.9720   56.7190  -34.0960 O.3   180  TYR180     -0.2866
     70  N        -46.2860   62.2580  -31.8900 N.am  181  MET181     -0.1979
     71  CA       -45.0000   62.3210  -31.2020 C.3   181  MET181      0.1605
     72  C        -44.4430   63.7420  -31.2470 C.2   181  MET181      0.2287
     73  O        -45.0630   64.6460  -30.7070 O.2   181  MET181     -0.2864
     74  CB       -44.0380   61.3020  -31.8110 C.3   181  MET181      0.0413
     75  CG       -44.6080   59.8780  -31.8140 C.3   181  MET181      0.0598
     76  SD       -44.9170   59.1350  -30.1810 S.3   181  MET181     -0.1393
     77  CE       -43.2690   58.6690  -29.7160 C.3   181  MET181      0.0692
     78  N        -47.7530   54.4860  -36.9540 N.3   374  THR374     -0.1218
     79  CA       -46.6810   53.9720  -37.7800 C.3   374  THR374      0.1862
     80  C        -46.8030   52.4740  -37.9610 C.2   374  THR374      0.2287
     81  O        -47.2760   51.7490  -37.0580 O.2   374  THR374     -0.2866
     82  CB       -45.3120   54.3010  -37.1810 C.3   374  THR374      0.1770
     83  OG1      -45.1640   53.6350  -35.9280 O.3   374  THR374     -0.2211
     84  CG2      -45.1920   55.7820  -36.9350 C.3   374  THR374      0.0375
     85  N        -37.7340   62.2910  -36.6120 N.3   397  THR397     -0.1203
     86  CA       -37.5950   62.2800  -35.1660 C.3   397  THR397      0.1994
     87  C        -38.3370   61.1270  -34.5220 C.2   397  THR397      0.2618
     88  O        -38.2250   60.9170  -33.3110 O.2   397  THR397     -0.2717
     89  CB       -38.1090   63.6140  -34.5730 C.3   397  THR397      0.1784
     90  OG1      -39.5020   63.7450  -34.9000 O.3   397  THR397     -0.2211
     91  CG2      -37.3360   64.7700  -35.1610 C.3   397  THR397      0.0376
     92  N        -39.0710   60.3660  -35.2990 N.am  398  TRP398     -0.1961
     93  CA       -39.6200   59.1000  -34.8580 C.3   398  TRP398      0.1771
     94  C        -38.8200   57.9510  -35.4820 C.2   398  TRP398      0.2619
     95  O        -38.0250   58.1300  -36.4070 O.2   398  TRP398     -0.2715
     96  CB       -41.1240   58.9980  -35.2230 C.3   398  TRP398      0.0590
     97  CG       -41.5620   59.6970  -36.5180 C.ar  398  TRP398      0.0006
     98  CD1      -42.2940   60.8450  -36.6210 C.ar  398  TRP398      0.0946
     99  CD2      -41.2800   59.2750  -37.8520 C.ar  398  TRP398      0.0152
    100  NE1      -42.5080   61.1530  -37.9520 N.ar  398  TRP398     -0.2442
    101  CE2      -41.8920   60.2010  -38.7240 C.ar  398  TRP398      0.0810
    102  CE3      -40.5940   58.1800  -38.3970 C.ar  398  TRP398      0.0012
    103  CZ2      -41.8160   60.0890  -40.1020 C.ar  398  TRP398      0.0191
    104  CZ3      -40.5170   58.0630  -39.7960 C.ar  398  TRP398      0.0001
    105  CH2      -41.1400   59.0300  -40.6260 C.ar  398  TRP398      0.0015
    106  N        -39.0330   56.7460  -34.9670 N.am  399  ILE399     -0.1964
    107  CA       -38.4060   55.5470  -35.5320 C.3   399  ILE399      0.1712
    108  C        -39.4210   54.4270  -35.4410 C.2   399  ILE399      0.2458
    109  O        -39.8290   54.0600  -34.3300 O.2   399  ILE399     -0.2730
    110  CB       -37.1380   55.1320  -34.7720 C.3   399  ILE399      0.0289
    111  CG1      -36.1820   56.3080  -34.5760 C.3   399  ILE399      0.0022
    112  CG2      -36.4340   54.0110  -35.5180 C.3   399  ILE399      0.0023
    113  CD1      -35.0740   55.9890  -33.5470 C.3   399  ILE399      0.0001
    114  N        -39.8560   53.8590  -36.5400 N.am  400  PRO400     -0.2716
    115  CA       -40.8350   52.7770  -36.4590 C.3   400  PRO400      0.1536
    116  C        -40.1630   51.4750  -36.0700 C.2   400  PRO400      0.2598
    117  O        -38.9420   51.3460  -36.0750 O.2   400  PRO400     -0.2715
    118  CB       -41.3780   52.7010  -37.9010 C.3   400  PRO400      0.0310
    119  CG       -40.2000   53.0600  -38.7250 C.3   400  PRO400      0.0237
    120  CD       -39.4420   54.1180  -37.9320 C.3   400  PRO400      0.0939
    121  N        -41.0020   50.5060  -35.7160 N.am  401  GLU401     -0.1978
    122  CA       -40.5090   49.1740  -35.4320 C.3   401  GLU401      0.1602
    123  C        -40.2550   48.4480  -36.7430 C.2   401  GLU401      0.2287
    124  O        -40.9190   48.6990  -37.7600 O.2   401  GLU401     -0.2864
    125  CB       -41.5040   48.3750  -34.5880 C.3   401  GLU401      0.0415
    126  CG       -41.8230   49.0160  -33.2510 C.3   401  GLU401      0.1163
    127  CD       -42.6910   48.1430  -32.3860 C.2   401  GLU401      0.3649
    128  OE1      -42.3850   46.9410  -32.2550 O.co2 401  GLU401     -0.2457
    129  OE2      -43.6830   48.6580  -31.8400 O.co2 401  GLU401     -0.2457
@<TRIPOS>BOND
     1   105   103   ar
     2   105   104   ar
     3   103   101   ar
     4   104   102   ar
     5   119   120    1
     6   119   118    1
     7   101   100   ar
     8   101    99   ar
     9   102    99   ar
    10    80    79    1
    11    80    81    2
    12   100    98   ar
    13   120   114    1
    14   118   115    1
    15    99    97   ar
    16    79    82    1
    17    79    78    1
    18   124   123    2
    19    82    84    1
    20    82    83    1
    21   123   122    1
    22    98    97   ar
    23    85    86    1
    24   114   115    1
    25   114   108   am
    26    97    96    1
    27   115   116    1
    28    95    94    2
    29   117   116    2
    30   116   121   am
    31   121   122    1
    32   107   108    1
    33   107   106    1
    34   107   110    1
    35   112   110    1
    36    94   106   am
    37    94    93    1
    38   108   109    2
    39   122   125    1
    40    92    93    1
    41    92    87   am
    42    96    93    1
    43    86    89    1
    44    86    87    1
    45    91    89    1
    46    65    67   ar
    47    65    63   ar
    48    62    63    1
    49    62    59    1
    50    90    89    1
    51    67    68   ar
    52    63    64   ar
    53   110   111    1
    54    44    43    1
    55   125   126    1
    56   111   113    1
    57     8     6    1
    58    87    88    2
    59    68    69    1
    60    68    66   ar
    61    64    66   ar
    62    58    59    1
    63    61    60    2
    64    59    60    1
    65    43    45    1
    66    43    42    2
    67   126   127    1
    68    60    70   am
    69     6     5    1
    70     6     7    1
    71     5     2    1
    72    41    42    1
    73    41    40    1
    74   127   128   ar
    75   127   129   ar
    76    70    71    1
    77    75    74    1
    78    75    76    1
    79    74    71    1
    80    40    39    1
    81    23    21   ar
    82     2     1    1
    83     2     3    1
    84    72    71    1
    85    72    73    2
    86    21    22   ar
    87    21    20    1
    88     4     3    2
    89     3     9   am
    90    20    17    1
    91    39    36    1
    92    76    77    1
    93    17    16    1
    94    17    18    1
    95     9    10    1
    96    12    11    2
    97    16    11   am
    98    11    10    1
    99    36    35    1
   100    36    37    1
   101    55    54    1
   102    55    56    1
   103    35    26   am
   104    10    13    1
   105    18    24   am
   106    18    19    2
   107    57    56    2
   108    53    51   am
   109    24    25    1
   110    37    38    2
   111    26    25    1
   112    26    27    2
   113    13    15    1
   114    13    14    1
   115    25    28    1
   116    51    50    1
   117    51    52    2
   118    50    47    1
   119    28    29    1
   120    31    29   ar
   121    31    33   ar
   122    29    30   ar
   123    47    48    1
   124    47    46    1
   125    48    49    2
   126    33    34   ar
   127    30    32   ar
   128    34    32   ar
