@<TRIPOS>MOLECULE
tmp/6aocB01.pdb
 143 143 0 0 0
SMALL
GASTEIGER

@<TRIPOS>ATOM
      1  N         13.6410   -1.0790   14.3520 N.3    30  GLU30      -0.1231
      2  CA        12.8540   -2.2840   14.5860 C.3    30  GLU30       0.1699
      3  C         11.6510   -2.3330   13.6510 C.2    30  GLU30       0.2592
      4  O         11.2790   -3.4010   13.1750 O.2    30  GLU30      -0.2718
      5  CB        12.3800   -2.3480   16.0400 C.3    30  GLU30       0.0402
      6  CG        11.5390   -1.1350   16.4660 C.3    30  GLU30       0.1161
      7  CD        11.0220   -1.2080   17.9150 C.2    30  GLU30       0.3649
      8  OE1       11.3380   -2.2020   18.6140 O.co2  30  GLU30      -0.2457
      9  OE2       10.2900   -0.2680   18.3400 O.co2  30  GLU30      -0.2457
     10  N         11.0470   -1.1820   13.3680 N.am   31  LYS31      -0.1980
     11  CA         9.8790   -1.1910   12.4840 C.3    31  LYS31       0.1596
     12  C         10.2870   -1.3700   11.0260 C.2    31  LYS31       0.2287
     13  O          9.5940   -2.0750   10.2690 O.2    31  LYS31      -0.2864
     14  CB         9.0610    0.0840   12.6870 C.3    31  LYS31       0.0298
     15  CG         8.5050    0.1730   14.0970 C.3    31  LYS31       0.0038
     16  CD         7.4160    1.2120   14.2210 C.3    31  LYS31       0.0206
     17  CE         6.5750    0.9620   15.4570 C.3    31  LYS31       0.1093
     18  NZ         5.5280    2.0100   15.6700 N.3    31  LYS31      -0.1314
     19  N          2.7660   -1.8110   14.0120 N.3    64  ILE64      -0.1231
     20  CA         2.2420   -1.6790   15.3720 C.3    64  ILE64       0.1692
     21  C          2.2930   -3.0640   16.0150 C.2    64  ILE64       0.2592
     22  O          2.4720   -4.0830   15.3510 O.2    64  ILE64      -0.2718
     23  CB         0.7800   -1.1500   15.3950 C.3    64  ILE64       0.0266
     24  CG1       -0.1230   -2.1090   14.6600 C.3    64  ILE64       0.0019
     25  CG2        0.7570    0.2800   14.8340 C.3    64  ILE64       0.0020
     26  CD1       -1.4810   -2.1720   15.2320 C.3    64  ILE64       0.0001
     27  N          2.1170   -3.0930   17.3260 N.am   65  LYS65      -0.1966
     28  CA         1.8470   -4.3260   18.0550 C.3    65  LYS65       0.1728
     29  C          0.5450   -4.1140   18.8010 C.2    65  LYS65       0.2616
     30  O          0.3950   -3.1110   19.4930 O.2    65  LYS65      -0.2715
     31  CB         2.9650   -4.6750   19.0440 C.3    65  LYS65       0.0311
     32  CG         4.2330   -5.1320   18.3910 C.3    65  LYS65       0.0038
     33  CD         5.3150   -5.3800   19.4210 C.3    65  LYS65       0.0206
     34  CE         6.4380   -6.2110   18.8120 C.3    65  LYS65       0.1093
     35  NZ         7.7030   -6.0470   19.5650 N.3    65  LYS65      -0.1314
     36  N         -0.4020   -5.0300   18.6130 N.am   66  LYS66      -0.1963
     37  CA        -1.6420   -4.9730   19.3630 C.3    66  LYS66       0.1728
     38  C         -1.3510   -5.1490   20.8460 C.2    66  LYS66       0.2616
     39  O         -0.2270   -5.5260   21.2510 O.2    66  LYS66      -0.2715
     40  CB        -2.5980   -6.0510   18.8820 C.3    66  LYS66       0.0311
     41  CG        -3.3650   -5.6650   17.6470 C.3    66  LYS66       0.0038
     42  CD        -2.9020   -6.4160   16.4170 C.3    66  LYS66       0.0206
     43  CE        -3.8340   -6.1620   15.2620 C.3    66  LYS66       0.1093
     44  NZ        -5.2800   -6.2590   15.6620 N.3    66  LYS66      -0.1314
     45  N         -2.3690   -4.8400   21.6700 N.am   67  LYS67      -0.1963
     46  CA        -2.2240   -5.0000   23.1200 C.3    67  LYS67       0.1728
     47  C         -1.8400   -6.4440   23.4310 C.2    67  LYS67       0.2616
     48  O         -2.4720   -7.3880   22.9370 O.2    67  LYS67      -0.2715
     49  CB        -3.5170   -4.6580   23.8480 C.3    67  LYS67       0.0311
     50  CG        -3.8590   -3.1190   23.9020 C.3    67  LYS67       0.0038
     51  CD        -5.0940   -2.9100   24.7980 C.3    67  LYS67       0.0206
     52  CE        -5.5250   -1.4260   24.8660 C.3    67  LYS67       0.1093
     53  NZ        -4.4080   -0.6080   25.3440 N.3    67  LYS67      -0.1314
     54  N         -0.7990   -6.6110   24.2330 N.am   68  ASP68      -0.1957
     55  CA        -0.3130   -7.9280   24.6740 C.3    68  ASP68       0.1840
     56  C          0.1890   -8.7870   23.5240 C.2    68  ASP68       0.2622
     57  O          0.3460  -10.0200   23.6780 O.2    68  ASP68      -0.2715
     58  CB        -1.3800   -8.7040   25.4600 C.3    68  ASP68       0.1450
     59  CG        -1.6560   -8.0760   26.8280 C.2    68  ASP68       0.3671
     60  OD1       -0.9160   -7.1360   27.2160 O.co2  68  ASP68      -0.2456
     61  OD2       -2.6090   -8.5300   27.4990 O.co2  68  ASP68      -0.2456
     62  N          0.4760   -8.1920   22.3750 N.am   69  SER69      -0.1950
     63  CA         1.0370   -8.9520   21.2680 C.3    69  SER69       0.1924
     64  C          2.5190   -8.6530   21.0990 C.2    69  SER69       0.2314
     65  O          2.9650   -7.5090   21.2280 O.2    69  SER69      -0.2863
     66  CB         0.2890   -8.6600   19.9680 C.3    69  SER69       0.2116
     67  OG         0.9090   -9.2970   18.8630 O.3    69  SER69      -0.2180
     68  N          4.7540   -8.0230   15.1980 N.3    72  TRP72      -0.1241
     69  CA         4.5510   -6.7790   14.4640 C.3    72  TRP72       0.1605
     70  C          3.4640   -6.9810   13.4360 C.2    72  TRP72       0.2264
     71  O          3.3360   -8.0570   12.8440 O.2    72  TRP72      -0.2867
     72  CB         5.8570   -6.3330   13.7770 C.3    72  TRP72       0.0550
     73  CG         6.8830   -5.7550   14.6890 C.ar   72  TRP72       0.0003
     74  CD1        8.0760   -6.3250   15.0790 C.ar   72  TRP72       0.0946
     75  CD2        6.8260   -4.4860   15.3300 C.ar   72  TRP72       0.0152
     76  NE1        8.7380   -5.4820   15.9130 N.ar   72  TRP72      -0.2442
     77  CE2        8.0020   -4.3400   16.0810 C.ar   72  TRP72       0.0810
     78  CE3        5.8950   -3.4540   15.3430 C.ar   72  TRP72       0.0012
     79  CZ2        8.2500   -3.2110   16.8350 C.ar   72  TRP72       0.0191
     80  CZ3        6.1410   -2.3690   16.0790 C.ar   72  TRP72       0.0001
     81  CH2        7.3210   -2.2290   16.8050 C.ar   72  TRP72       0.0015
     82  N         -3.1180    3.2340   30.7190 N.3   355  ARG355     -0.1245
     83  CA        -1.6770    3.1180   30.5530 C.3   355  ARG355      0.1563
     84  C         -1.0760    4.5010   30.3890 C.2   355  ARG355      0.2260
     85  O         -1.6250    5.3680   29.7030 O.2   355  ARG355     -0.2867
     86  CB        -1.3660    2.2100   29.3590 C.3   355  ARG355      0.0307
     87  CG        -1.9420    2.6920   28.0400 C.3   355  ARG355      0.0489
     88  CD        -1.4790    1.8800   26.8500 C.3   355  ARG355      0.2205
     89  NE        -2.2030    2.3200   25.6470 N.pl3 355  ARG355     -0.0865
     90  CZ        -1.6670    2.4150   24.4290 C.cat 355  ARG355      0.5346
     91  NH1       -0.3900    2.1000   24.2130 N.pl3 355  ARG355      0.1354
     92  NH2       -2.4140    2.8320   23.4150 N.pl3 355  ARG355      0.1354
     93  N          2.8520    7.1020   17.0740 N.3   400  THR400     -0.1203
     94  CA         2.9400    5.7770   16.4650 C.3   400  THR400      0.1994
     95  C          3.6140    4.7970   17.4000 C.2   400  THR400      0.2618
     96  O          3.4730    3.5840   17.2100 O.2   400  THR400     -0.2717
     97  CB         3.6620    5.8010   15.0960 C.3   400  THR400      0.1784
     98  OG1        5.0540    6.1490   15.2480 O.3   400  THR400     -0.2211
     99  CG2        2.9900    6.7730   14.1130 C.3   400  THR400      0.0376
    100  N          4.3180    5.2920   18.4230 N.am  401  GLU401     -0.1965
    101  CA         4.9000    4.3920   19.4080 C.3   401  GLU401      0.1733
    102  C          3.8710    3.7280   20.2770 C.2   401  GLU401      0.2616
    103  O          4.1390    2.6600   20.8380 O.2   401  GLU401     -0.2715
    104  CB         5.8720    5.1610   20.2960 C.3   401  GLU401      0.0429
    105  CG         7.1110    5.5260   19.5720 C.3   401  GLU401      0.1163
    106  CD         7.8950    4.2670   19.1440 C.2   401  GLU401      0.3649
    107  OE1        8.1430    3.4160   20.0250 O.co2 401  GLU401     -0.2457
    108  OE2        8.2160    4.1200   17.9510 O.co2 401  GLU401     -0.2457
    109  N          2.6930    4.3110   20.3740 N.am  402  TYR402     -0.1960
    110  CA         1.6670    3.8310   21.2770 C.3   402  TYR402      0.1771
    111  C          0.4370    3.3080   20.5680 C.2   402  TYR402      0.2620
    112  O         -0.4420    2.7610   21.2480 O.2   402  TYR402     -0.2715
    113  CB         1.2340    4.9570   22.2400 C.3   402  TYR402      0.0574
    114  CG         2.4480    5.6090   22.8930 C.ar  402  TYR402     -0.0198
    115  CD1        3.3220    4.8300   23.6250 C.ar  402  TYR402     -0.0009
    116  CD2        2.7100    6.9740   22.7800 C.ar  402  TYR402     -0.0009
    117  CE1        4.4580    5.3460   24.1660 C.ar  402  TYR402      0.0417
    118  CE2        3.8750    7.5220   23.3430 C.ar  402  TYR402      0.0417
    119  CZ         4.7140    6.6990   24.0490 C.ar  402  TYR402      0.1957
    120  OH         5.8340    7.2270   24.6040 O.3   402  TYR402     -0.2866
    121  N          0.3750    3.4260   19.2420 N.am  403  TRP403     -0.1960
    122  CA        -0.8400    3.0440   18.5180 C.3   403  TRP403      0.1771
    123  C         -0.9780    1.5370   18.4540 C.2   403  TRP403      0.2619
    124  O         -0.0520    0.8480   18.0190 O.2   403  TRP403     -0.2715
    125  CB        -0.8030    3.6200   17.1020 C.3   403  TRP403      0.0590
    126  CG        -2.1390    3.6410   16.4720 C.ar  403  TRP403      0.0006
    127  CD1       -2.5890    2.8250   15.5030 C.ar  403  TRP403      0.0946
    128  CD2       -3.2040    4.5320   16.7890 C.ar  403  TRP403      0.0152
    129  NE1       -3.8930    3.1510   15.1800 N.ar  403  TRP403     -0.2442
    130  CE2       -4.3040    4.1690   15.9840 C.ar  403  TRP403      0.0810
    131  CE3       -3.3470    5.5800   17.6950 C.ar  403  TRP403      0.0012
    132  CZ2       -5.5110    4.8590   16.0090 C.ar  403  TRP403      0.0191
    133  CZ3       -4.5670    6.2650   17.7500 C.ar  403  TRP403      0.0001
    134  CH2       -5.6350    5.8970   16.8960 C.ar  403  TRP403      0.0015
    135  N         -2.1630    1.0300   18.8010 N.am  404  GLN404     -0.1977
    136  CA        -2.4280   -0.3970   18.8470 C.3   404  GLN404      0.1601
    137  C         -3.6490   -0.8350   18.0420 C.2   404  GLN404      0.2287
    138  O         -4.0430   -2.0080   18.1260 O.2   404  GLN404     -0.2864
    139  CB        -2.6110   -0.8600   20.2890 C.3   404  GLN404      0.0394
    140  CG        -1.3410   -0.6350   21.1700 C.3   404  GLN404      0.0908
    141  CD        -1.6390   -0.7650   22.6220 C.2   404  GLN404      0.2608
    142  OE1       -2.6080   -0.2100   23.1060 O.2   404  GLN404     -0.2717
    143  NE2       -0.7900   -1.5320   23.3620 N.am  404  GLN404     -0.0878
@<TRIPOS>BOND
     1    13    12    2
     2    12    11    1
     3    11    14    1
     4    11    10    1
     5    14    15    1
     6    71    70    2
     7     4     3    2
     8    10     3   am
     9    70    69    1
    10     3     2    1
    11    72    69    1
    12    72    73    1
    13    19    20    1
    14    15    16    1
    15    99    97    1
    16    16    17    1
    17     1     2    1
    18    69    68    1
    19     2     5    1
    20    24    26    1
    21    24    23    1
    22    73    74   ar
    23    73    75   ar
    24    25    23    1
    25    74    76   ar
    26    97    98    1
    27    97    94    1
    28   129   127   ar
    29   129   130   ar
    30    43    44    1
    31    43    42    1
    32    75    78   ar
    33    75    77   ar
    34    78    80   ar
    35    22    21    2
    36    20    23    1
    37    20    21    1
    38    17    18    1
    39   127   126   ar
    40    76    77   ar
    41   130   132   ar
    42   130   128   ar
    43   132   134   ar
    44    21    27   am
    45     5     6    1
    46    80    81   ar
    47    77    79   ar
    48    42    41    1
    49    94    93    1
    50    94    95    1
    51     6     7    1
    52   126   128   ar
    53   126   125    1
    54   128   131   ar
    55    81    79   ar
    56   134   133   ar
    57   125   122    1
    58    96    95    2
    59    27    28    1
    60    95   100   am
    61    41    40    1
    62   131   133   ar
    63     7     9   ar
    64     7     8   ar
    65   108   106   ar
    66   124   123    2
    67   137   138    2
    68   137   136    1
    69    28    29    1
    70    28    31    1
    71    32    31    1
    72    32    33    1
    73   100   101    1
    74   123   122    1
    75   123   135   am
    76   122   121    1
    77    36    29   am
    78    36    37    1
    79   135   136    1
    80    29    30    2
    81    34    33    1
    82    34    35    1
    83   136   139    1
    84    67    66    1
    85    40    37    1
    86   106   105    1
    87   106   107   ar
    88   121   111   am
    89    37    38    1
    90   101   102    1
    91   101   104    1
    92   105   104    1
    93    66    63    1
    94   102   109   am
    95   102   103    2
    96   139   140    1
    97   109   110    1
    98   111   112    2
    99   111   110    1
   100    38    39    2
   101    38    45   am
   102    64    65    2
   103    64    63    1
   104   140   141    1
   105    63    62    1
   106   110   113    1
   107    45    46    1
   108   113   114    1
   109    62    56   am
   110   141   142    2
   111   141   143   am
   112   116   114   ar
   113   116   118   ar
   114   114   115   ar
   115    48    47    2
   116    46    47    1
   117    46    49    1
   118   118   119   ar
   119    92    90    1
   120    47    54   am
   121    56    57    2
   122    56    55    1
   123   115   117   ar
   124    49    50    1
   125    50    51    1
   126   119   117   ar
   127   119   120    1
   128    91    90    1
   129    54    55    1
   130    90    89    2
   131    55    58    1
   132    51    52    1
   133    52    53    1
   134    58    59    1
   135    89    88    1
   136    59    60   ar
   137    59    61   ar
   138    88    87    1
   139    87    86    1
   140    86    83    1
   141    85    84    2
   142    84    83    1
   143    83    82    1
