@<TRIPOS>MOLECULE
tmp/6aogA03.pdb
 148 143 0 0 0
SMALL
GASTEIGER

@<TRIPOS>ATOM
      1  N         23.8660   96.0110  -74.9810 N.3     6  VAL6       -0.1231
      2  CA        24.9150   95.4240  -74.1600 C.3     6  VAL6        0.1692
      3  C         25.6500   96.5270  -73.3980 C.2     6  VAL6        0.2592
      4  O         26.2160   97.4410  -73.9980 O.2     6  VAL6       -0.2718
      5  CB        25.8460   94.4990  -74.9860 C.3     6  VAL6        0.0266
      6  CG1       26.3660   95.2000  -76.2360 C.3     6  VAL6        0.0020
      7  CG2       26.9810   93.9530  -74.1290 C.3     6  VAL6        0.0020
      8  N         25.5910   96.4520  -72.0690 N.am    7  VAL7       -0.1966
      9  CA        26.0780   97.5250  -71.1990 C.3     7  VAL7        0.1727
     10  C         26.7880   97.0460  -69.9450 C.2     7  VAL7        0.2616
     11  O         26.5350   95.9470  -69.4520 O.2     7  VAL7       -0.2715
     12  CB        24.9450   98.4580  -70.7200 C.3     7  VAL7        0.0290
     13  CG1       25.2570   99.9040  -71.0630 C.3     7  VAL7        0.0023
     14  CG2       23.5820   98.0180  -71.2430 C.3     7  VAL7        0.0023
     15  N         27.6820   97.8930  -69.4430 N.am    8  ALA8       -0.1977
     16  CA        28.2740   97.7310  -68.1230 C.3     8  ALA8        0.1597
     17  C         27.9170   98.9720  -67.2970 C.2     8  ALA8        0.2287
     18  O         28.2020  100.1010  -67.6990 O.2     8  ALA8       -0.2864
     19  CB        29.7770   97.5480  -68.2330 C.3     8  ALA8        0.0319
     20  N         35.9060  104.8700  -69.5640 N.3    21  LEU21      -0.1245
     21  CA        35.2430  103.9910  -68.6020 C.3    21  LEU21       0.1561
     22  C         35.5970  104.3590  -67.1590 C.2    21  LEU21       0.2260
     23  O         36.7690  104.5880  -66.8510 O.2    21  LEU21      -0.2867
     24  CB        35.5740  102.5260  -68.8950 C.3    21  LEU21       0.0270
     25  CG        35.1450  101.9940  -70.2680 C.3    21  LEU21       0.0019
     26  CD1       35.7070  100.6010  -70.5050 C.3    21  LEU21       0.0001
     27  CD2       33.6300  102.0020  -70.4290 C.3    21  LEU21       0.0001
     28  N         35.7150  102.8030  -64.3210 N.3    23  TRP23      -0.1241
     29  CA        36.3900  101.8340  -63.4690 C.3    23  TRP23       0.1605
     30  C         37.7070  101.3550  -64.0830 C.2    23  TRP23       0.2264
     31  O         37.9540  101.5850  -65.2710 O.2    23  TRP23      -0.2867
     32  CB        35.4660  100.6380  -63.2470 C.3    23  TRP23       0.0550
     33  CG        34.7580  100.2310  -64.4930 C.ar   23  TRP23       0.0003
     34  CD1       35.2720   99.5080  -65.5330 C.ar   23  TRP23       0.0946
     35  CD2       33.4070  100.5370  -64.8450 C.ar   23  TRP23       0.0152
     36  NE1       34.3200   99.3390  -66.5090 N.ar   23  TRP23      -0.2442
     37  CE2       33.1660   99.9610  -66.1130 C.ar   23  TRP23       0.0810
     38  CE3       32.3720  101.2360  -64.2110 C.ar   23  TRP23       0.0012
     39  CZ2       31.9350  100.0650  -66.7590 C.ar   23  TRP23       0.0191
     40  CZ3       31.1470  101.3390  -64.8550 C.ar   23  TRP23       0.0001
     41  CH2       30.9400  100.7540  -66.1170 C.ar   23  TRP23       0.0015
     42  N         34.5370   91.0010  -68.0610 N.3    29  ASP29      -0.1225
     43  CA        33.5070   91.7690  -68.7530 C.3    29  ASP29       0.1805
     44  C         33.8820   91.9860  -70.2170 C.2    29  ASP29       0.2597
     45  O         33.0460   91.8270  -71.1070 O.2    29  ASP29      -0.2718
     46  CB        33.2740   93.1150  -68.0620 C.3    29  ASP29       0.1424
     47  CG        32.2850   93.9940  -68.8090 C.2    29  ASP29       0.3668
     48  OD1       31.1510   93.5380  -69.0890 O.co2  29  ASP29      -0.2456
     49  OD2       32.6540   95.1490  -69.1080 O.co2  29  ASP29      -0.2456
     50  N         35.1440   92.3400  -70.4530 N.am   30  PHE30      -0.1976
     51  CA        35.6580   92.5830  -71.8010 C.3    30  PHE30       0.1639
     52  C         35.6340   91.3050  -72.6330 C.2    30  PHE30       0.2290
     53  O         35.4780   91.3480  -73.8540 O.2    30  PHE30      -0.2864
     54  CB        37.0750   93.1640  -71.7330 C.3    30  PHE30       0.0560
     55  CG        37.5380   93.8110  -73.0130 C.ar   30  PHE30      -0.0200
     56  CD1       36.8540   94.8990  -73.5520 C.ar   30  PHE30      -0.0042
     57  CD2       38.6790   93.3500  -73.6670 C.ar   30  PHE30      -0.0042
     58  CE1       37.2850   95.4990  -74.7290 C.ar   30  PHE30      -0.0003
     59  CE2       39.1180   93.9470  -74.8420 C.ar   30  PHE30      -0.0003
     60  CZ        38.4200   95.0230  -75.3730 C.ar   30  PHE30      -0.0000
     61  N         33.2760   88.8140  -71.9270 N.3    32  HIS32      -0.1226
     62  CA        31.8280   88.6900  -72.1080 C.3    32  HIS32       0.1752
     63  C         31.3330   89.5020  -73.3010 C.2    32  HIS32       0.2596
     64  O         30.6160   88.9790  -74.1550 O.2    32  HIS32      -0.2718
     65  CB        31.0920   89.1010  -70.8260 C.3    32  HIS32       0.0759
     66  CG        29.6540   89.4670  -71.0350 C.ar   32  HIS32       0.0818
     67  ND1       28.6360   88.5390  -71.0050 N.ar   32  HIS32      -0.2268
     68  CD2       29.0640   90.6660  -71.2630 C.ar   32  HIS32       0.1154
     69  CE1       27.4810   89.1480  -71.2130 C.ar   32  HIS32       0.1986
     70  NE2       27.7130   90.4390  -71.3730 N.ar   32  HIS32      -0.2212
     71  N         31.7280   90.7730  -73.3560 N.am   33  PHE33      -0.1976
     72  CA        31.3390   91.6580  -74.4500 C.3    33  PHE33       0.1639
     73  C         31.8140   91.1300  -75.8010 C.2    33  PHE33       0.2290
     74  O         31.0430   91.0900  -76.7600 O.2    33  PHE33      -0.2864
     75  CB        31.8650   93.0780  -74.2200 C.3    33  PHE33       0.0560
     76  CG        31.6960   93.9860  -75.4070 C.ar   33  PHE33      -0.0200
     77  CD1       30.4980   94.6600  -75.6170 C.ar   33  PHE33      -0.0042
     78  CD2       32.7340   94.1620  -76.3200 C.ar   33  PHE33      -0.0042
     79  CE1       30.3360   95.4920  -76.7120 C.ar   33  PHE33      -0.0003
     80  CE2       32.5780   94.9930  -77.4190 C.ar   33  PHE33      -0.0003
     81  CZ        31.3780   95.6600  -77.6140 C.ar   33  PHE33      -0.0000
     82  N         31.3760  107.1400  -78.2710 N.3    54  THR54      -0.1218
     83  CA        31.7120  105.7500  -77.9330 C.3    54  THR54       0.1862
     84  C         32.8050  105.2210  -78.8630 C.2    54  THR54       0.2287
     85  O         33.6940  104.4780  -78.4370 O.2    54  THR54      -0.2866
     86  CB        30.4700  104.8330  -77.9940 C.3    54  THR54       0.1770
     87  OG1       29.5830  105.1660  -76.9190 O.3    54  THR54      -0.2211
     88  CG2       30.8560  103.3580  -77.8780 C.3    54  THR54       0.0375
     89  N         36.0550  107.1600  -77.6950 N.3    57  SER57      -0.1202
     90  CA        36.5410  106.7000  -76.3870 C.3    57  SER57       0.2020
     91  C         37.3340  105.4000  -76.5040 C.2    57  SER57       0.2618
     92  O         38.1530  105.0740  -75.6440 O.2    57  SER57      -0.2717
     93  CB        35.3650  106.4940  -75.4310 C.3    57  SER57       0.2103
     94  OG        34.5110  105.4540  -75.8810 O.3    57  SER57      -0.2182
     95  N         37.0720  104.6780  -77.5870 N.am   58  MET58      -0.1979
     96  CA        37.6430  103.3690  -77.8520 C.3    58  MET58       0.1605
     97  C         39.0990  103.4720  -78.2970 C.2    58  MET58       0.2287
     98  O         39.4260  104.3160  -79.1350 O.2    58  MET58      -0.2864
     99  CB        36.8100  102.6930  -78.9390 C.3    58  MET58       0.0413
    100  CG        36.9260  101.1840  -79.0120 C.3    58  MET58       0.0598
    101  SD        35.4610  100.5050  -79.8100 S.3    58  MET58      -0.1393
    102  CE        36.2270   99.2500  -80.8270 C.3    58  MET58       0.0692
    103  N         35.7590   97.2860  -84.2800 N.3    65  LEU65      -0.1245
    104  CA        35.6310   95.9810  -83.6330 C.3    65  LEU65       0.1561
    105  C         35.6990   94.8760  -84.6790 C.2    65  LEU65       0.2260
    106  O         34.8680   94.8190  -85.5890 O.2    65  LEU65      -0.2867
    107  CB        34.3250   95.8810  -82.8340 C.3    65  LEU65       0.0270
    108  CG        34.2550   96.5510  -81.4570 C.3    65  LEU65       0.0019
    109  CD1       32.8100   96.7720  -81.0450 C.3    65  LEU65       0.0001
    110  CD2       35.0010   95.7660  -80.3850 C.3    65  LEU65       0.0001
    111  N         25.5630   99.4320  -78.6520 N.3   122  VAL122     -0.1245
    112  CA        26.7660   99.3070  -77.8310 C.3   122  VAL122      0.1561
    113  C         27.1220  100.6050  -77.0810 C.2   122  VAL122      0.2260
    114  O         28.1060  100.6520  -76.3420 O.2   122  VAL122     -0.2867
    115  CB        27.9430   98.7750  -78.6900 C.3   122  VAL122      0.0252
    116  CG1       29.2110   98.6230  -77.8780 C.3   122  VAL122      0.0019
    117  CG2       27.5880   97.4280  -79.2990 C.3   122  VAL122      0.0019
    118  N         21.2880  104.3550  -76.3610 N.3   128  TYR128     -0.1241
    119  CA        20.4830  103.5580  -75.4390 C.3   128  TYR128      0.1605
    120  C         19.1240  104.2110  -75.2170 C.2   128  TYR128      0.2264
    121  O         18.1000  103.5240  -75.1640 O.2   128  TYR128     -0.2867
    122  CB        21.1910  103.3790  -74.0940 C.3   128  TYR128      0.0534
    123  CG        22.4710  102.5760  -74.1440 C.ar  128  TYR128     -0.0201
    124  CD1       22.5350  101.3630  -74.8280 C.ar  128  TYR128     -0.0009
    125  CD2       23.6100  103.0170  -73.4780 C.ar  128  TYR128     -0.0009
    126  CE1       23.7050  100.6250  -74.8660 C.ar  128  TYR128      0.0417
    127  CE2       24.7840  102.2870  -73.5110 C.ar  128  TYR128      0.0417
    128  CZ        24.8250  101.0910  -74.2050 C.ar  128  TYR128      0.1957
    129  OH        25.9900  100.3590  -74.2370 O.3   128  TYR128     -0.2866
    130  N         21.6700   93.0630  -72.2130 N.3   141  TYR141     -0.1241
    131  CA        22.8200   92.4290  -71.5830 C.3   141  TYR141      0.1605
    132  C         23.4970   93.4350  -70.6630 C.2   141  TYR141      0.2264
    133  O         24.2470   94.3040  -71.1130 O.2   141  TYR141     -0.2867
    134  CB        23.8020   91.9210  -72.6360 C.3   141  TYR141      0.0534
    135  CG        23.2500   90.8190  -73.5070 C.ar  141  TYR141     -0.0201
    136  CD1       22.5690   91.1110  -74.6900 C.ar  141  TYR141     -0.0009
    137  CD2       23.4110   89.4790  -73.1520 C.ar  141  TYR141     -0.0009
    138  CE1       22.0620   90.1000  -75.4930 C.ar  141  TYR141      0.0417
    139  CE2       22.9090   88.4630  -73.9500 C.ar  141  TYR141      0.0417
    140  CZ        22.2370   88.7790  -75.1170 C.ar  141  TYR141      0.1957
    141  OH        21.7410   87.7770  -75.9110 O.3   141  TYR141     -0.2866
    142  N         25.9290   94.2840  -67.4500 N.3   143  THR143     -0.1218
    143  CA        26.9740   93.9280  -66.5060 C.3   143  THR143      0.1862
    144  C         26.8550   94.8790  -65.3270 C.2   143  THR143      0.2287
    145  O         27.1500   96.0660  -65.4470 O.2   143  THR143     -0.2866
    146  CB        28.3740   94.0380  -67.1380 C.3   143  THR143      0.1770
    147  OG1       28.4320   93.2200  -68.3140 O.3   143  THR143     -0.2211
    148  CG2       29.4480   93.5780  -66.1590 C.3   143  THR143      0.0375
@<TRIPOS>BOND
     1   106   105    2
     2   105   104    1
     3   103   104    1
     4   104   107    1
     5   107   108    1
     6   108   109    1
     7   108   110    1
     8   102   101    1
     9   101   100    1
    10   117   115    1
    11    98    97    2
    12   100    99    1
    13    99    96    1
    14    84    85    2
    15    84    83    1
    16   115   116    1
    17   115   112    1
    18   111   112    1
    19    97    96    1
    20    82    83    1
    21    86    83    1
    22    86    88    1
    23    86    87    1
    24    96    95    1
    25   112   113    1
    26    89    90    1
    27    81    80   ar
    28    81    79   ar
    29    95    91   am
    30    80    78   ar
    31   113   114    2
    32    74    73    2
    33    79    77   ar
    34    91    90    1
    35    91    92    2
    36    90    93    1
    37   118   119    1
    38    78    76   ar
    39     6     5    1
    40   141   140    1
    41    94    93    1
    42    73    72    1
    43    77    76   ar
    44   138   140   ar
    45   138   136   ar
    46   119   120    1
    47   119   122    1
    48    76    75    1
    49    60    59   ar
    50    60    58   ar
    51   120   121    2
    52   140   139   ar
    53     5     2    1
    54     5     7    1
    55     1     2    1
    56   126   124   ar
    57   126   128   ar
    58    59    57   ar
    59   124   123   ar
    60    58    56   ar
    61   136   135   ar
    62    72    75    1
    63    72    71    1
    64   129   128    1
    65   128   127   ar
    66     2     3    1
    67    64    63    2
    68   123   122    1
    69   123   125   ar
    70     4     3    2
    71   139   137   ar
    72    53    52    2
    73    57    55   ar
    74    56    55   ar
    75   127   125   ar
    76   135   137   ar
    77   135   134    1
    78     3     8   am
    79    71    63   am
    80    63    62    1
    81    55    54    1
    82   134   131    1
    83    52    51    1
    84   130   131    1
    85    62    61    1
    86    62    65    1
    87     8     9    1
    88    51    54    1
    89    51    50    1
    90   131   132    1
    91    70    68   ar
    92    70    69   ar
    93    68    66   ar
    94    14    12    1
    95    69    67   ar
    96     9    12    1
    97     9    10    1
    98   133   132    2
    99    45    44    2
   100    13    12    1
   101    66    67   ar
   102    66    65    1
   103    26    25    1
   104    50    44   am
   105    27    25    1
   106    25    24    1
   107    44    43    1
   108    10    11    2
   109    10    15   am
   110    20    21    1
   111    15    16    1
   112    49    47   ar
   113    48    47   ar
   114    24    21    1
   115    47    46    1
   116    43    46    1
   117    43    42    1
   118    21    22    1
   119   147   146    1
   120    19    16    1
   121    16    17    1
   122    18    17    2
   123   142   143    1
   124    22    23    2
   125   146   143    1
   126   146   148    1
   127    39    41   ar
   128    39    37   ar
   129    36    37   ar
   130    36    34   ar
   131   143   144    1
   132    41    40   ar
   133    37    35   ar
   134    34    33   ar
   135   145   144    2
   136    31    30    2
   137    40    38   ar
   138    35    33   ar
   139    35    38   ar
   140    33    32    1
   141    28    29    1
   142    30    29    1
   143    29    32    1
