@<TRIPOS>MOLECULE
tmp/6aogA00.pdb
 158 152 0 0 0
SMALL
GASTEIGER

@<TRIPOS>ATOM
      1  N          7.8060   73.9490  -30.8320 N.3   244  ASP244     -0.1225
      2  CA         9.1320   74.5250  -30.6390 C.3   244  ASP244      0.1805
      3  C          9.3400   74.9750  -29.1940 C.2   244  ASP244      0.2597
      4  O          8.3790   75.3140  -28.5050 O.2   244  ASP244     -0.2718
      5  CB         9.3010   75.6960  -31.6180 C.3   244  ASP244      0.1424
      6  CG        10.4850   76.5810  -31.2990 C.2   244  ASP244      0.3668
      7  OD1       11.5880   76.0600  -31.0280 O.co2 244  ASP244     -0.2456
      8  OD2       10.3130   77.8130  -31.3440 O.co2 244  ASP244     -0.2456
      9  N         10.5960   74.9700  -28.7450 N.am  245  ARG245     -0.1979
     10  CA        10.9710   75.4500  -27.4090 C.3   245  ARG245      0.1597
     11  C         10.3680   76.8190  -27.0690 C.2   245  ARG245      0.2287
     12  O          9.8440   77.0110  -25.9690 O.2   245  ARG245     -0.2864
     13  CB        12.5000   75.4920  -27.2600 C.3   245  ARG245      0.0334
     14  CG        13.0060   76.1700  -25.9880 C.3   245  ARG245      0.0492
     15  CD        14.5240   76.3080  -25.9700 C.3   245  ARG245      0.2205
     16  NE        15.0410   77.0690  -27.1100 N.pl3 245  ARG245     -0.0865
     17  CZ        15.2110   78.3900  -27.1300 C.cat 245  ARG245      0.5346
     18  NH1       14.9070   79.1270  -26.0690 N.pl3 245  ARG245      0.1354
     19  NH2       15.6870   78.9790  -28.2190 N.pl3 245  ARG245      0.1354
     20  N         30.5330   90.5740  -33.2640 N.3   282  GLU282     -0.1245
     21  CA        30.2800   89.2980  -32.5970 C.3   282  GLU282      0.1567
     22  C         31.4430   88.3250  -32.7980 C.2   282  GLU282      0.2260
     23  O         31.7790   87.5630  -31.8870 O.2   282  GLU282     -0.2867
     24  CB        28.9740   88.6700  -33.0930 C.3   282  GLU282      0.0388
     25  CG        28.4560   87.5320  -32.2200 C.3   282  GLU282      0.1160
     26  CD        27.5470   86.5650  -32.9630 C.2   282  GLU282      0.3649
     27  OE1       26.6550   85.9710  -32.3200 O.co2 282  GLU282     -0.2457
     28  OE2       27.7210   86.3870  -34.1880 O.co2 282  GLU282     -0.2457
     29  N         22.2940   89.5290  -28.4050 N.3   304  TRP304     -0.1241
     30  CA        22.3970   88.5750  -27.3010 C.3   304  TRP304      0.1605
     31  C         21.6120   88.9610  -26.0500 C.2   304  TRP304      0.2264
     32  O         21.4490   88.1430  -25.1410 O.2   304  TRP304     -0.2867
     33  CB        23.8640   88.3570  -26.9390 C.3   304  TRP304      0.0550
     34  CG        24.5110   87.3160  -27.7790 C.ar  304  TRP304      0.0003
     35  CD1       25.1530   87.5030  -28.9660 C.ar  304  TRP304      0.0946
     36  CD2       24.5740   85.9150  -27.5020 C.ar  304  TRP304      0.0152
     37  NE1       25.6160   86.3050  -29.4490 N.ar  304  TRP304     -0.2442
     38  CE2       25.2740   85.3120  -28.5690 C.ar  304  TRP304      0.0810
     39  CE3       24.1070   85.1090  -26.4550 C.ar  304  TRP304      0.0012
     40  CZ2       25.5200   83.9380  -28.6200 C.ar  304  TRP304      0.0191
     41  CZ3       24.3530   83.7410  -26.5040 C.ar  304  TRP304      0.0001
     42  CH2       25.0530   83.1710  -27.5810 C.ar  304  TRP304      0.0015
     43  N         30.3270   80.0780  -26.9920 N.3   330  TYR330     -0.1241
     44  CA        31.2240   79.8990  -28.1430 C.3   330  TYR330      0.1605
     45  C         32.6050   80.4510  -27.9160 C.2   330  TYR330      0.2264
     46  O         33.5980   79.7520  -28.1260 O.2   330  TYR330     -0.2867
     47  CB        30.7020   80.6230  -29.3710 C.3   330  TYR330      0.0534
     48  CG        29.2680   80.3940  -29.6920 C.ar  330  TYR330     -0.0201
     49  CD1       28.2710   81.0800  -29.0150 C.ar  330  TYR330     -0.0009
     50  CD2       28.9040   79.5190  -30.7050 C.ar  330  TYR330     -0.0009
     51  CE1       26.9420   80.8810  -29.3230 C.ar  330  TYR330      0.0417
     52  CE2       27.5770   79.3170  -31.0270 C.ar  330  TYR330      0.0417
     53  CZ        26.6020   80.0010  -30.3300 C.ar  330  TYR330      0.1957
     54  OH        25.2770   79.8050  -30.6370 O.3   330  TYR330     -0.2866
     55  N         22.6380   79.5740  -23.5800 N.3   387  LEU387     -0.1231
     56  CA        22.0760   78.9520  -24.7730 C.3   387  LEU387      0.1678
     57  C         23.1110   78.0250  -25.4120 C.2   387  LEU387      0.2434
     58  O         24.2190   78.4660  -25.7360 O.2   387  LEU387     -0.2733
     59  CB        21.6250   80.0230  -25.7750 C.3   387  LEU387      0.0284
     60  CG        20.3420   79.7850  -26.5790 C.3   387  LEU387      0.0019
     61  CD1       19.8460   81.0930  -27.1810 C.3   387  LEU387      0.0001
     62  CD2       20.5380   78.7370  -27.6680 C.3   387  LEU387      0.0001
     63  N         22.7570   76.7350  -25.5820 N.am  388  PRO388     -0.2729
     64  CA        23.6210   75.7750  -26.2710 C.3   388  PRO388      0.1401
     65  C         23.9460   76.2470  -27.6890 C.2   388  PRO388      0.2269
     66  O         23.0400   76.6760  -28.4080 O.2   388  PRO388     -0.2865
     67  CB        22.7670   74.5040  -26.3210 C.3   388  PRO388      0.0296
     68  CG        21.8220   74.6380  -25.1810 C.3   388  PRO388      0.0237
     69  CD        21.5170   76.1030  -25.0960 C.3   388  PRO388      0.0939
     70  N         24.5120   77.0500  -31.4670 N.3   390  CYS390     -0.1221
     71  CA        23.8560   76.6610  -32.7130 C.3   390  CYS390      0.1808
     72  C         24.8960   76.2360  -33.7410 C.2   390  CYS390      0.2601
     73  O         24.8610   75.1140  -34.2420 O.2   390  CYS390     -0.2717
     74  CB        23.0050   77.8050  -33.2570 C.3   390  CYS390      0.0970
     75  SG        21.5900   78.2140  -32.2150 S.3   390  CYS390     -0.0800
     76  N         25.8160   77.1440  -34.0540 N.am  391  HIS391     -0.1975
     77  CA        26.9840   76.8040  -34.8540 C.3   391  HIS391      0.1656
     78  C         28.0550   76.2460  -33.9230 C.2   391  HIS391      0.2291
     79  O         28.7330   76.9920  -33.2170 O.2   391  HIS391     -0.2864
     80  CB        27.4820   78.0080  -35.6620 C.3   391  HIS391      0.0771
     81  CG        27.6670   79.2600  -34.8590 C.ar  391  HIS391      0.0820
     82  ND1       28.9070   79.7020  -34.4500 N.ar  391  HIS391     -0.2267
     83  CD2       26.7760   80.1750  -34.4100 C.ar  391  HIS391      0.1154
     84  CE1       28.7730   80.8340  -33.7830 C.ar  391  HIS391      0.1986
     85  NE2       27.4880   81.1390  -33.7380 N.ar  391  HIS391     -0.2212
     86  N         25.8590   73.4960  -38.2210 N.3   410  GLN410     -0.1231
     87  CA        24.9260   74.2260  -37.3790 C.3   410  GLN410      0.1698
     88  C         23.7320   73.3390  -37.0460 C.2   410  GLN410      0.2592
     89  O         22.9610   72.9640  -37.9340 O.2   410  GLN410     -0.2718
     90  CB        24.4780   75.5000  -38.0900 C.3   410  GLN410      0.0381
     91  CG        23.8480   76.5480  -37.1900 C.3   410  GLN410      0.0905
     92  CD        23.4490   77.7970  -37.9530 C.2   410  GLN410      0.2608
     93  OE1       23.9150   78.0360  -39.0670 O.2   410  GLN410     -0.2717
     94  NE2       22.5820   78.6020  -37.3540 N.am  410  GLN410     -0.0878
     95  N         23.5960   73.0060  -35.7630 N.am  411  ARG411     -0.1966
     96  CA        22.5520   72.0950  -35.2790 C.3   411  ARG411      0.1729
     97  C         21.1400   72.6410  -35.4690 C.2   411  ARG411      0.2616
     98  O         20.2030   71.8790  -35.7170 O.2   411  ARG411     -0.2715
     99  CB        22.7730   71.7420  -33.8040 C.3   411  ARG411      0.0348
    100  CG        22.7290   72.9350  -32.8640 C.3   411  ARG411      0.0492
    101  CD        22.4430   72.5290  -31.4310 C.3   411  ARG411      0.2205
    102  NE        22.2380   73.7020  -30.5840 N.pl3 411  ARG411     -0.0865
    103  CZ        21.0640   74.2960  -30.3830 C.cat 411  ARG411      0.5346
    104  NH1       19.9630   73.8330  -30.9610 N.pl3 411  ARG411      0.1354
    105  NH2       20.9920   75.3590  -29.5950 N.pl3 411  ARG411      0.1354
    106  N         21.0000   73.9570  -35.3420 N.am  412  SER412     -0.1950
    107  CA        19.7090   74.6210  -35.4530 C.3   412  SER412      0.1924
    108  C         19.8630   75.9290  -36.2110 C.2   412  SER412      0.2314
    109  O         20.7140   76.7520  -35.8700 O.2   412  SER412     -0.2863
    110  CB        19.1280   74.8810  -34.0660 C.3   412  SER412      0.2116
    111  OG        17.8850   75.5480  -34.1580 O.3   412  SER412     -0.2180
    112  N         17.8260   79.2240  -37.7160 N.3   414  ASP414     -0.1239
    113  CA        16.7360   80.1460  -38.0080 C.3   414  ASP414      0.1674
    114  C         16.9850   80.7390  -39.3940 C.2   414  ASP414      0.2266
    115  O         17.7720   81.6750  -39.5460 O.2   414  ASP414     -0.2867
    116  CB        16.6410   81.2440  -36.9460 C.3   414  ASP414      0.1410
    117  CG        15.4560   82.1790  -37.1660 C.2   414  ASP414      0.3668
    118  OD1       14.7130   82.0120  -38.1590 O.co2 414  ASP414     -0.2456
    119  OD2       15.2600   83.0920  -36.3370 O.co2 414  ASP414     -0.2456
    120  N         18.7350   84.1260  -38.5970 N.3   418  GLY418     -0.1225
    121  CA        20.1000   83.7350  -38.2550 C.3   418  GLY418      0.1811
    122  C         21.0050   83.2840  -39.3890 C.2   418  GLY418      0.2280
    123  O         22.2010   83.5790  -39.3820 O.2   418  GLY418     -0.2866
    124  N         24.9200   84.0190  -40.1160 N.3   422  ASN422     -0.1240
    125  CA        25.8870   82.9290  -39.9190 C.3   422  ASN422      0.1653
    126  C         26.7660   82.6580  -41.1400 C.2   422  ASN422      0.2266
    127  O         27.9450   82.3280  -40.9950 O.2   422  ASN422     -0.2867
    128  CB        25.1790   81.6430  -39.4710 C.3   422  ASN422      0.1155
    129  CG        24.5770   81.7590  -38.0810 C.2   422  ASN422      0.2627
    130  OD1       23.4560   81.3100  -37.8410 O.2   422  ASN422     -0.2716
    131  ND2       25.3190   82.3660  -37.1580 N.am  422  ASN422     -0.0877
    132  N         14.9450   75.4850  -40.2020 N.3   452  HIS452     -0.1241
    133  CA        13.5540   75.8870  -39.9780 C.3   452  HIS452      0.1621
    134  C         13.2630   77.3610  -40.2390 C.2   452  HIS452      0.2264
    135  O         14.1330   78.2160  -40.0700 O.2   452  HIS452     -0.2867
    136  CB        13.1570   75.5640  -38.5370 C.3   452  HIS452      0.0745
    137  CG        14.0150   76.2390  -37.5140 C.ar  452  HIS452      0.0817
    138  ND1       15.1490   75.6530  -36.9950 N.ar  452  HIS452     -0.2268
    139  CD2       13.9160   77.4540  -36.9270 C.ar  452  HIS452      0.1154
    140  CE1       15.7090   76.4770  -36.1280 C.ar  452  HIS452      0.1986
    141  NE2       14.9800   77.5780  -36.0680 N.ar  452  HIS452     -0.2212
    142  N         10.4760   80.2700  -38.8700 N.3   454  TYR454     -0.1241
    143  CA         9.4380   80.5550  -37.8780 C.3   454  TYR454      0.1605
    144  C          8.1510   80.9920  -38.5710 C.2   454  TYR454      0.2264
    145  O          8.1960   81.6410  -39.6180 O.2   454  TYR454     -0.2867
    146  CB         9.9060   81.6030  -36.8660 C.3   454  TYR454      0.0534
    147  CG        10.8430   81.0570  -35.8070 C.ar  454  TYR454     -0.0201
    148  CD1       10.3510   80.3410  -34.7130 C.ar  454  TYR454     -0.0009
    149  CD2       12.2210   81.2580  -35.8950 C.ar  454  TYR454     -0.0009
    150  CE1       11.2060   79.8370  -33.7420 C.ar  454  TYR454      0.0417
    151  CE2       13.0840   80.7590  -34.9270 C.ar  454  TYR454      0.0417
    152  CZ        12.5720   80.0510  -33.8540 C.ar  454  TYR454      0.1957
    153  OH        13.4270   79.5590  -32.8940 O.3   454  TYR454     -0.2866
    154  N         12.6260   84.9780  -31.9550 N.3   510  ALA510     -0.1245
    155  CA        11.8960   84.1050  -31.0400 C.3   510  ALA510      0.1562
    156  C         12.7170   83.8800  -29.7710 C.2   510  ALA510      0.2260
    157  O         13.7490   83.2020  -29.7960 O.2   510  ALA510     -0.2867
    158  CB        11.5540   82.7860  -31.7130 C.3   510  ALA510      0.0290
@<TRIPOS>BOND
     1   126   127    2
     2   126   125    1
     3   134   135    2
     4   134   133    1
     5   132   133    1
     6   124   125    1
     7   133   136    1
     8   125   128    1
     9   145   144    2
    10   115   114    2
    11   128   129    1
    12   114   113    1
    13   122   123    2
    14   122   121    1
    15    93    92    2
    16   142   143    1
    17   120   121    1
    18   144   143    1
    19   136   137    1
    20    86    87    1
    21   118   117   ar
    22    90    87    1
    23    90    91    1
    24   129   130    2
    25   129   131   am
    26   113   112    1
    27   113   116    1
    28    92    94   am
    29    92    91    1
    30    89    88    2
    31   143   146    1
    32   137   138   ar
    33   137   139   ar
    34    87    88    1
    35   117   116    1
    36   117   119   ar
    37    88    95   am
    38   138   140   ar
    39   139   141   ar
    40   146   147    1
    41   108   109    2
    42   108   107    1
    43   140   141   ar
    44   149   147   ar
    45   149   151   ar
    46   147   148   ar
    47    95    96    1
    48    98    97    2
    49    80    81    1
    50    80    77    1
    51    97   106   am
    52    97    96    1
    53   107   106    1
    54   107   110    1
    55    96    99    1
    56   151   152   ar
    57    81    82   ar
    58    81    83   ar
    59    77    76    1
    60    77    78    1
    61   148   150   ar
    62    82    84   ar
    63    83    85   ar
    64    73    72    2
    65    28    26   ar
    66   111   110    1
    67    76    72   am
    68    78    79    2
    69   152   150   ar
    70   152   153    1
    71    99   100    1
    72    84    85   ar
    73    72    71    1
    74    20    21    1
    75    74    71    1
    76    74    75    1
    77    24    21    1
    78    24    25    1
    79    26    27   ar
    80    26    25    1
    81   100   101    1
    82    22    21    1
    83    22    23    2
    84    71    70    1
    85   154   155    1
    86   158   155    1
    87     5     6    1
    88     5     2    1
    89   101   102    1
    90     8     6   ar
    91     6     7   ar
    92   155   156    1
    93    52    50   ar
    94    52    53   ar
    95   104   103    1
    96     1     2    1
    97    50    48   ar
    98     2     3    1
    99    54    53    1
   100   102   103    2
   101   103   105    1
   102    53    51   ar
   103   157   156    2
   104    48    47    1
   105    48    49   ar
   106    37    35   ar
   107    37    38   ar
   108    47    44    1
   109    51    49   ar
   110     3     9   am
   111     3     4    2
   112    35    34   ar
   113     9    10    1
   114    40    38   ar
   115    40    42   ar
   116    38    36   ar
   117    66    65    2
   118    29    30    1
   119    19    17    1
   120    44    45    1
   121    44    43    1
   122    46    45    2
   123    34    36   ar
   124    34    33    1
   125    65    64    1
   126    62    60    1
   127    42    41   ar
   128    36    39   ar
   129    10    13    1
   130    10    11    1
   131    30    33    1
   132    30    31    1
   133    13    14    1
   134    61    60    1
   135    17    16    2
   136    17    18    1
   137    16    15    1
   138    11    12    2
   139    60    59    1
   140    41    39   ar
   141    67    64    1
   142    67    68    1
   143    64    63    1
   144    31    32    2
   145    14    15    1
   146    59    56    1
   147    58    57    2
   148    63    57   am
   149    63    69    1
   150    57    56    1
   151    68    69    1
   152    56    55    1
