@<TRIPOS>MOLECULE
tmp/6aoiB03.pdb
 176 172 0 0 0
SMALL
GASTEIGER

@<TRIPOS>ATOM
      1  N          7.9020   41.2400  -68.5490 N.3     5  VAL5       -0.1231
      2  CA         7.7180   41.7520  -67.2040 C.3     5  VAL5        0.1692
      3  C          7.6760   40.5850  -66.2210 C.2     5  VAL5        0.2592
      4  O          6.9880   39.5870  -66.4560 O.2     5  VAL5       -0.2718
      5  CB         6.4810   42.6770  -67.1000 C.3     5  VAL5        0.0266
      6  CG1        5.2330   41.9750  -67.6000 C.3     5  VAL5        0.0020
      7  CG2        6.2860   43.1860  -65.6780 C.3     5  VAL5        0.0020
      8  N          8.4370   40.7180  -65.1350 N.am    6  VAL6       -0.1966
      9  CA         8.6380   39.6480  -64.1610 C.3     6  VAL6        0.1727
     10  C          8.9990   40.1450  -62.7720 C.2     6  VAL6        0.2616
     11  O          9.6840   41.1580  -62.6210 O.2     6  VAL6       -0.2715
     12  CB         9.8030   38.7350  -64.5690 C.3     6  VAL6        0.0290
     13  CG1        9.2970   37.4900  -65.2590 C.3     6  VAL6        0.0023
     14  CG2       10.8010   39.4880  -65.4350 C.3     6  VAL6        0.0023
     15  N          8.5410   39.4100  -61.7640 N.am    7  ALA7       -0.1977
     16  CA         9.1260   39.4660  -60.4300 C.3     7  ALA7        0.1597
     17  C          9.9020   38.1660  -60.2580 C.2     7  ALA7        0.2287
     18  O          9.4610   37.1170  -60.7280 O.2     7  ALA7       -0.2864
     19  CB         8.0530   39.6130  -59.3680 C.3     7  ALA7        0.0319
     20  N          2.3960   32.4460  -56.7750 N.3    20  LEU20      -0.1245
     21  CA         3.5310   33.2740  -56.3960 C.3    20  LEU20       0.1561
     22  C          4.2110   32.7140  -55.1530 C.2    20  LEU20       0.2260
     23  O          3.5340   32.1960  -54.2630 O.2    20  LEU20      -0.2867
     24  CB         3.0950   34.7270  -56.1810 C.3    20  LEU20       0.0270
     25  CG         2.7460   35.5380  -57.4370 C.3    20  LEU20       0.0019
     26  CD1        2.2420   36.9240  -57.0560 C.3    20  LEU20       0.0001
     27  CD2        3.9300   35.6320  -58.3980 C.3    20  LEU20       0.0001
     28  N          6.1300   34.3560  -52.8940 N.3    22  TRP22      -0.1241
     29  CA         6.2900   35.3390  -51.8170 C.3    22  TRP22       0.1605
     30  C          4.9510   35.8920  -51.3650 C.2    22  TRP22       0.2264
     31  O          3.9900   35.8690  -52.1340 O.2    22  TRP22      -0.2867
     32  CB         7.1600   36.5050  -52.2960 C.3    22  TRP22       0.0550
     33  CG         6.8000   36.9580  -53.6770 C.ar   22  TRP22       0.0003
     34  CD1        5.7210   37.7140  -54.0420 C.ar   22  TRP22       0.0946
     35  CD2        7.5060   36.6580  -54.8830 C.ar   22  TRP22       0.0152
     36  NE1        5.7170   37.9050  -55.4010 N.ar   22  TRP22      -0.2442
     37  CE2        6.8020   37.2660  -55.9420 C.ar   22  TRP22       0.0810
     38  CE3        8.6680   35.9340  -55.1720 C.ar   22  TRP22       0.0012
     39  CZ2        7.2200   37.1710  -57.2680 C.ar   22  TRP22       0.0191
     40  CZ3        9.0850   35.8430  -56.4950 C.ar   22  TRP22       0.0001
     41  CH2        8.3620   36.4590  -57.5240 C.ar   22  TRP22       0.0015
     42  N          2.2890   38.9310  -50.5710 N.3    24  HIS24      -0.1226
     43  CA         1.8970   39.9890  -51.4930 C.3    24  HIS24       0.1752
     44  C          2.9060   41.1270  -51.5380 C.2    24  HIS24       0.2595
     45  O          3.3420   41.6250  -50.4980 O.2    24  HIS24      -0.2718
     46  CB         0.5140   40.5170  -51.1270 C.3    24  HIS24       0.0759
     47  CG        -0.1900   41.1910  -52.2610 C.ar   24  HIS24       0.0818
     48  ND1       -0.6530   42.4880  -52.1850 N.ar   24  HIS24      -0.2268
     49  CD2       -0.5050   40.7510  -53.5030 C.ar   24  HIS24       0.1154
     50  CE1       -1.2290   42.8140  -53.3280 C.ar   24  HIS24       0.1986
     51  NE2       -1.1510   41.7790  -54.1460 N.ar   24  HIS24      -0.2212
     52  N          3.2950   41.5110  -52.7510 N.am   25  LEU25      -0.1980
     53  CA         4.1620   42.6700  -52.9570 C.3    25  LEU25       0.1596
     54  C          3.3430   43.7580  -53.5940 C.2    25  LEU25       0.2287
     55  O          3.2880   43.8730  -54.8210 O.2    25  LEU25      -0.2864
     56  CB         5.3520   42.3300  -53.8430 C.3    25  LEU25       0.0297
     57  CG         6.2450   41.2100  -53.3270 C.3    25  LEU25       0.0022
     58  CD1        7.3450   40.9500  -54.3400 C.3    25  LEU25       0.0001
     59  CD2        6.8110   41.5340  -51.9480 C.3    25  LEU25       0.0001
     60  N          4.7810   46.1570  -56.1110 N.3    28  ASP28      -0.1225
     61  CA         5.0500   45.4490  -57.3510 C.3    28  ASP28       0.1805
     62  C          3.7840   45.3980  -58.1800 C.2    28  ASP28       0.2597
     63  O          3.8160   45.6550  -59.3820 O.2    28  ASP28      -0.2718
     64  CB         5.5440   44.0310  -57.0740 C.3    28  ASP28       0.1424
     65  CG         5.7660   43.2370  -58.3390 C.2    28  ASP28       0.3668
     66  OD1        6.5450   43.7010  -59.1980 O.co2  28  ASP28      -0.2456
     67  OD2        5.1630   42.1520  -58.4700 O.co2  28  ASP28      -0.2456
     68  N          2.6730   45.0700  -57.5260 N.am   29  PHE29      -0.1976
     69  CA         1.3770   44.9890  -58.1860 C.3    29  PHE29       0.1639
     70  C          1.0220   46.3330  -58.8150 C.2    29  PHE29       0.2290
     71  O          0.6230   46.3910  -59.9750 O.2    29  PHE29      -0.2864
     72  CB         0.2980   44.5310  -57.1970 C.3    29  PHE29       0.0560
     73  CG        -1.0540   44.2910  -57.8240 C.ar   29  PHE29      -0.0200
     74  CD1       -1.2480   43.2450  -58.7240 C.ar   29  PHE29      -0.0042
     75  CD2       -2.1430   45.1020  -57.4990 C.ar   29  PHE29      -0.0042
     76  CE1       -2.4930   43.0180  -59.2980 C.ar   29  PHE29      -0.0003
     77  CE2       -3.3920   44.8780  -58.0680 C.ar   29  PHE29      -0.0003
     78  CZ        -3.5650   43.8350  -58.9690 C.ar   29  PHE29      -0.0000
     79  N          3.1200   48.7820  -59.6110 N.3    31  HIS31      -0.1226
     80  CA         4.1000   49.0020  -60.6760 C.3    31  HIS31       0.1752
     81  C          3.7470   48.2080  -61.9220 C.2    31  HIS31       0.2596
     82  O          3.7020   48.7640  -63.0200 O.2    31  HIS31      -0.2718
     83  CB         5.5090   48.6450  -60.1880 C.3    31  HIS31       0.0759
     84  CG         6.4710   48.2900  -61.2820 C.ar   31  HIS31       0.0818
     85  ND1        7.2810   49.2220  -61.8960 N.ar   31  HIS31      -0.2268
     86  CD2        6.7730   47.0970  -61.8510 C.ar   31  HIS31       0.1154
     87  CE1        8.0320   48.6210  -62.8030 C.ar   31  HIS31       0.1986
     88  NE2        7.7430   47.3310  -62.7960 N.ar   31  HIS31      -0.2212
     89  N          3.5030   46.9110  -61.7520 N.am   32  PHE32      -0.1976
     90  CA         3.0910   46.0730  -62.8650 C.3    32  PHE32       0.1639
     91  C          1.8710   46.6860  -63.5320 C.2    32  PHE32       0.2290
     92  O          1.8160   46.7960  -64.7590 O.2    32  PHE32      -0.2864
     93  CB         2.7600   44.6560  -62.4060 C.3    32  PHE32       0.0560
     94  CG         2.1870   43.7990  -63.4970 C.ar   32  PHE32      -0.0200
     95  CD1        0.8210   43.7900  -63.7480 C.ar   32  PHE32      -0.0042
     96  CD2        3.0170   43.0200  -64.2910 C.ar   32  PHE32      -0.0042
     97  CE1        0.2930   43.0130  -64.7650 C.ar   32  PHE32      -0.0003
     98  CE2        2.4970   42.2400  -65.3070 C.ar   32  PHE32      -0.0003
     99  CZ         1.1330   42.2370  -65.5450 C.ar   32  PHE32      -0.0000
    100  N         -0.5520   30.3840  -66.0430 N.3    53  THR53      -0.1218
    101  CA        -0.4740   31.7790  -65.6000 C.3    53  THR53       0.1862
    102  C         -1.8610   32.4280  -65.5450 C.2    53  THR53       0.2287
    103  O         -2.1790   33.1300  -64.5830 O.2    53  THR53      -0.2866
    104  CB         0.4940   32.6070  -66.4810 C.3    53  THR53       0.1770
    105  OG1        1.8280   32.0990  -66.3400 O.3    53  THR53      -0.2211
    106  CG2        0.4860   34.0770  -66.0850 C.3    53  THR53       0.0375
    107  N         -3.7950   30.6880  -62.5820 N.3    56  SER56      -0.1202
    108  CA        -3.2810   31.0330  -61.2550 C.3    56  SER56       0.2020
    109  C         -3.8940   32.3250  -60.7300 C.2    56  SER56       0.2619
    110  O         -4.1530   32.4560  -59.5310 O.2    56  SER56      -0.2717
    111  CB        -1.7530   31.1400  -61.2700 C.3    56  SER56       0.2103
    112  OG        -1.3120   32.1150  -62.1970 O.3    56  SER56      -0.2182
    113  N         -4.1280   33.2670  -61.6400 N.am   57  MET57      -0.1965
    114  CA        -4.7410   34.5460  -61.3070 C.3    57  MET57       0.1721
    115  C         -6.0400   34.3430  -60.5400 C.2    57  MET57       0.2458
    116  O         -6.8540   33.5030  -60.9210 O.2    57  MET57      -0.2730
    117  CB        -5.0290   35.3480  -62.5770 C.3    57  MET57       0.0427
    118  CG        -3.8080   35.9810  -63.2310 C.3    57  MET57       0.0599
    119  SD        -4.2160   36.9880  -64.6740 S.3    57  MET57      -0.1393
    120  CE        -5.2890   38.2300  -63.9520 C.3    57  MET57       0.0692
    121  N         -6.2280   35.0960  -59.4410 N.am   58  PRO58      -0.2727
    122  CA        -7.5300   35.1200  -58.7780 C.3    58  PRO58       0.1402
    123  C         -8.6020   35.6070  -59.7440 C.2    58  PRO58       0.2269
    124  O         -8.3840   36.5760  -60.4780 O.2    58  PRO58      -0.2865
    125  CB        -7.3370   36.1260  -57.6330 C.3    58  PRO58       0.0296
    126  CG        -6.0670   36.8520  -57.9390 C.3    58  PRO58       0.0237
    127  CD        -5.2240   35.8830  -58.7080 C.3    58  PRO58       0.0939
    128  N         -9.4610   39.3150  -60.7710 N.3    61  PHE61      -0.1241
    129  CA        -8.6030   40.1800  -61.5850 C.3    61  PHE61       0.1605
    130  C         -8.5410   39.8000  -63.0580 C.2    61  PHE61       0.2264
    131  O         -8.1570   40.6190  -63.8920 O.2    61  PHE61      -0.2867
    132  CB        -7.1890   40.2470  -61.0000 C.3    61  PHE61       0.0534
    133  CG        -7.1100   40.9900  -59.7000 C.ar   61  PHE61      -0.0203
    134  CD1       -7.0760   42.3820  -59.6800 C.ar   61  PHE61      -0.0042
    135  CD2       -7.0770   40.3020  -58.4910 C.ar   61  PHE61      -0.0042
    136  CE1       -7.0080   43.0730  -58.4770 C.ar   61  PHE61      -0.0003
    137  CE2       -7.0080   40.9860  -57.2870 C.ar   61  PHE61      -0.0003
    138  CZ        -6.9720   42.3730  -57.2800 C.ar   61  PHE61      -0.0000
    139  N         -7.3340   40.8680  -67.2190 N.3    64  LEU64      -0.1245
    140  CA        -6.6380   42.1120  -66.8980 C.3    64  LEU64       0.1561
    141  C         -7.2470   43.2870  -67.6610 C.2    64  LEU64       0.2260
    142  O         -7.1280   43.3820  -68.8890 O.2    64  LEU64      -0.2867
    143  CB        -5.1330   41.9890  -67.1680 C.3    64  LEU64       0.0270
    144  CG        -4.3160   41.1060  -66.2140 C.3    64  LEU64       0.0019
    145  CD1       -2.8960   40.9180  -66.7310 C.3    64  LEU64       0.0001
    146  CD2       -4.3000   41.6620  -64.7950 C.3    64  LEU64       0.0001
    147  N          3.8130   38.1730  -70.0510 N.3   121  VAL121     -0.1231
    148  CA         3.4900   38.3640  -68.6380 C.3   121  VAL121      0.1692
    149  C          3.6200   37.0860  -67.7790 C.2   121  VAL121      0.2592
    150  O          3.4330   37.1250  -66.5550 O.2   121  VAL121     -0.2718
    151  CB         2.1050   39.0590  -68.5350 C.3   121  VAL121      0.0266
    152  CG1        1.3590   38.7100  -67.2630 C.3   121  VAL121      0.0020
    153  CG2        2.2660   40.5640  -68.6760 C.3   121  VAL121      0.0020
    154  N          3.9760   35.9740  -68.4280 N.am  122  GLY122     -0.1957
    155  CA         4.2190   34.6940  -67.7540 C.3   122  GLY122      0.1869
    156  C          3.6650   33.5150  -68.5310 C.2   122  GLY122      0.2309
    157  O          2.8460   33.7110  -69.4240 O.2   122  GLY122     -0.2863
    158  N          8.1790   33.0630  -71.4140 N.3   127  TYR127     -0.1241
    159  CA         9.4190   33.8100  -71.2380 C.3   127  TYR127      0.1605
    160  C         10.5530   33.1430  -72.0150 C.2   127  TYR127      0.2264
    161  O         11.3350   33.8220  -72.6840 O.2   127  TYR127     -0.2867
    162  CB         9.7950   33.9300  -69.7560 C.3   127  TYR127      0.0534
    163  CG         8.8680   34.7860  -68.9110 C.ar  127  TYR127     -0.0201
    164  CD1        8.4080   36.0270  -69.3650 C.ar  127  TYR127     -0.0009
    165  CD2        8.4840   34.3700  -67.6380 C.ar  127  TYR127     -0.0009
    166  CE1        7.5710   36.8100  -68.5830 C.ar  127  TYR127      0.0417
    167  CE2        7.6470   35.1450  -66.8510 C.ar  127  TYR127      0.0417
    168  CZ         7.1940   36.3610  -67.3270 C.ar  127  TYR127      0.1957
    169  OH         6.3690   37.1260  -66.5370 O.3   127  TYR127     -0.2866
    170  N         11.4690   42.8330  -61.6160 N.3   142  THR142     -0.1218
    171  CA        11.4230   43.0900  -60.1860 C.3   142  THR142      0.1862
    172  C         12.3380   42.0800  -59.4920 C.2   142  THR142      0.2287
    173  O         12.0560   40.8800  -59.4710 O.2   142  THR142     -0.2866
    174  CB         9.9890   42.9560  -59.6470 C.3   142  THR142      0.1770
    175  OG1        9.1120   43.7880  -60.4140 O.3   142  THR142     -0.2211
    176  CG2        9.9210   43.3610  -58.1860 C.3   142  THR142      0.0375
@<TRIPOS>BOND
     1   161   160    2
     2   160   159    1
     3   158   159    1
     4   159   162    1
     5   147   148    1
     6   162   163    1
     7   157   156    2
     8   164   163   ar
     9   164   166   ar
    10   163   165   ar
    11   142   141    2
    12   153   151    1
    13   148   151    1
    14   148   149    1
    15   166   168   ar
    16     1     2    1
    17   151   152    1
    18   156   155    1
    19   154   149   am
    20   154   155    1
    21   149   150    2
    22   141   140    1
    23   165   167   ar
    24     6     5    1
    25   168   167   ar
    26   168   169    1
    27   139   140    1
    28     2     5    1
    29     2     3    1
    30   143   140    1
    31   143   144    1
    32     5     7    1
    33   145   144    1
    34   104   105    1
    35   104   106    1
    36   104   101    1
    37     4     3    2
    38     3     8   am
    39   144   146    1
    40   100   101    1
    41   101   102    1
    42   102   103    2
    43    99    98   ar
    44    99    97   ar
    45    14    12    1
    46    98    96   ar
    47    13    12    1
    48     8     9    1
    49    97    95   ar
    50    92    91    2
    51   119   120    1
    52   119   118    1
    53    12     9    1
    54    96    94   ar
    55     9    10    1
    56   131   130    2
    57    95    94   ar
    58    91    90    1
    59    94    93    1
    60   118   117    1
    61   130   129    1
    62    82    81    2
    63    90    93    1
    64    90    89    1
    65    87    88   ar
    66    87    85   ar
    67    88    86   ar
    68    10    11    2
    69    10    15   am
    70   107   108    1
    71   117   114    1
    72   112   111    1
    73    81    89   am
    74    81    80    1
    75    85    84   ar
    76    86    84   ar
    77    15    16    1
    78   113   114    1
    79   113   109   am
    80   170   171    1
    81   129   132    1
    82   129   128    1
    83   114   115    1
    84    84    83    1
    85   111   108    1
    86   108   109    1
    87   132   133    1
    88   116   115    2
    89   109   110    2
    90    18    17    2
    91    80    83    1
    92    80    79    1
    93   115   121   am
    94   124   123    2
    95    16    17    1
    96    16    19    1
    97   175   174    1
    98   171   174    1
    99   171   172    1
   100    71    70    2
   101   123   122    1
   102   133   134   ar
   103   133   135   ar
   104   134   136   ar
   105   174   176    1
   106   172   173    2
   107   121   122    1
   108   121   127    1
   109    63    62    2
   110    76    78   ar
   111    76    74   ar
   112    66    65   ar
   113    78    77   ar
   114    70    69    1
   115   122   125    1
   116    74    73   ar
   117   127   126    1
   118   135   137   ar
   119   136   138   ar
   120    67    65   ar
   121    27    25    1
   122    65    64    1
   123    69    68    1
   124    69    72    1
   125    62    68   am
   126    62    61    1
   127    77    75   ar
   128   126   125    1
   129    73    75   ar
   130    73    72    1
   131    41    39   ar
   132    41    40   ar
   133    25    26    1
   134    25    24    1
   135    61    64    1
   136    61    60    1
   137   137   138   ar
   138    39    37   ar
   139    20    21    1
   140    40    38   ar
   141    21    24    1
   142    21    22    1
   143    37    36   ar
   144    37    35   ar
   145    36    34   ar
   146    38    35   ar
   147    22    23    2
   148    35    33   ar
   149    55    54    2
   150    58    57    1
   151    51    49   ar
   152    51    50   ar
   153    34    33   ar
   154    56    57    1
   155    56    53    1
   156    33    32    1
   157    54    53    1
   158    49    47   ar
   159    50    48   ar
   160    57    59    1
   161    53    52    1
   162    28    29    1
   163    52    44   am
   164    32    29    1
   165    47    48   ar
   166    47    46    1
   167    31    30    2
   168    29    30    1
   169    44    43    1
   170    44    45    2
   171    43    46    1
   172    43    42    1
