@<TRIPOS>MOLECULE
tmp/6aolA01.pdb
 83 77 0 0 0
SMALL
GASTEIGER

@<TRIPOS>ATOM
      1  N       -125.2040  143.7560   58.4010 N.3    10  ASN10      -0.1240
      2  CA      -126.1170  144.2460   57.3730 C.3    10  ASN10       0.1653
      3  C       -125.3460  144.8310   56.2010 C.2    10  ASN10       0.2266
      4  O       -125.5940  144.4700   55.0440 O.2    10  ASN10      -0.2867
      5  CB      -127.0830  145.2860   57.9430 C.3    10  ASN10       0.1155
      6  CG      -127.9580  144.7270   59.0260 C.2    10  ASN10       0.2627
      7  OD1     -128.3450  143.5550   58.9900 O.2    10  ASN10      -0.2716
      8  ND2     -128.3000  145.5680   59.9930 N.am   10  ASN10      -0.0877
      9  N       -123.8100  141.9870   54.4570 N.3    13  MET13      -0.1230
     10  CA      -124.7880  141.1960   53.7200 C.3    13  MET13       0.1702
     11  C       -125.1770  141.8730   52.4060 C.2    13  MET13       0.2592
     12  O       -125.3100  141.2110   51.3720 O.2    13  MET13      -0.2718
     13  CB      -126.0220  140.9460   54.5870 C.3    13  MET13       0.0401
     14  CG      -125.8990  139.7990   55.5820 C.3    13  MET13       0.0596
     15  SD      -127.5350  139.3280   56.2060 S.3    13  MET13      -0.1393
     16  CE      -127.6780  140.4180   57.6260 C.3    13  MET13       0.0692
     17  N       -125.3500  143.1930   52.4190 N.am   14  LYS14      -0.1980
     18  CA      -125.6610  143.8800   51.1730 C.3    14  LYS14       0.1596
     19  C       -124.4640  143.8630   50.2320 C.2    14  LYS14       0.2287
     20  O       -124.6090  143.5730   49.0390 O.2    14  LYS14      -0.2864
     21  CB      -126.1150  145.3060   51.4690 C.3    14  LYS14       0.0298
     22  CG      -127.2880  145.3650   52.4160 C.3    14  LYS14       0.0038
     23  CD      -127.6830  146.7890   52.7040 C.3    14  LYS14       0.0206
     24  CE      -129.0130  146.8520   53.4310 C.3    14  LYS14       0.1093
     25  NZ      -129.3400  148.2560   53.7640 N.3    14  LYS14      -0.1314
     26  N       -124.1170  140.8100   48.5130 N.3    17  ILE17      -0.1245
     27  CA      -125.2250  140.5600   47.5980 C.3    17  ILE17       0.1561
     28  C       -125.0480  141.3390   46.3040 C.2    17  ILE17       0.2260
     29  O       -124.9040  140.7530   45.2250 O.2    17  ILE17      -0.2867
     30  CB      -126.5660  140.8890   48.2690 C.3    17  ILE17       0.0252
     31  CG1     -126.9940  139.7370   49.1610 C.3    17  ILE17       0.0019
     32  CG2     -127.6300  141.1280   47.2330 C.3    17  ILE17       0.0019
     33  CD1     -128.3370  139.9690   49.8060 C.3    17  ILE17       0.0001
     34  N       -127.7900  133.9280   51.3680 N.3   124  PHE124     -0.1241
     35  CA      -128.8950  134.8140   51.0560 C.3   124  PHE124      0.1605
     36  C       -128.9620  135.1760   49.5800 C.2   124  PHE124      0.2264
     37  O       -129.9300  135.8200   49.1640 O.2   124  PHE124     -0.2867
     38  CB      -128.7820  136.0720   51.9190 C.3   124  PHE124      0.0534
     39  CG      -129.2270  135.8700   53.3410 C.ar  124  PHE124     -0.0203
     40  CD1     -130.5800  135.6470   53.6400 C.ar  124  PHE124     -0.0042
     41  CD2     -128.3140  135.9140   54.3820 C.ar  124  PHE124     -0.0042
     42  CE1     -131.0090  135.4600   54.9490 C.ar  124  PHE124     -0.0003
     43  CE2     -128.7340  135.7340   55.7120 C.ar  124  PHE124     -0.0003
     44  CZ      -130.0830  135.5000   55.9940 C.ar  124  PHE124     -0.0000
     45  N       -134.5300  132.6840   50.4400 N.3   128  ASP128     -0.1239
     46  CA      -135.3880  133.6250   51.1360 C.3   128  ASP128      0.1674
     47  C       -135.2980  133.4480   52.6410 C.2   128  ASP128      0.2266
     48  O       -135.4450  134.4260   53.3780 O.2   128  ASP128     -0.2867
     49  CB      -136.8210  133.4780   50.6490 C.3   128  ASP128      0.1410
     50  CG      -137.0590  134.2230   49.3620 C.2   128  ASP128      0.3668
     51  OD1     -136.4390  135.2970   49.1920 O.co2 128  ASP128     -0.2456
     52  OD2     -137.8600  133.7400   48.5310 O.co2 128  ASP128     -0.2456
     53  N       -134.1930  135.6080   57.7890 N.3   147  ASP147     -0.1225
     54  CA      -134.4750  136.0940   56.4450 C.3   147  ASP147      0.1805
     55  C       -133.6900  137.3600   56.1140 C.2   147  ASP147      0.2598
     56  O       -134.0730  138.0920   55.1960 O.2   147  ASP147     -0.2718
     57  CB      -135.9660  136.3790   56.2860 C.3   147  ASP147      0.1424
     58  CG      -136.4450  137.4950   57.2000 C.2   147  ASP147      0.3668
     59  OD1     -137.5160  138.0850   56.9310 O.co2 147  ASP147     -0.2456
     60  OD2     -135.7470  137.7760   58.1990 O.co2 147  ASP147     -0.2456
     61  N       -132.6340  137.6490   56.8780 N.am  148  SER148     -0.1938
     62  CA      -131.7160  138.7840   56.8050 C.3   148  SER148      0.2055
     63  C       -132.2270  140.0140   57.5600 C.2   148  SER148      0.2643
     64  O       -131.4480  140.9490   57.7770 O.2   148  SER148     -0.2714
     65  CB      -131.3640  139.2050   55.3620 C.3   148  SER148      0.2130
     66  OG      -132.2810  140.1710   54.8740 O.3   148  SER148     -0.2179
     67  N       -133.4960  140.0600   57.9690 N.am  149  ASN149     -0.1971
     68  CA      -134.0450  141.2460   58.6240 C.3   149  ASN149      0.1688
     69  C       -134.0660  141.1230   60.1380 C.2   149  ASN149      0.2292
     70  O       -134.3530  142.1090   60.8300 O.2   149  ASN149     -0.2864
     71  CB      -135.4450  141.5200   58.0910 C.3   149  ASN149      0.1181
     72  CG      -135.4540  141.6600   56.5880 C.2   149  ASN149      0.2629
     73  OD1     -136.1000  140.8880   55.8710 O.2   149  ASN149     -0.2716
     74  ND2     -134.7130  142.6460   56.0990 N.am  149  ASN149     -0.0877
     75  N       -134.9700  130.7490   46.9620 N.3   173  LYS173     -0.1245
     76  CA      -135.7230  131.6680   46.1350 C.3   173  LYS173      0.1561
     77  C       -136.2760  130.9410   44.9050 C.2   173  LYS173      0.2260
     78  O       -135.8970  129.8060   44.5820 O.2   173  LYS173     -0.2867
     79  CB      -134.8500  132.8490   45.7130 C.3   173  LYS173      0.0271
     80  CG      -134.4870  133.8170   46.8260 C.3   173  LYS173      0.0035
     81  CD      -133.4340  134.8140   46.3470 C.3   173  LYS173      0.0206
     82  CE      -133.1660  135.9110   47.3700 C.3   173  LYS173      0.1093
     83  NZ      -134.3890  136.6900   47.6730 N.3   173  LYS173     -0.1314
@<TRIPOS>BOND
     1    78    77    2
     2    77    76    1
     3    29    28    2
     4    79    76    1
     5    79    80    1
     6    76    75    1
     7    28    27    1
     8    81    80    1
     9    81    82    1
    10    32    30    1
    11    82    83    1
    12    27    30    1
    13    27    26    1
    14    30    31    1
    15    52    50   ar
    16    20    19    2
    17    31    33    1
    18    37    36    2
    19    51    50   ar
    20    50    49    1
    21    36    35    1
    22    19    18    1
    23    45    46    1
    24    49    46    1
    25    35    34    1
    26    35    38    1
    27    46    47    1
    28    18    21    1
    29    18    17    1
    30    12    11    2
    31    21    22    1
    32    38    39    1
    33    11    17   am
    34    11    10    1
    35    22    23    1
    36    47    48    2
    37    23    24    1
    38    39    40   ar
    39    39    41   ar
    40    24    25    1
    41    40    42   ar
    42    10     9    1
    43    10    13    1
    44    41    43   ar
    45    13    14    1
    46    66    65    1
    47    42    44   ar
    48     4     3    2
    49    56    55    2
    50    65    62    1
    51    14    15    1
    52    43    44   ar
    53    73    72    2
    54    74    72   am
    55    55    54    1
    56    55    61   am
    57     3     2    1
    58    15    16    1
    59    57    54    1
    60    57    58    1
    61    54    53    1
    62    72    71    1
    63    62    61    1
    64    62    63    1
    65    59    58   ar
    66    58    60   ar
    67     2     5    1
    68     2     1    1
    69    63    64    2
    70    63    67   am
    71     5     6    1
    72    67    68    1
    73    71    68    1
    74    68    69    1
    75     7     6    2
    76     6     8   am
    77    69    70    2
