@<TRIPOS>MOLECULE
tmp/6aomA01.pdb
 81 73 0 0 0
SMALL
GASTEIGER

@<TRIPOS>ATOM
      1  N       -135.7430   15.6030   94.9920 N.3    71  LEU71      -0.1245
      2  CA      -134.7280   14.5710   95.0410 C.3    71  LEU71       0.1561
      3  C       -133.4240   15.0620   94.4200 C.2    71  LEU71       0.2260
      4  O       -133.4160   15.8950   93.5130 O.2    71  LEU71      -0.2867
      5  CB      -135.2250   13.3160   94.3190 C.3    71  LEU71       0.0270
      6  CG      -136.4400   12.6620   94.9710 C.3    71  LEU71       0.0019
      7  CD1     -136.7770   11.3210   94.3400 C.3    71  LEU71       0.0001
      8  CD2     -136.2310   12.5220   96.4610 C.3    71  LEU71       0.0001
      9  N       -129.7770   13.0560   93.0440 N.3    73  HIS73      -0.1241
     10  CA      -129.1700   11.7530   92.7810 C.3    73  HIS73       0.1621
     11  C       -127.6980   11.9340   92.4550 C.2    73  HIS73       0.2264
     12  O       -127.3480   12.7590   91.5980 O.2    73  HIS73      -0.2867
     13  CB      -129.8330   11.0180   91.6020 C.3    73  HIS73       0.0745
     14  CG      -131.3020   10.7910   91.7710 C.ar   73  HIS73       0.0817
     15  ND1     -131.8180    9.7770   92.5520 N.ar   73  HIS73      -0.2268
     16  CD2     -132.3690   11.4400   91.2420 C.ar   73  HIS73       0.1154
     17  CE1     -133.1380    9.8240   92.5110 C.ar   73  HIS73       0.1986
     18  NE2     -133.4970   10.8220   91.7230 N.ar   73  HIS73      -0.2212
     19  N       -131.4350    7.2040  100.2330 N.3   129  ILE129     -0.1245
     20  CA      -131.6210    5.9310   99.5540 C.3   129  ILE129      0.1561
     21  C       -130.3230    5.6320   98.8320 C.2   129  ILE129      0.2260
     22  O       -129.8190    6.4850   98.0880 O.2   129  ILE129     -0.2867
     23  CB      -132.7980    5.9810   98.5620 C.3   129  ILE129      0.0252
     24  CG1     -133.9660    6.7900   99.1370 C.3   129  ILE129      0.0019
     25  CG2     -133.2580    4.5790   98.2110 C.3   129  ILE129      0.0019
     26  CD1     -134.7120    6.0660  100.2620 C.3   129  ILE129      0.0001
     27  N       -128.9200    3.0330   96.2330 N.3   131  THR131     -0.1218
     28  CA      -129.1300    1.9480   95.2930 C.3   131  THR131      0.1862
     29  C       -127.7710    1.5230   94.7510 C.2   131  THR131      0.2287
     30  O       -127.0390    2.3370   94.1790 O.2   131  THR131     -0.2866
     31  CB      -130.0500    2.3940   94.1580 C.3   131  THR131      0.1770
     32  OG1     -131.1650    3.1250   94.6980 O.3   131  THR131     -0.2211
     33  CG2     -130.5450    1.1930   93.3810 C.3   131  THR131      0.0375
     34  N       -131.2680   -2.0810   97.5910 N.3   141  ILE141     -0.1245
     35  CA      -131.6180   -0.7270   98.0020 C.3   141  ILE141      0.1561
     36  C       -131.4680   -0.6300   99.5050 C.2   141  ILE141      0.2260
     37  O       -131.9400   -1.5040  100.2390 O.2   141  ILE141     -0.2867
     38  CB      -133.0570   -0.3300   97.6230 C.3   141  ILE141      0.0252
     39  CG1     -133.2970   -0.3550   96.1120 C.3   141  ILE141      0.0019
     40  CG2     -133.3790    1.0390   98.1840 C.3   141  ILE141      0.0019
     41  CD1     -134.7440   -0.0640   95.7500 C.3   141  ILE141      0.0001
     42  N       -136.8220   -3.5970   90.6920 N.3   156  ARG156     -0.1245
     43  CA      -136.6380   -3.1980   89.3030 C.3   156  ARG156      0.1563
     44  C       -135.5030   -3.9240   88.6070 C.2   156  ARG156      0.2260
     45  O       -135.2260   -3.6160   87.4430 O.2   156  ARG156     -0.2867
     46  CB      -136.3730   -1.7000   89.1910 C.3   156  ARG156      0.0307
     47  CG      -137.1450   -0.8250   90.1230 C.3   156  ARG156      0.0489
     48  CD      -136.4210    0.4880   90.2280 C.3   156  ARG156      0.2205
     49  NE      -135.3890    0.4360   91.2530 N.pl3 156  ARG156     -0.0865
     50  CZ      -134.8500    1.5170   91.7930 C.cat 156  ARG156      0.5346
     51  NH1     -135.2180    2.7120   91.3620 N.pl3 156  ARG156      0.1354
     52  NH2     -133.9380    1.4040   92.7410 N.pl3 156  ARG156      0.1354
     53  N       -130.5860   -2.2730   87.2190 N.3   159  THR159     -0.1203
     54  CA      -130.5860   -1.0620   86.4110 C.3   159  THR159      0.1994
     55  C       -129.2300   -0.3860   86.3490 C.2   159  THR159      0.2617
     56  O       -129.0060    0.4270   85.4430 O.2   159  THR159     -0.2717
     57  CB      -131.5740   -0.0350   86.9510 C.3   159  THR159      0.1784
     58  OG1     -131.4060    0.1000   88.3660 O.3   159  THR159     -0.2211
     59  CG2     -132.9720   -0.5140   86.6710 C.3   159  THR159      0.0376
     60  N       -128.3640   -0.6130   87.3390 N.am  160  LEU160     -0.1979
     61  CA      -127.1180    0.1440   87.4190 C.3   160  LEU160      0.1596
     62  C       -126.0030   -0.4200   86.5360 C.2   160  LEU160      0.2287
     63  O       -125.1270    0.3380   86.1080 O.2   160  LEU160     -0.2864
     64  CB      -126.6490    0.2080   88.8780 C.3   160  LEU160      0.0297
     65  CG      -127.5120    1.0070   89.8740 C.3   160  LEU160      0.0022
     66  CD1     -126.9530    0.8180   91.2590 C.3   160  LEU160      0.0001
     67  CD2     -127.6640    2.4890   89.5520 C.3   160  LEU160      0.0001
     68  N       -126.0950    4.6460   93.3750 N.3   165  THR165     -0.1218
     69  CA      -126.7760    5.9350   93.4170 C.3   165  THR165      0.1862
     70  C       -127.0540    6.2970   94.8660 C.2   165  THR165      0.2287
     71  O       -127.5400    5.4640   95.6370 O.2   165  THR165     -0.2866
     72  CB      -128.0950    5.9260   92.6420 C.3   165  THR165      0.1770
     73  OG1     -127.8360    5.6940   91.2580 O.3   165  THR165     -0.2211
     74  CG2     -128.7760    7.2760   92.7810 C.3   165  THR165      0.0375
     75  N       -129.4970    8.7380   96.7390 N.3   167  THR167     -0.1218
     76  CA      -130.6830    9.5550   96.5220 C.3   167  THR167      0.1862
     77  C       -130.9950   10.2790   97.8200 C.2   167  THR167      0.2287
     78  O       -131.0170    9.6590   98.8850 O.2   167  THR167     -0.2866
     79  CB      -131.8910    8.7170   96.0710 C.3   167  THR167      0.1770
     80  OG1     -131.6440    8.0940   94.7960 O.3   167  THR167     -0.2211
     81  CG2     -133.1100    9.5880   95.9580 C.3   167  THR167      0.0375
@<TRIPOS>BOND
     1    56    55    2
     2    63    62    2
     3    55    54    1
     4    55    60   am
     5    54    57    1
     6    54    53    1
     7    62    61    1
     8    59    57    1
     9    57    58    1
    10    60    61    1
    11    61    64    1
    12    45    44    2
    13    44    43    1
    14    64    65    1
    15    46    43    1
    16    46    47    1
    17    43    42    1
    18    67    65    1
    19    65    66    1
    20    47    48    1
    21    48    49    1
    22    16    18   ar
    23    16    14   ar
    24    49    50    2
    25    73    72    1
    26    51    50    1
    27    12    11    2
    28    13    14    1
    29    13    10    1
    30    18    17   ar
    31    14    15   ar
    32    50    52    1
    33    11    10    1
    34    17    15   ar
    35    72    74    1
    36    72    69    1
    37    10     9    1
    38    68    69    1
    39    33    31    1
    40    69    70    1
    41     4     3    2
    42    31    32    1
    43    31    28    1
    44    30    29    2
    45     5     6    1
    46     5     2    1
    47     7     6    1
    48     3     2    1
    49    29    28    1
    50    80    79    1
    51    70    71    2
    52     6     8    1
    53     1     2    1
    54    28    27    1
    55    41    39    1
    56    81    79    1
    57    79    76    1
    58    39    38    1
    59    76    75    1
    60    76    77    1
    61    34    35    1
    62    38    35    1
    63    38    40    1
    64    77    78    2
    65    35    36    1
    66    22    21    2
    67    25    23    1
    68    23    24    1
    69    23    20    1
    70    21    20    1
    71    24    26    1
    72    36    37    2
    73    20    19    1
