@<TRIPOS>MOLECULE
tmp/6aomA03.pdb
 174 160 0 0 0
SMALL
GASTEIGER

@<TRIPOS>ATOM
      1  N       -120.0270   13.3390   98.9250 N.3    31  LEU31      -0.1245
      2  CA      -120.6190   12.3410   98.0490 C.3    31  LEU31       0.1561
      3  C       -119.7960   12.1760   96.7990 C.2    31  LEU31       0.2260
      4  O       -119.6120   11.0570   96.3140 O.2    31  LEU31      -0.2867
      5  CB      -122.0540   12.7250   97.6740 C.3    31  LEU31       0.0270
      6  CG      -123.1270   12.5390   98.7550 C.3    31  LEU31       0.0019
      7  CD1     -124.5240   12.8820   98.2460 C.3    31  LEU31       0.0001
      8  CD2     -123.0640   11.1300   99.3210 C.3    31  LEU31       0.0001
      9  N       -116.7060   10.2750   97.9090 N.3    34  ASN34      -0.1225
     10  CA      -116.9820    8.8530   98.0830 C.3    34  ASN34       0.1785
     11  C       -117.2300    8.1480   96.7580 C.2    34  ASN34       0.2597
     12  O       -116.8610    6.9750   96.6030 O.2    34  ASN34      -0.2718
     13  CB      -118.1660    8.6610   99.0140 C.3    34  ASN34       0.1169
     14  CG      -117.7390    8.5560  100.4440 C.2    34  ASN34       0.2627
     15  OD1     -116.8390    7.7910  100.7700 O.2    34  ASN34      -0.2716
     16  ND2     -118.3360    9.3480  101.3000 N.am   34  ASN34      -0.0877
     17  N       -117.8270    8.8370   95.7900 N.am   35  ALA35      -0.1979
     18  CA      -117.9690    8.2540   94.4650 C.3    35  ALA35       0.1597
     19  C       -116.6060    8.0050   93.8120 C.2    35  ALA35       0.2287
     20  O       -116.3780    6.9400   93.2230 O.2    35  ALA35      -0.2864
     21  CB      -118.8370    9.1690   93.6000 C.3    35  ALA35       0.0319
     22  N       -113.7550    7.4270   95.3180 N.3    37  ASP37      -0.1225
     23  CA      -113.1160    6.2750   95.9390 C.3    37  ASP37       0.1805
     24  C       -113.6610    4.9800   95.3620 C.2    37  ASP37       0.2597
     25  O       -112.9020    4.0510   95.0790 O.2    37  ASP37      -0.2718
     26  CB      -113.3210    6.2960   97.4520 C.3    37  ASP37       0.1424
     27  CG      -112.4110    7.2590   98.1490 C.2    37  ASP37       0.3668
     28  OD1     -111.7310    8.0430   97.4600 O.co2  37  ASP37      -0.2456
     29  OD2     -112.3390    7.1980   99.3910 O.co2  37  ASP37      -0.2456
     30  N       -114.9700    4.9190   95.1440 N.am   38  ALA38      -0.1979
     31  CA      -115.5830    3.7120   94.6070 C.3    38  ALA38       0.1597
     32  C       -115.1090    3.4300   93.1890 C.2    38  ALA38       0.2287
     33  O       -114.8070    2.2790   92.8440 O.2    38  ALA38      -0.2864
     34  CB      -117.1090    3.8530   94.6410 C.3    38  ALA38       0.0319
     35  N       -111.7010    2.1270   93.3220 N.3    41  LYS41      -0.1245
     36  CA      -111.6260    0.7640   93.8000 C.3    41  LYS41       0.1561
     37  C       -111.9740   -0.2120   92.6910 C.2    41  LYS41       0.2260
     38  O       -111.4490   -1.3240   92.6640 O.2    41  LYS41      -0.2867
     39  CB      -112.5030    0.6360   95.0450 C.3    41  LYS41       0.0271
     40  CG      -112.2080   -0.5700   95.9070 C.3    41  LYS41       0.0035
     41  CD      -112.7380   -0.2630   97.3080 C.3    41  LYS41       0.0206
     42  CE      -112.5470   -1.4020   98.3220 C.3    41  LYS41       0.1093
     43  NZ      -113.3570   -1.1280   99.5640 N.3    41  LYS41      -0.1314
     44  N       -126.8450   11.1390   93.1000 N.3    74  VAL74      -0.1245
     45  CA      -125.4240   11.0650   92.7600 C.3    74  VAL74       0.1561
     46  C       -125.0960    9.6160   92.4320 C.2    74  VAL74       0.2260
     47  O       -124.9230    8.7750   93.3260 O.2    74  VAL74      -0.2867
     48  CB      -124.5360   11.5920   93.8790 C.3    74  VAL74       0.0252
     49  CG1     -123.1110   11.5750   93.3980 C.3    74  VAL74       0.0019
     50  CG2     -124.9900   13.0100   94.2770 C.3    74  VAL74       0.0019
     51  N       -122.6470    6.8350   90.6730 N.3    76  ASP76      -0.1239
     52  CA      -121.3480    6.4680   90.1330 C.3    76  ASP76       0.1674
     53  C       -121.4050    5.0430   89.5970 C.2    76  ASP76       0.2266
     54  O       -122.3240    4.2810   89.9020 O.2    76  ASP76      -0.2867
     55  CB      -120.2200    6.5930   91.1800 C.3    76  ASP76       0.1410
     56  CG      -120.3910    5.6240   92.3470 C.2    76  ASP76       0.3668
     57  OD1     -120.2220    4.3860   92.1560 O.co2  76  ASP76      -0.2456
     58  OD2     -120.6840    6.1080   93.4640 O.co2  76  ASP76      -0.2456
     59  N       -117.2580    0.3830   92.1580 N.3    79  VAL79      -0.1231
     60  CA      -117.2370   -1.0250   92.5460 C.3    79  VAL79       0.1692
     61  C       -118.5570   -1.5240   93.1200 C.2    79  VAL79       0.2593
     62  O       -118.7690   -2.7400   93.2150 O.2    79  VAL79      -0.2718
     63  CB      -116.0910   -1.1980   93.5710 C.3    79  VAL79       0.0266
     64  CG1     -116.2670   -0.2250   94.7310 C.3    79  VAL79       0.0020
     65  CG2     -115.9840   -2.6260   94.0810 C.3    79  VAL79       0.0020
     66  N       -119.4510   -0.6280   93.5280 N.am   80  GLY80      -0.1942
     67  CA      -120.7440   -1.0510   94.0360 C.3    80  GLY80       0.2014
     68  C       -120.6350   -1.7780   95.3750 C.2    80  GLY80       0.2638
     69  O       -119.5550   -1.9610   95.9390 O.2    80  GLY80      -0.2714
     70  N       -121.7950   -2.2340   95.8690 N.am   81  MET81      -0.1976
     71  CA      -121.8680   -2.8590   97.1850 C.3    81  MET81       0.1605
     72  C       -122.8120   -4.0390   97.1640 C.2    81  MET81       0.2287
     73  O       -123.9760   -3.8910   96.7930 O.2    81  MET81      -0.2864
     74  CB      -122.3360   -1.8630   98.2430 C.3    81  MET81       0.0413
     75  CG      -121.2940   -0.8140   98.5330 C.3    81  MET81       0.0598
     76  SD      -121.9060    0.5300   99.5370 S.3    81  MET81      -0.1393
     77  CE      -121.7210   -0.2510  101.1190 C.3    81  MET81       0.0692
     78  N       -122.5090   -5.6840  102.0400 N.3    85  GLU85      -0.1245
     79  CA      -121.7200   -4.4840  102.2140 C.3    85  GLU85       0.1567
     80  C       -122.6060   -3.3010  102.5620 C.2    85  GLU85       0.2260
     81  O       -122.2100   -2.4610  103.3710 O.2    85  GLU85      -0.2867
     82  CB      -120.8470   -4.2470  100.9970 C.3    85  GLU85       0.0388
     83  CG      -119.8570   -5.3720  100.8340 C.3    85  GLU85       0.1160
     84  CD      -118.9510   -5.2140   99.6700 C.2    85  GLU85       0.3649
     85  OE1     -117.8680   -5.8330   99.7190 O.co2  85  GLU85      -0.2457
     86  OE2     -119.3010   -4.4920   98.7200 O.co2  85  GLU85      -0.2457
     87  N       -121.0830   -1.9000  105.7290 N.3    89  ASN89      -0.1225
     88  CA      -120.3670   -0.6540  105.4480 C.3    89  ASN89       0.1785
     89  C       -121.1750    0.5720  105.8690 C.2    89  ASN89       0.2597
     90  O       -120.5920    1.5370  106.3690 O.2    89  ASN89      -0.2718
     91  CB      -119.9630   -0.5330  103.9830 C.3    89  ASN89       0.1169
     92  CG      -118.7680   -1.3610  103.6590 C.2    89  ASN89       0.2627
     93  OD1     -118.2220   -2.0280  104.5430 O.2    89  ASN89      -0.2716
     94  ND2     -118.3330   -1.3300  102.3930 N.am   89  ASN89      -0.0877
     95  N       -122.5100    0.5250  105.7840 N.am   90  LEU90      -0.1980
     96  CA      -123.3070    1.7310  106.0250 C.3    90  LEU90       0.1596
     97  C       -123.9710    1.8040  107.4000 C.2    90  LEU90       0.2287
     98  O       -124.3590    2.9000  107.8150 O.2    90  LEU90      -0.2864
     99  CB      -124.3920    1.9000  104.9560 C.3    90  LEU90       0.0297
    100  CG      -123.9300    2.2110  103.5320 C.3    90  LEU90       0.0022
    101  CD1     -125.1380    2.4870  102.6510 C.3    90  LEU90       0.0001
    102  CD2     -122.9500    3.3530  103.4970 C.3    90  LEU90       0.0001
    103  N       -122.4100    0.5650  110.2850 N.3    92  THR92      -0.1218
    104  CA      -121.3350    0.2100  111.2060 C.3    92  THR92       0.1862
    105  C       -120.1420    1.1010  110.8980 C.2    92  THR92       0.2287
    106  O       -120.0310    1.6680  109.8070 O.2    92  THR92      -0.2866
    107  CB      -120.9290   -1.2740  111.0550 C.3    92  THR92       0.1770
    108  OG1     -122.0540   -2.1270  111.3190 O.3    92  THR92      -0.2211
    109  CG2     -119.7830   -1.6600  111.9870 C.3    92  THR92       0.0375
    110  N       -114.0320   -0.3010  112.0720 N.3    95  LYS95      -0.1245
    111  CA      -112.7360   -0.1990  111.3940 C.3    95  LYS95       0.1561
    112  C       -112.1500    1.2070  111.4560 C.2    95  LYS95       0.2260
    113  O       -111.3180    1.5030  112.3190 O.2    95  LYS95      -0.2867
    114  CB      -112.8620   -0.6380  109.9310 C.3    95  LYS95       0.0271
    115  CG      -113.8620    0.0720  109.0920 C.3    95  LYS95       0.0035
    116  CD      -113.9680   -0.7940  107.7810 C.3    95  LYS95       0.0206
    117  CE      -114.6980   -0.0480  106.6870 C.3    95  LYS95       0.1093
    118  NZ      -116.1150    0.1580  107.0500 N.3    95  LYS95      -0.1314
    119  N       -113.2770    8.6490  106.4140 N.3   115  GLY115     -0.1210
    120  CA      -114.2030    8.1200  105.4290 C.3   115  GLY115      0.1956
    121  C       -115.6660    8.1770  105.8140 C.2   115  GLY115      0.2611
    122  O       -116.4990    7.5970  105.1100 O.2   115  GLY115     -0.2717
    123  N       -116.0090    8.8910  106.8860 N.am  116  VAL116     -0.1979
    124  CA      -117.3390    8.8380  107.4770 C.3   116  VAL116      0.1595
    125  C       -118.2020    9.9640  106.9250 C.2   116  VAL116      0.2287
    126  O       -119.2420   10.2970  107.4990 O.2   116  VAL116     -0.2864
    127  CB      -117.2560    8.9200  109.0100 C.3   116  VAL116      0.0276
    128  CG1     -116.6330    7.6590  109.5680 C.3   116  VAL116      0.0022
    129  CG2     -116.4600   10.1510  109.4270 C.3   116  VAL116      0.0022
    130  N       -120.2380   10.0420  104.5870 N.3   118  PHE118     -0.1227
    131  CA      -121.5470    9.6680  104.0440 C.3   118  PHE118      0.1736
    132  C       -122.6700   10.2320  104.8950 C.2   118  PHE118      0.2595
    133  O       -123.6360   10.7900  104.3680 O.2   118  PHE118     -0.2718
    134  CB      -121.6890    8.1480  103.9330 C.3   118  PHE118      0.0547
    135  CG      -123.1220    7.6690  103.7340 C.ar  118  PHE118     -0.0202
    136  CD1     -123.7840    7.8750  102.5330 C.ar  118  PHE118     -0.0042
    137  CD2     -123.7890    6.9780  104.7400 C.ar  118  PHE118     -0.0042
    138  CE1     -125.0920    7.4110  102.3430 C.ar  118  PHE118     -0.0003
    139  CE2     -125.0860    6.5220  104.5630 C.ar  118  PHE118     -0.0003
    140  CZ      -125.7360    6.7420  103.3670 C.ar  118  PHE118     -0.0000
    141  N       -122.5400   10.1330  106.2170 N.am  119  TYR119     -0.1976
    142  CA      -123.6110   10.5840  107.0880 C.3   119  TYR119      0.1639
    143  C       -123.8390   12.0850  107.0230 C.2   119  TYR119      0.2290
    144  O       -124.9070   12.5390  107.4500 O.2   119  TYR119     -0.2864
    145  CB      -123.3340   10.1380  108.5250 C.3   119  TYR119      0.0560
    146  CG      -123.2030    8.6320  108.6030 C.ar  119  TYR119     -0.0198
    147  CD1     -124.3040    7.7960  108.3730 C.ar  119  TYR119     -0.0009
    148  CD2     -121.9800    8.0430  108.8470 C.ar  119  TYR119     -0.0009
    149  CE1     -124.1800    6.4190  108.4140 C.ar  119  TYR119      0.0417
    150  CE2     -121.8560    6.6870  108.9040 C.ar  119  TYR119      0.0417
    151  CZ      -122.9470    5.8710  108.6770 C.ar  119  TYR119      0.1957
    152  OH      -122.7810    4.5030  108.7360 O.3   119  TYR119     -0.2866
    153  N       -129.7690    4.4460   99.0630 N.3   130  VAL130     -0.1245
    154  CA      -128.5370    4.0120   98.3990 C.3   130  VAL130      0.1561
    155  C       -128.9100    2.8250   97.5290 C.2   130  VAL130      0.2260
    156  O       -129.1940    1.7310   98.0260 O.2   130  VAL130     -0.2867
    157  CB      -127.4110    3.6490   99.3860 C.3   130  VAL130      0.0252
    158  CG1     -126.2090    3.1550   98.6380 C.3   130  VAL130      0.0019
    159  CG2     -127.0250    4.8390  100.2260 C.3   130  VAL130      0.0019
    160  N       -123.3750    2.7260   92.2400 N.3   164  THR164     -0.1218
    161  CA      -124.1560    3.2040   93.3730 C.3   164  THR164      0.1862
    162  C       -124.8150    4.5240   93.0260 C.2   164  THR164      0.2287
    163  O       -124.1750    5.4050   92.4410 O.2   164  THR164     -0.2866
    164  CB      -123.2890    3.3720   94.6210 C.3   164  THR164      0.1770
    165  OG1     -122.8800    2.0810   95.0690 O.3   164  THR164     -0.2211
    166  CG2     -124.0780    4.0430   95.7390 C.3   164  THR164      0.0375
    167  N       -126.6970    7.5110   95.2440 N.3   166  ILE166     -0.1245
    168  CA      -127.1740    8.1010   96.4810 C.3   166  ILE166      0.1561
    169  C       -128.3530    8.9870   96.1200 C.2   166  ILE166      0.2260
    170  O       -128.2310    9.8890   95.2810 O.2   166  ILE166     -0.2867
    171  CB      -126.0700    8.8950   97.1970 C.3   166  ILE166      0.0252
    172  CG1     -124.8080    8.0450   97.3300 C.3   166  ILE166      0.0019
    173  CG2     -126.5200    9.2960   98.5860 C.3   166  ILE166      0.0019
    174  CD1     -124.9470    6.9480   98.3310 C.3   166  ILE166      0.0001
@<TRIPOS>BOND
     1    53    54    2
     2    53    52    1
     3    52    51    1
     4    52    55    1
     5    55    56    1
     6    57    56   ar
     7    59    60    1
     8   160   161    1
     9    56    58   ar
    10    46    45    1
    11    46    47    2
    12   163   162    2
    13    60    61    1
    14    60    63    1
    15    38    37    2
    16    37    36    1
    17    45    44    1
    18    45    48    1
    19    33    32    2
    20   162   161    1
    21    61    62    2
    22    61    66   am
    23    32    31    1
    24    20    19    2
    25    35    36    1
    26   161   164    1
    27    49    48    1
    28    66    67    1
    29    63    65    1
    30    63    64    1
    31    21    18    1
    32    36    39    1
    33    19    18    1
    34    48    50    1
    35    67    68    1
    36    18    17    1
    37    31    34    1
    38    31    30    1
    39   164   165    1
    40   164   166    1
    41    39    40    1
    42    25    24    2
    43    30    24   am
    44   167   168    1
    45   170   169    2
    46    22    23    1
    47    24    23    1
    48    68    70   am
    49    68    69    2
    50    17    11   am
    51    70    71    1
    52    40    41    1
    53    23    26    1
    54   169   168    1
    55     4     3    2
    56   168   171    1
    57    12    11    2
    58    11    10    1
    59    73    72    2
    60     3     2    1
    61    72    71    1
    62    71    74    1
    63   171   172    1
    64   171   173    1
    65    41    42    1
    66   172   174    1
    67    26    27    1
    68    28    27   ar
    69   155   156    2
    70   155   154    1
    71     5     2    1
    72     5     6    1
    73     9    10    1
    74     2     1    1
    75    10    13    1
    76    27    29   ar
    77    74    75    1
    78     7     6    1
    79    42    43    1
    80   154   153    1
    81   154   157    1
    82    75    76    1
    83   158   157    1
    84    86    84   ar
    85     6     8    1
    86    13    14    1
    87   157   159    1
    88    76    77    1
    89    84    85   ar
    90    84    83    1
    91    14    15    2
    92    14    16   am
    93    83    82    1
    94    82    79    1
    95    78    79    1
    96    79    80    1
    97   138   136   ar
    98   138   140   ar
    99    94    92   am
   100   136   135   ar
   101    80    81    2
   102   101   100    1
   103   140   139   ar
   104   102   100    1
   105   100    99    1
   106    92    91    1
   107    92    93    2
   108   135   134    1
   109   135   137   ar
   110   134   131    1
   111    91    88    1
   112   131   130    1
   113   131   132    1
   114   133   132    2
   115   139   137   ar
   116   132   141   am
   117    99    96    1
   118   122   121    2
   119   120   121    1
   120   120   119    1
   121    88    87    1
   122    88    89    1
   123    95    89   am
   124    95    96    1
   125   121   123   am
   126    89    90    2
   127    96    97    1
   128   141   142    1
   129   117   118    1
   130   117   116    1
   131   123   124    1
   132   125   124    1
   133   125   126    2
   134   143   142    1
   135   143   144    2
   136   142   145    1
   137    97    98    2
   138   124   127    1
   139   116   115    1
   140   147   149   ar
   141   147   146   ar
   142   149   151   ar
   143   145   146    1
   144   146   148   ar
   145   151   152    1
   146   151   150   ar
   147   148   150   ar
   148   127   129    1
   149   127   128    1
   150   115   114    1
   151   106   105    2
   152   114   111    1
   153   103   104    1
   154   105   104    1
   155   107   104    1
   156   107   108    1
   157   107   109    1
   158   111   112    1
   159   111   110    1
   160   112   113    2
