@<TRIPOS>MOLECULE
tmp/6aomA02.pdb
 85 81 0 0 0
SMALL
GASTEIGER

@<TRIPOS>ATOM
      1  N       -124.9080    6.3480  115.5430 N.3    10  ASN10      -0.1225
      2  CA      -125.8360    7.3520  116.0650 C.3    10  ASN10       0.1785
      3  C       -125.0760    8.5490  116.6350 C.2    10  ASN10       0.2597
      4  O       -125.3680    9.7020  116.2980 O.2    10  ASN10      -0.2718
      5  CB      -126.7460    6.7550  117.1490 C.3    10  ASN10       0.1169
      6  CG      -127.7380    5.7230  116.6160 C.2    10  ASN10       0.2627
      7  OD1     -128.2860    5.8660  115.5230 O.2    10  ASN10      -0.2716
      8  ND2     -127.9980    4.6920  117.4160 N.am   10  ASN10      -0.0877
      9  N       -124.0880    8.2840  117.5010 N.am   11  ARG11      -0.1979
     10  CA      -123.2970    9.3540  118.1030 C.3    11  ARG11       0.1597
     11  C       -122.6360   10.2160  117.0400 C.2    11  ARG11       0.2287
     12  O       -122.7140   11.4490  117.0850 O.2    11  ARG11      -0.2864
     13  CB      -122.2540    8.7600  119.0520 C.3    11  ARG11       0.0334
     14  CG      -122.8030    8.5360  120.4590 C.3    11  ARG11       0.0492
     15  CD      -121.8060    7.8760  121.4200 C.3    11  ARG11       0.2205
     16  NE      -122.5020    6.9670  122.3320 N.pl3  11  ARG11      -0.0865
     17  CZ      -122.4210    5.6430  122.2830 C.cat  11  ARG11       0.5346
     18  NH1     -121.6510    5.0720  121.3730 N.pl3  11  ARG11       0.1354
     19  NH2     -123.1080    4.8900  123.1460 N.pl3  11  ARG11       0.1354
     20  N       -123.4480   10.5430  113.8030 N.3    13  MET13      -0.1182
     21  CA      -124.4520   11.2970  113.0540 C.3    13  MET13       0.1917
     22  C       -124.8410   12.5610  113.8070 C.2    13  MET13       0.2634
     23  O       -124.8370   13.6580  113.2380 O.2    13  MET13      -0.2714
     24  CB      -125.6990   10.4500  112.7900 C.2    13  MET13       0.0083
     25  CG      -125.6030    9.4890  111.6130 C.2    13  MET13       0.0282
     26  SD      -127.1630    8.7030  111.1160 S.3    13  MET13      -0.1125
     27  CE      -127.3780    7.4430  112.3630 C.3    13  MET13       0.0742
     28  N       -125.1140   12.4380  115.1090 N.am   14  LYS14      -0.1963
     29  CA      -125.4290   13.6270  115.8910 C.3    14  LYS14       0.1728
     30  C       -124.2570   14.5990  115.8980 C.2    14  LYS14       0.2616
     31  O       -124.4320   15.7950  115.6440 O.2    14  LYS14      -0.2715
     32  CB      -125.8310   13.2360  117.3080 C.3    14  LYS14       0.0311
     33  CG      -127.1060   12.4240  117.3560 C.3    14  LYS14       0.0038
     34  CD      -127.4940   12.1040  118.7540 C.3    14  LYS14       0.0206
     35  CE      -128.7660   11.3200  118.7750 C.3    14  LYS14       0.1093
     36  NZ      -129.1200   10.9840  120.1750 N.3    14  LYS14      -0.1314
     37  N       -123.0470   14.0950  116.1540 N.am   15  LEU15      -0.1977
     38  CA      -121.8670   14.9510  116.1430 C.3    15  LEU15       0.1596
     39  C       -121.7410   15.6910  114.8250 C.2    15  LEU15       0.2287
     40  O       -121.4550   16.8930  114.8000 O.2    15  LEU15      -0.2864
     41  CB      -120.6140   14.1270  116.4010 C.3    15  LEU15       0.0297
     42  CG      -120.5290   13.5400  117.8030 C.3    15  LEU15       0.0022
     43  CD1     -119.1280   12.9850  118.0420 C.3    15  LEU15       0.0001
     44  CD2     -120.9210   14.5450  118.8590 C.3    15  LEU15       0.0001
     45  N       -124.1670   16.4290  112.5280 N.3    17  ILE17      -0.1231
     46  CA      -125.2230   17.4300  112.3480 C.3    17  ILE17       0.1692
     47  C       -124.9980   18.6850  113.1980 C.2    17  ILE17       0.2592
     48  O       -125.2940   19.7980  112.7430 O.2    17  ILE17      -0.2718
     49  CB      -126.6230   16.8160  112.6190 C.3    17  ILE17       0.0266
     50  CG1     -127.1500   16.0260  111.4170 C.3    17  ILE17       0.0019
     51  CG2     -127.6300   17.8710  113.0450 C.3    17  ILE17       0.0020
     52  CD1     -126.6210   14.6480  111.2240 C.3    17  ILE17       0.0001
     53  N       -124.4300   18.5610  114.4030 N.am   18  ASN18      -0.1974
     54  CA      -124.2880   19.7670  115.2160 C.3    18  ASN18       0.1688
     55  C       -122.9770   20.4990  114.9800 C.2    18  ASN18       0.2292
     56  O       -122.8350   21.6410  115.4290 O.2    18  ASN18      -0.2864
     57  CB      -124.4000   19.4660  116.7180 C.3    18  ASN18       0.1181
     58  CG      -125.6360   18.6580  117.0740 C.2    18  ASN18       0.2629
     59  OD1     -125.5440   17.4620  117.3660 O.2    18  ASN18      -0.2716
     60  ND2     -126.8090   19.3050  117.0320 N.am   18  ASN18      -0.0877
     61  N       -127.4220   13.5120  105.9460 N.3   122  PHE122     -0.1241
     62  CA      -128.5630   13.8420  106.7810 C.3   122  PHE122      0.1605
     63  C       -128.6030   15.3100  107.1850 C.2   122  PHE122      0.2264
     64  O       -129.6500   15.7750  107.6480 O.2   122  PHE122     -0.2867
     65  CB      -128.5580   12.9140  107.9890 C.3   122  PHE122      0.0534
     66  CG      -128.9790   11.4970  107.6540 C.ar  122  PHE122     -0.0203
     67  CD1     -130.3170   11.1910  107.4140 C.ar  122  PHE122     -0.0042
     68  CD2     -128.0390   10.4820  107.5340 C.ar  122  PHE122     -0.0042
     69  CE1     -130.7100    9.8970  107.0940 C.ar  122  PHE122     -0.0003
     70  CE2     -128.4400    9.1760  107.2120 C.ar  122  PHE122     -0.0003
     71  CZ      -129.7760    8.8910  106.9930 C.ar  122  PHE122     -0.0000
     72  N       -132.3330    7.8700  109.4410 N.3   146  SER146     -0.1202
     73  CA      -131.3860    7.8990  110.5610 C.3   146  SER146      0.2020
     74  C       -131.9190    7.1750  111.7940 C.2   146  SER146      0.2618
     75  O       -131.1470    6.8940  112.7070 O.2   146  SER146     -0.2717
     76  CB      -130.9510    9.3160  110.9710 C.3   146  SER146      0.2103
     77  OG      -131.9450    9.9200  111.7840 O.3   146  SER146     -0.2182
     78  N       -133.2000    6.8670  111.8560 N.am  147  ASN147     -0.1974
     79  CA      -133.7330    6.1860  113.0220 C.3   147  ASN147      0.1688
     80  C       -133.6880    4.6810  112.8910 C.2   147  ASN147      0.2292
     81  O       -134.0140    3.9800  113.8500 O.2   147  ASN147     -0.2864
     82  CB      -135.1540    6.6470  113.2700 C.3   147  ASN147      0.1181
     83  CG      -135.2110    8.1060  113.4980 C.2   147  ASN147      0.2629
     84  OD1     -134.5040    8.6220  114.3670 O.2   147  ASN147     -0.2716
     85  ND2     -135.9910    8.8070  112.6890 N.am  147  ASN147     -0.0877
@<TRIPOS>BOND
     1    61    62    1
     2    62    63    1
     3    62    65    1
     4    71    69   ar
     5    71    70   ar
     6    69    67   ar
     7    63    64    2
     8    70    68   ar
     9    67    66   ar
    10    68    66   ar
    11    66    65    1
    12    72    73    1
    13    73    76    1
    14    73    74    1
    15    76    77    1
    16    26    25    1
    17    26    27    1
    18    52    50    1
    19    50    49    1
    20    25    24    2
    21    74    78   am
    22    74    75    2
    23    78    79    1
    24    46    45    1
    25    46    49    1
    26    46    47    1
    27    49    51    1
    28    85    83   am
    29    48    47    2
    30    24    21    1
    31    80    79    1
    32    80    81    2
    33    79    82    1
    34    21    20    1
    35    21    22    1
    36    47    53   am
    37    23    22    2
    38    82    83    1
    39    83    84    2
    40    22    28   am
    41    53    54    1
    42    40    39    2
    43    39    38    1
    44    55    54    1
    45    55    56    2
    46    28    29    1
    47    54    57    1
    48     7     6    2
    49     1     2    1
    50    31    30    2
    51    29    30    1
    52    29    32    1
    53    30    37   am
    54     2     3    1
    55     2     5    1
    56    38    37    1
    57    38    41    1
    58     4     3    2
    59    41    42    1
    60     6     5    1
    61     6     8   am
    62     3     9   am
    63    57    58    1
    64    60    58   am
    65    11    12    2
    66    11    10    1
    67    58    59    2
    68    32    33    1
    69    33    34    1
    70     9    10    1
    71    42    43    1
    72    42    44    1
    73    10    13    1
    74    34    35    1
    75    35    36    1
    76    13    14    1
    77    14    15    1
    78    18    17    1
    79    15    16    1
    80    17    16    2
    81    17    19    1
