@<TRIPOS>MOLECULE
tmp/6aoxB00.pdb
 116 107 0 0 0
SMALL
GASTEIGER

@<TRIPOS>ATOM
      1  N        -26.9420  -28.8580  -15.1400 N.3     1  PHE1       -0.1227
      2  CA       -25.4530  -28.8760  -15.0900 C.3     1  PHE1        0.1736
      3  C        -24.9590  -28.8470  -13.6510 C.2     1  PHE1        0.2596
      4  O        -25.4610  -28.0790  -12.8310 O.2     1  PHE1       -0.2718
      5  CB       -24.8820  -27.6850  -15.8580 C.3     1  PHE1        0.0547
      6  CG       -23.3830  -27.6170  -15.8430 C.ar    1  PHE1       -0.0202
      7  CD1      -22.7270  -26.7100  -15.0280 C.ar    1  PHE1       -0.0042
      8  CD2      -22.6280  -28.4690  -16.6340 C.ar    1  PHE1       -0.0042
      9  CE1      -21.3460  -26.6450  -15.0090 C.ar    1  PHE1       -0.0003
     10  CE2      -21.2450  -28.4100  -16.6180 C.ar    1  PHE1       -0.0003
     11  CZ       -20.6050  -27.4970  -15.8040 C.ar    1  PHE1       -0.0000
     12  N        -23.9640  -29.6780  -13.3560 N.am    2  SER2       -0.1952
     13  CA       -23.4340  -29.7950  -12.0020 C.3     2  SER2        0.1924
     14  C        -21.9280  -30.0270  -11.9970 C.2     2  SER2        0.2314
     15  O        -21.3610  -30.5630  -12.9490 O.2     2  SER2       -0.2863
     16  CB       -24.1360  -30.9260  -11.2490 C.3     2  SER2        0.2116
     17  OG       -25.5350  -30.7200  -11.2210 O.3     2  SER2       -0.2180
     18  N        -22.5820  -32.4040   -5.0290 N.3    10  SER10      -0.1217
     19  CA       -22.8440  -31.6590   -6.2540 C.3    10  SER10       0.1889
     20  C        -23.0150  -30.1620   -6.0210 C.2    10  SER10       0.2288
     21  O        -23.6040  -29.7360   -5.0270 O.2    10  SER10      -0.2866
     22  CB       -24.0910  -32.2110   -6.9440 C.3    10  SER10       0.2089
     23  OG       -23.9180  -33.5720   -7.2890 O.3    10  SER10      -0.2183
     24  N        -24.3300  -26.6640   -8.0190 N.3    12  GLY12      -0.1225
     25  CA       -25.1200  -26.2220   -9.1550 C.3    12  GLY12       0.1811
     26  C        -24.8070  -24.7930   -9.5540 C.2    12  GLY12       0.2280
     27  O        -25.1240  -24.3730  -10.6660 O.2    12  GLY12      -0.2866
     28  N        -23.2640  -33.3950  -17.3370 N.3    42  ASN42      -0.1225
     29  CA       -24.6360  -33.0780  -17.6980 C.3    42  ASN42       0.1785
     30  C        -25.5530  -33.8920  -16.7960 C.2    42  ASN42       0.2597
     31  O        -25.2790  -35.0530  -16.5190 O.2    42  ASN42      -0.2718
     32  CB       -24.8850  -33.3860  -19.1760 C.3    42  ASN42       0.1169
     33  CG       -26.2570  -32.9480  -19.6450 C.2    42  ASN42       0.2627
     34  OD1      -27.2770  -33.4990  -19.2300 O.2    42  ASN42      -0.2716
     35  ND2      -26.2890  -31.9460  -20.5160 N.am   42  ASN42      -0.0877
     36  N        -26.6450  -33.2990  -16.3390 N.am   43  ASP43      -0.1960
     37  CA       -27.4630  -33.9390  -15.3130 C.3    43  ASP43       0.1840
     38  C        -28.5080  -34.9000  -15.8830 C.2    43  ASP43       0.2622
     39  O        -29.1280  -35.6560  -15.1320 O.2    43  ASP43      -0.2715
     40  CB       -28.1220  -32.8630  -14.4490 C.3    43  ASP43       0.1450
     41  CG       -27.1570  -32.2770  -13.4310 C.2    43  ASP43       0.3671
     42  OD1      -26.5690  -33.0610  -12.6590 O.co2  43  ASP43      -0.2456
     43  OD2      -26.9480  -31.0460  -13.4250 O.co2  43  ASP43      -0.2456
     44  N        -28.6980  -34.8720  -17.2000 N.am   44  TYR44      -0.1974
     45  CA       -29.6150  -35.7970  -17.8710 C.3    44  TYR44       0.1639
     46  C        -28.9190  -36.8130  -18.7730 C.2    44  TYR44       0.2290
     47  O        -29.2470  -37.9990  -18.7480 O.2    44  TYR44      -0.2864
     48  CB       -30.6230  -35.0040  -18.6950 C.3    44  TYR44       0.0560
     49  CG       -31.6060  -34.2410  -17.8490 C.ar   44  TYR44      -0.0198
     50  CD1      -32.4550  -34.9020  -16.9740 C.ar   44  TYR44      -0.0009
     51  CD2      -31.6690  -32.8620  -17.9060 C.ar   44  TYR44      -0.0009
     52  CE1      -33.3650  -34.2100  -16.1870 C.ar   44  TYR44       0.0417
     53  CE2      -32.5710  -32.1540  -17.1270 C.ar   44  TYR44       0.0417
     54  CZ       -33.4210  -32.8320  -16.2610 C.ar   44  TYR44       0.1957
     55  OH       -34.3220  -32.1320  -15.4760 O.3    44  TYR44      -0.2866
     56  N        -29.9460  -31.9300  -23.9150 N.3    49  ASP49      -0.1239
     57  CA       -29.8190  -30.5280  -23.5310 C.3    49  ASP49       0.1674
     58  C        -28.3620  -30.2100  -23.2090 C.2    49  ASP49       0.2266
     59  O        -27.9500  -30.2270  -22.0500 O.2    49  ASP49      -0.2867
     60  CB       -30.7010  -30.2000  -22.3260 C.3    49  ASP49       0.1410
     61  CG       -30.6860  -28.7220  -21.9840 C.2    49  ASP49       0.3668
     62  OD1      -30.2050  -27.9200  -22.8140 O.co2  49  ASP49      -0.2456
     63  OD2      -31.1350  -28.3600  -20.8780 O.co2  49  ASP49      -0.2456
     64  N        -24.8770  -28.6890  -22.3570 N.3    51  ASP51      -0.1239
     65  CA       -24.3730  -27.5910  -21.5420 C.3    51  ASP51       0.1674
     66  C        -23.1710  -26.9300  -22.2070 C.2    51  ASP51       0.2266
     67  O        -22.3090  -27.6090  -22.7620 O.2    51  ASP51      -0.2867
     68  CB       -23.9880  -28.0870  -20.1480 C.3    51  ASP51       0.1410
     69  CG       -25.1890  -28.5140  -19.3260 C.2    51  ASP51       0.3668
     70  OD1      -26.1720  -27.7450  -19.2610 O.co2  51  ASP51      -0.2456
     71  OD2      -25.1480  -29.6150  -18.7370 O.co2  51  ASP51      -0.2456
     72  N        -22.1100  -20.9490  -17.3140 N.3   125  LYS125     -0.1245
     73  CA       -22.8410  -22.0650  -17.9110 C.3   125  LYS125      0.1561
     74  C        -24.1690  -21.6120  -18.5060 C.2   125  LYS125      0.2260
     75  O        -24.9160  -20.8650  -17.8800 O.2   125  LYS125     -0.2867
     76  CB       -23.0890  -23.1640  -16.8710 C.3   125  LYS125      0.0271
     77  CG       -24.0570  -24.2590  -17.3200 C.3   125  LYS125      0.0035
     78  CD       -25.4300  -24.0710  -16.6870 C.3   125  LYS125      0.0206
     79  CE       -26.5040  -24.8600  -17.4180 C.3   125  LYS125      0.1093
     80  NZ       -27.8370  -24.7420  -16.7620 N.3   125  LYS125     -0.1314
     81  N        -27.2720  -23.6980  -21.0960 N.3   127  ALA127     -0.1245
     82  CA       -27.6470  -24.9300  -21.7760 C.3   127  ALA127      0.1562
     83  C        -28.2720  -24.6360  -23.1410 C.2   127  ALA127      0.2260
     84  O        -28.0640  -23.5610  -23.7020 O.2   127  ALA127     -0.2867
     85  CB       -28.6000  -25.7320  -20.9000 C.3   127  ALA127      0.0290
     86  N        -31.7640  -26.1330  -24.1410 N.3   129  LEU129     -0.1245
     87  CA       -33.2270  -26.1430  -24.1140 C.3   129  LEU129      0.1561
     88  C        -33.7900  -24.9150  -23.4120 C.2   129  LEU129      0.2260
     89  O        -33.2460  -24.4600  -22.4040 O.2   129  LEU129     -0.2867
     90  CB       -33.7640  -27.3720  -23.3800 C.3   129  LEU129      0.0270
     91  CG       -34.1610  -28.6330  -24.1440 C.3   129  LEU129      0.0019
     92  CD1      -33.0030  -29.0940  -24.9880 C.3   129  LEU129      0.0001
     93  CD2      -34.5550  -29.7540  -23.2020 C.3   129  LEU129      0.0001
     94  N        -32.1180  -22.0660  -21.3030 N.3   132  GLY132     -0.1210
     95  CA       -30.8000  -22.6140  -21.0600 C.3   132  GLY132      0.1956
     96  C        -30.4390  -22.5600  -19.5900 C.2   132  GLY132      0.2611
     97  O        -29.4250  -23.1260  -19.1810 O.2   132  GLY132     -0.2717
     98  N        -31.2770  -21.8870  -18.8000 N.am  133  ASN133     -0.1974
     99  CA       -31.0470  -21.7270  -17.3650 C.3   133  ASN133      0.1688
    100  C        -29.6050  -21.3700  -17.0380 C.2   133  ASN133      0.2292
    101  O        -28.8810  -22.1780  -16.4590 O.2   133  ASN133     -0.2864
    102  CB       -31.4330  -23.0070  -16.6240 C.3   133  ASN133      0.1181
    103  CG       -32.9050  -23.3390  -16.7620 C.2   133  ASN133      0.2629
    104  OD1      -33.7270  -22.4660  -17.0420 O.2   133  ASN133     -0.2716
    105  ND2      -33.2460  -24.6080  -16.5700 N.am  133  ASN133     -0.0877
    106  N        -26.1930  -20.3040  -15.4380 N.3   135  ARG135     -0.1245
    107  CA       -25.7050  -20.3320  -14.0630 C.3   135  ARG135      0.1563
    108  C        -24.2610  -19.8530  -14.0170 C.2   135  ARG135      0.2260
    109  O        -23.5140  -20.0210  -14.9810 O.2   135  ARG135     -0.2867
    110  CB       -25.8200  -21.7410  -13.4730 C.3   135  ARG135      0.0307
    111  CG       -27.2280  -22.3230  -13.5120 C.3   135  ARG135      0.0489
    112  CD       -28.1390  -21.6740  -12.4820 C.3   135  ARG135      0.2205
    113  NE       -29.4490  -22.3230  -12.4130 N.pl3 135  ARG135     -0.0865
    114  CZ       -30.5320  -21.9200  -13.0750 C.cat 135  ARG135      0.5346
    115  NH1      -30.4860  -20.8570  -13.8730 N.pl3 135  ARG135      0.1354
    116  NH2      -31.6720  -22.5820  -12.9410 N.pl3 135  ARG135      0.1354
@<TRIPOS>BOND
     1    92    91    1
     2    91    90    1
     3    91    93    1
     4    86    87    1
     5    87    88    1
     6    87    90    1
     7    56    57    1
     8    84    83    2
     9    57    58    1
    10    57    60    1
    11    88    89    2
    12    58    59    2
    13    83    82    1
    14    62    61   ar
    15    67    66    2
    16    64    65    1
    17    60    61    1
    18    66    65    1
    19    61    63   ar
    20    82    81    1
    21    82    85    1
    22    65    68    1
    23    94    95    1
    24    95    96    1
    25    35    33   am
    26    68    69    1
    27    33    34    2
    28    33    32    1
    29    96    97    2
    30    96    98   am
    31    69    70   ar
    32    69    71   ar
    33    32    29    1
    34    98    99    1
    35    46    47    2
    36    46    45    1
    37    48    45    1
    38    48    49    1
    39    74    73    1
    40    74    75    2
    41    73    72    1
    42    73    76    1
    43    51    49   ar
    44    51    53   ar
    45    45    44    1
    46    49    50   ar
    47    29    28    1
    48    29    30    1
    49    79    80    1
    50    79    78    1
    51    99   100    1
    52    99   102    1
    53    77    76    1
    54    77    78    1
    55    44    38   am
    56    53    54   ar
    57   104   103    2
    58   100   101    2
    59    50    52   ar
    60    30    31    2
    61    30    36   am
    62   103   102    1
    63   103   105   am
    64     8    10   ar
    65     8     6   ar
    66    10    11   ar
    67    36    37    1
    68    54    52   ar
    69    54    55    1
    70    38    37    1
    71    38    39    2
    72     5     6    1
    73     5     2    1
    74     6     7   ar
    75    11     9   ar
    76   106   107    1
    77    37    40    1
    78     1     2    1
    79     2     3    1
    80     7     9   ar
    81   109   108    2
    82    40    41    1
    83   107   108    1
    84   107   110    1
    85   115   114    1
    86     3    12   am
    87     3     4    2
    88   111   110    1
    89   111   112    1
    90    41    43   ar
    91    41    42   ar
    92    12    13    1
    93   114   116    1
    94   114   113    2
    95    15    14    2
    96   112   113    1
    97    13    14    1
    98    13    16    1
    99    16    17    1
   100    27    26    2
   101    26    25    1
   102    25    24    1
   103    23    22    1
   104    22    19    1
   105    19    20    1
   106    19    18    1
   107    20    21    2
