@<TRIPOS>MOLECULE
tmp/6ap1D01.pdb
 145 137 0 0 0
SMALL
GASTEIGER

@<TRIPOS>ATOM
      1  N        188.9520  138.2090  125.5340 N.3    23  ASP23      -0.1225
      2  CA       187.8390  138.3790  124.6190 C.3    23  ASP23       0.1805
      3  C        186.7960  139.3010  125.1950 C.2    23  ASP23       0.2598
      4  O        186.1110  139.9990  124.4510 O.2    23  ASP23      -0.2718
      5  CB       187.1940  137.0400  124.2980 C.3    23  ASP23       0.1424
      6  CG       188.1010  136.1380  123.5390 C.2    23  ASP23       0.3668
      7  OD1      189.0460  136.6490  122.9160 O.co2  23  ASP23      -0.2456
      8  OD2      187.8700  134.9170  123.5360 O.co2  23  ASP23      -0.2456
      9  N        186.6570  139.3200  126.5060 N.am   24  VAL24      -0.1966
     10  CA       185.6120  140.1120  127.1230 C.3    24  VAL24       0.1727
     11  C        186.1450  141.5260  127.2390 C.2    24  VAL24       0.2616
     12  O        187.1480  141.7600  127.9130 O.2    24  VAL24      -0.2715
     13  CB       185.2200  139.5360  128.4860 C.3    24  VAL24       0.0290
     14  CG1      184.0950  140.3110  129.0690 C.3    24  VAL24       0.0023
     15  CG2      184.8170  138.1330  128.3420 C.3    24  VAL24       0.0023
     16  N        185.5080  142.4600  126.5570 N.am   25  ALA25      -0.1977
     17  CA       186.0590  143.7910  126.4070 C.3    25  ALA25       0.1597
     18  C        185.4560  144.7260  127.4330 C.2    25  ALA25       0.2287
     19  O        184.2810  144.6050  127.7750 O.2    25  ALA25      -0.2864
     20  CB       185.8010  144.3200  125.0080 C.3    25  ALA25       0.0319
     21  N        185.0670  146.5290  131.2150 N.3    27  LEU27      -0.1245
     22  CA       184.5530  145.9430  132.4530 C.3    27  LEU27       0.1561
     23  C        185.6710  145.3820  133.3130 C.2    27  LEU27       0.2260
     24  O        185.7430  144.1870  133.5470 O.2    27  LEU27      -0.2867
     25  CB       183.5510  144.8320  132.1610 C.3    27  LEU27       0.0270
     26  CG       182.3390  145.0410  131.2820 C.3    27  LEU27       0.0019
     27  CD1      181.6950  143.7010  131.1510 C.3    27  LEU27       0.0001
     28  CD2      181.4050  146.0170  131.8610 C.3    27  LEU27       0.0001
     29  N        169.7050  144.4950  128.7320 N.3    64  PRO64      -0.2102
     30  CA       169.8680  143.2630  127.9560 C.3    64  PRO64       0.1504
     31  C        170.9730  143.3570  126.9280 C.2    64  PRO64       0.2576
     32  O        171.0130  144.2830  126.1300 O.2    64  PRO64      -0.2718
     33  CB       168.5130  143.0990  127.2840 C.3    64  PRO64       0.0282
     34  CG       167.6200  143.7760  128.1430 C.3    64  PRO64       0.0208
     35  CD       168.3130  144.9440  128.6840 C.3    64  PRO64       0.0893
     36  N        171.8640  142.3860  126.9470 N.am   65  GLY65      -0.1943
     37  CA       172.8260  142.2180  125.8920 C.3    65  GLY65       0.2014
     38  C        174.1720  142.8310  126.1030 C.2    65  GLY65       0.2640
     39  O        174.8460  143.1270  125.1250 O.2    65  GLY65      -0.2714
     40  N        174.6040  143.0050  127.3380 N.am   66  THR66      -0.1936
     41  CA       175.7820  143.7890  127.6210 C.3    66  THR66       0.2028
     42  C        176.9570  142.9870  128.1270 C.2    66  THR66       0.2643
     43  O        178.0270  143.5590  128.3010 O.2    66  THR66      -0.2714
     44  CB       175.4610  144.8430  128.6570 C.3    66  THR66       0.1808
     45  OG1      175.0960  144.1690  129.8460 O.3    66  THR66      -0.2208
     46  CG2      174.3110  145.6410  128.2260 C.3    66  THR66       0.0379
     47  N        176.7980  141.7090  128.4010 N.am   67  GLY67      -0.1939
     48  CA       177.9650  140.9260  128.7280 C.3    67  GLY67       0.2014
     49  C        177.8640  139.9440  129.8680 C.2    67  GLY67       0.2639
     50  O        178.8500  139.2890  130.1720 O.2    67  GLY67      -0.2714
     51  N        176.6900  139.7880  130.4670 N.am   68  LYS68      -0.1963
     52  CA       176.5570  139.0470  131.7130 C.3    68  LYS68       0.1728
     53  C        176.7870  137.5580  131.5220 C.2    68  LYS68       0.2617
     54  O        177.6850  136.9770  132.1380 O.2    68  LYS68      -0.2715
     55  CB       175.1840  139.3010  132.2910 C.3    68  LYS68       0.0311
     56  CG       174.9550  140.7300  132.5190 C.3    68  LYS68       0.0038
     57  CD       173.6850  140.9500  133.1930 C.3    68  LYS68       0.0206
     58  CE       172.5650  140.7650  132.2830 C.3    68  LYS68       0.1093
     59  NZ       172.5610  141.8280  131.3020 N.3    68  LYS68      -0.1314
     60  N        175.9900  136.9200  130.6680 N.am   69  SER69      -0.1936
     61  CA       176.1470  135.4960  130.4070 C.3    69  SER69       0.2055
     62  C        177.4740  135.1970  129.7440 C.2    69  SER69       0.2643
     63  O        178.0340  134.1190  129.9370 O.2    69  SER69      -0.2714
     64  CB       175.0170  135.0030  129.5160 C.3    69  SER69       0.2130
     65  OG       173.7370  135.2860  130.0450 O.3    69  SER69      -0.2179
     66  N        178.0070  136.1510  128.9930 N.am   70  TYR70      -0.1973
     67  CA       179.2680  135.9460  128.3000 C.3    70  TYR70       0.1639
     68  C        180.4220  135.9220  129.2780 C.2    70  TYR70       0.2290
     69  O        181.3180  135.0770  129.1830 O.2    70  TYR70      -0.2864
     70  CB       179.4590  137.0490  127.2790 C.3    70  TYR70       0.0560
     71  CG       180.4800  136.7200  126.2600 C.ar   70  TYR70      -0.0198
     72  CD1      180.2660  135.6930  125.3810 C.ar   70  TYR70      -0.0009
     73  CD2      181.6190  137.4630  126.1190 C.ar   70  TYR70      -0.0009
     74  CE1      181.1680  135.3800  124.4380 C.ar   70  TYR70       0.0417
     75  CE2      182.5280  137.1570  125.1610 C.ar   70  TYR70       0.0417
     76  CZ       182.2970  136.1100  124.3310 C.ar   70  TYR70       0.1957
     77  OH       183.1930  135.7850  123.3650 O.3    70  TYR70      -0.2866
     78  N        180.5660  132.7560  130.8150 N.3    73  LYS73      -0.1245
     79  CA       181.2910  131.7650  130.0270 C.3    73  LYS73       0.1561
     80  C        182.7870  131.9160  130.2060 C.2    73  LYS73       0.2260
     81  O        183.5110  130.9150  130.1990 O.2    73  LYS73      -0.2867
     82  CB       180.9460  131.8870  128.5520 C.3    73  LYS73       0.0271
     83  CG       179.5160  131.6270  128.2220 C.3    73  LYS73       0.0035
     84  CD       179.2550  131.9230  126.7800 C.3    73  LYS73       0.0206
     85  CE       177.7940  131.8660  126.4870 C.3    73  LYS73       0.1093
     86  NZ       177.4370  132.2510  125.1100 N.3    73  LYS73      -0.1314
     87  N        168.0720  141.0030  134.4790 N.3   166  ASN166     -0.1240
     88  CA       167.7920  142.2630  133.8190 C.3   166  ASN166      0.1653
     89  C        166.8340  143.1350  134.5880 C.2   166  ASN166      0.2266
     90  O        166.7260  144.3200  134.2800 O.2   166  ASN166     -0.2867
     91  CB       167.1740  142.0410  132.4460 C.3   166  ASN166      0.1155
     92  CG       168.0660  141.3190  131.5530 C.2   166  ASN166      0.2627
     93  OD1      169.2750  141.4790  131.6140 O.2   166  ASN166     -0.2716
     94  ND2      167.4930  140.5200  130.6800 N.am  166  ASN166     -0.0877
     95  N        178.6670  149.7490  126.8000 N.3   188  PRO188     -0.2116
     96  CA       180.0870  150.0220  126.6290 C.3   188  PRO188      0.1372
     97  C        180.3590  151.4500  126.2050 C.2   188  PRO188      0.2244
     98  O        179.5040  152.1420  125.6570 O.2   188  PRO188     -0.2868
     99  CB       180.4980  149.0230  125.5470 C.3   188  PRO188      0.0268
    100  CG       179.2410  148.6430  124.8630 C.3   188  PRO188      0.0207
    101  CD       178.1900  148.6990  125.8900 C.3   188  PRO188      0.0892
    102  N        185.7560  150.4370  124.5770 N.3   192  ALA192     -0.1245
    103  CA       185.1990  149.0960  124.5450 C.3   192  ALA192      0.1562
    104  C        184.6200  148.7680  123.1820 C.2   192  ALA192      0.2260
    105  O        184.8160  147.6580  122.6780 O.2   192  ALA192     -0.2867
    106  CB       184.1320  148.9610  125.6140 C.3   192  ALA192      0.0290
    107  N        185.6760  145.8910  120.5840 N.3   196  MET196     -0.1245
    108  CA       184.7810  144.8440  120.1040 C.3   196  MET196      0.1570
    109  C        184.7990  144.7250  118.5970 C.2   196  MET196      0.2261
    110  O        184.6690  143.6140  118.0800 O.2   196  MET196     -0.2867
    111  CB       183.3520  145.0550  120.5830 C.3   196  MET196      0.0387
    112  CG       183.1440  144.5810  121.9770 C.3   196  MET196      0.0595
    113  SD       181.4490  144.5630  122.5100 S.3   196  MET196     -0.1393
    114  CE       181.2060  146.2870  122.7750 C.3   196  MET196      0.0692
    115  N        187.9760  142.7910  117.8540 N.3   199  ILE199     -0.1231
    116  CA       187.8540  141.3710  118.1710 C.3   199  ILE199      0.1692
    117  C        186.9910  140.6620  117.1390 C.2   199  ILE199      0.2592
    118  O        187.3800  139.6250  116.5900 O.2   199  ILE199     -0.2718
    119  CB       187.2900  141.1770  119.5870 C.3   199  ILE199      0.0266
    120  CG1      188.3030  141.6060  120.6240 C.3   199  ILE199      0.0019
    121  CG2      186.9210  139.7410  119.8220 C.3   199  ILE199      0.0020
    122  CD1      187.7130  141.6800  121.9790 C.3   199  ILE199      0.0001
    123  N        185.8060  141.2090  116.8640 N.am  200  ASN200     -0.1974
    124  CA       184.8400  140.5050  116.0370 C.3   200  ASN200      0.1688
    125  C        185.2380  140.4180  114.5780 C.2   200  ASN200      0.2292
    126  O        184.7290  139.5360  113.8860 O.2   200  ASN200     -0.2864
    127  CB       183.4680  141.1510  116.1340 C.3   200  ASN200      0.1181
    128  CG       182.7780  140.8450  117.4190 C.2   200  ASN200      0.2629
    129  OD1      182.5200  141.7240  118.2260 O.2   200  ASN200     -0.2716
    130  ND2      182.4590  139.5840  117.6170 N.am  200  ASN200     -0.0877
    131  N        176.7770  145.1220  123.0170 N.3   225  GLY225     -0.1210
    132  CA       177.7350  144.2460  122.3700 C.3   225  GLY225      0.1956
    133  C        177.1160  143.2710  121.4020 C.2   225  GLY225      0.2612
    134  O        177.8020  142.7910  120.4900 O.2   225  GLY225     -0.2717
    135  N        175.8310  142.9730  121.5800 N.am  226  SER226     -0.1952
    136  CA       175.1020  142.1700  120.6130 C.3   226  SER226      0.1924
    137  C        175.0290  142.8700  119.2790 C.2   226  SER226      0.2314
    138  O        175.2780  142.2620  118.2330 O.2   226  SER226     -0.2863
    139  CB       173.6980  141.9130  121.1080 C.3   226  SER226      0.2116
    140  OG       173.7340  141.1050  122.2530 O.3   226  SER226     -0.2180
    141  N        178.1530  142.8330  117.4590 N.3   229  ALA229     -0.1245
    142  CA       178.3920  141.5070  116.9020 C.3   229  ALA229      0.1562
    143  C        177.5720  141.2540  115.6400 C.2   229  ALA229      0.2260
    144  O        178.0360  140.5490  114.7340 O.2   229  ALA229     -0.2867
    145  CB       178.1040  140.4410  117.9440 C.3   229  ALA229      0.0290
@<TRIPOS>BOND
     1   126   125    2
     2   125   124    1
     3   144   143    2
     4   143   142    1
     5   124   127    1
     6   124   123    1
     7   127   128    1
     8   118   117    2
     9   123   117   am
    10   142   141    1
    11   142   145    1
    12   117   116    1
    13   128   130   am
    14   128   129    2
    15   115   116    1
    16   110   109    2
    17   116   119    1
    18   138   137    2
    19   109   108    1
    20   137   136    1
    21   119   121    1
    22   119   120    1
    23   108   111    1
    24   108   107    1
    25   134   133    2
    26   111   112    1
    27   136   139    1
    28   136   135    1
    29   120   122    1
    30   139   140    1
    31   133   135   am
    32   133   132    1
    33   112   113    1
    34   132   131    1
    35   113   114    1
    36   105   104    2
    37     7     6   ar
    38   104   103    1
    39    77    76    1
    40     8     6   ar
    41     6     5    1
    42     5     2    1
    43    76    74   ar
    44    76    75   ar
    45    74    72   ar
    46     4     3    2
    47   103   102    1
    48   103   106    1
    49     2     3    1
    50     2     1    1
    51   100    99    1
    52   100   101    1
    53    20    17    1
    54    86    85    1
    55    39    38    2
    56    75    73   ar
    57     3     9   am
    58    72    71   ar
    59    99    96    1
    60    98    97    2
    61   101    95    1
    62    37    38    1
    63    37    36    1
    64    38    40   am
    65    73    71   ar
    66    32    31    2
    67    97    96    1
    68    71    70    1
    69    17    16    1
    70    17    18    1
    71    85    84    1
    72     9    10    1
    73    16    11   am
    74    96    95    1
    75    84    83    1
    76    31    36   am
    77    31    30    1
    78    10    11    1
    79    10    13    1
    80    11    12    2
    81    70    67    1
    82    33    30    1
    83    33    34    1
    84    40    41    1
    85    18    19    2
    86    41    42    1
    87    41    44    1
    88    30    29    1
    89    42    43    2
    90    42    47   am
    91    34    35    1
    92    83    82    1
    93    46    44    1
    94    67    66    1
    95    67    68    1
    96    15    13    1
    97    47    48    1
    98    13    14    1
    99    82    79    1
   100    44    45    1
   101    35    29    1
   102    48    49    1
   103    66    62   am
   104    69    68    2
   105    64    65    1
   106    64    61    1
   107    62    63    2
   108    62    61    1
   109    49    50    2
   110    49    51   am
   111    79    80    1
   112    79    78    1
   113    81    80    2
   114    61    60    1
   115    51    52    1
   116    60    53   am
   117    94    92   am
   118    27    26    1
   119    21    22    1
   120    26    28    1
   121    26    25    1
   122    59    58    1
   123    53    52    1
   124    53    54    2
   125    92    93    2
   126    92    91    1
   127    52    55    1
   128    25    22    1
   129    58    57    1
   130    55    56    1
   131    91    88    1
   132    22    23    1
   133    56    57    1
   134    23    24    2
   135    88    87    1
   136    88    89    1
   137    90    89    2
