@<TRIPOS>MOLECULE
tmp/6ap6B00.pdb
 166 162 0 0 0
SMALL
GASTEIGER

@<TRIPOS>ATOM
      1  N        -14.0480   70.8800   13.7940 N.3    25  PHE25      -0.1241
      2  CA       -13.8420   69.5010   13.3920 C.3    25  PHE25       0.1605
      3  C        -15.1660   68.8210   13.0210 C.2    25  PHE25       0.2264
      4  O        -16.1530   68.9150   13.7470 O.2    25  PHE25      -0.2867
      5  CB       -13.1920   68.7230   14.5270 C.3    25  PHE25       0.0534
      6  CG       -13.0280   67.2630   14.2510 C.ar   25  PHE25      -0.0203
      7  CD1      -12.0400   66.8070   13.3930 C.ar   25  PHE25      -0.0042
      8  CD2      -13.8370   66.3320   14.8870 C.ar   25  PHE25      -0.0042
      9  CE1      -11.8920   65.4470   13.1620 C.ar   25  PHE25      -0.0003
     10  CE2      -13.7020   64.9760   14.6460 C.ar   25  PHE25      -0.0003
     11  CZ       -12.7360   64.5340   13.7820 C.ar   25  PHE25      -0.0000
     12  N        -14.2310   74.8630   17.9290 N.3    94  SER94      -0.1202
     13  CA       -13.3800   73.6700   18.0660 C.3    94  SER94       0.2020
     14  C        -11.9670   74.0510   17.6260 C.2    94  SER94       0.2618
     15  O        -11.4200   75.0300   18.1000 O.2    94  SER94      -0.2717
     16  CB       -14.0650   72.5330   17.2750 C.3    94  SER94       0.2103
     17  OG       -13.2650   71.5580   16.7300 O.3    94  SER94      -0.2182
     18  N        -11.3860   73.3380   16.6610 N.am   95  VAL95      -0.1979
     19  CA        -9.9760   73.6060   16.2830 C.3    95  VAL95       0.1595
     20  C         -9.7700   75.0290   15.7310 C.2    95  VAL95       0.2287
     21  O         -8.6780   75.6240   15.8930 O.2    95  VAL95      -0.2864
     22  CB        -9.4450   72.5050   15.3270 C.3    95  VAL95       0.0276
     23  CG1      -10.2300   72.4450   14.0380 C.3    95  VAL95       0.0022
     24  CG2       -7.9720   72.6830   15.0690 C.3    95  VAL95       0.0022
     25  N        -16.4560   75.8650   22.0830 N.3   118  GLY118     -0.1225
     26  CA       -15.9730   74.4860   22.2050 C.3   118  GLY118      0.1811
     27  C        -14.4430   74.4090   22.0700 C.2   118  GLY118      0.2280
     28  O        -13.9020   73.4800   21.4780 O.2   118  GLY118     -0.2866
     29  N         -6.3290   68.6050   24.7120 N.3   123  PHE123     -0.1241
     30  CA        -7.2810   67.5380   25.0360 C.3   123  PHE123      0.1605
     31  C         -6.7520   66.5510   26.0670 C.2   123  PHE123      0.2264
     32  O         -7.5270   66.0160   26.8630 O.2   123  PHE123     -0.2867
     33  CB        -7.6670   66.7460   23.7950 C.3   123  PHE123      0.0534
     34  CG        -8.5150   67.4860   22.7960 C.ar  123  PHE123     -0.0203
     35  CD1       -9.5130   68.3900   23.1730 C.ar  123  PHE123     -0.0042
     36  CD2       -8.4220   67.1260   21.4480 C.ar  123  PHE123     -0.0042
     37  CE1      -10.3100   69.0170   22.2160 C.ar  123  PHE123     -0.0003
     38  CE2       -9.2390   67.7230   20.4940 C.ar  123  PHE123     -0.0003
     39  CZ       -10.1720   68.6730   20.8820 C.ar  123  PHE123     -0.0000
     40  N         -9.1920   63.6660   28.2990 N.3   133  PHE133     -0.1241
     41  CA        -8.7930   62.4460   27.6000 C.3   133  PHE133      0.1605
     42  C         -7.4640   61.9070   28.1080 C.2   133  PHE133      0.2264
     43  O         -6.5420   62.6610   28.3650 O.2   133  PHE133     -0.2867
     44  CB        -8.7170   62.7390   26.1010 C.3   133  PHE133      0.0534
     45  CG       -10.0400   63.1760   25.4980 C.ar  133  PHE133     -0.0203
     46  CD1      -10.9500   62.2340   25.0390 C.ar  133  PHE133     -0.0042
     47  CD2      -10.3800   64.5230   25.4170 C.ar  133  PHE133     -0.0042
     48  CE1      -12.1710   62.6360   24.5170 C.ar  133  PHE133     -0.0003
     49  CE2      -11.6010   64.9300   24.8830 C.ar  133  PHE133     -0.0003
     50  CZ       -12.4820   63.9900   24.4170 C.ar  133  PHE133     -0.0000
     51  N         -7.4170   57.2980   23.9420 N.3   138  ILE138     -0.1245
     52  CA        -7.4270   57.9360   22.6290 C.3   138  ILE138      0.1561
     53  C         -6.7840   57.0640   21.5540 C.2   138  ILE138      0.2260
     54  O         -7.2630   57.0570   20.4140 O.2   138  ILE138     -0.2867
     55  CB        -6.8630   59.3810   22.6840 C.3   138  ILE138      0.0252
     56  CG1       -7.9520   60.3060   23.2250 C.3   138  ILE138      0.0019
     57  CG2       -6.3850   59.8950   21.3290 C.3   138  ILE138      0.0019
     58  CD1       -9.1980   60.4470   22.3540 C.3   138  ILE138      0.0001
     59  N         -9.4760   54.7870   20.5620 N.3   141  VAL141     -0.1231
     60  CA       -10.3780   55.4970   19.6410 C.3   141  VAL141      0.1692
     61  C         -9.8070   55.5600   18.2190 C.2   141  VAL141      0.2592
     62  O        -10.5200   55.2890   17.2660 O.2   141  VAL141     -0.2718
     63  CB       -10.7580   56.9040   20.1750 C.3   141  VAL141      0.0266
     64  CG1      -11.5270   57.7150   19.1420 C.3   141  VAL141      0.0020
     65  CG2      -11.5620   56.7730   21.4720 C.3   141  VAL141      0.0020
     66  N         -8.5270   55.9000   18.0860 N.am  142  PHE142     -0.1976
     67  CA        -7.8960   55.9990   16.7650 C.3   142  PHE142      0.1639
     68  C         -7.8700   54.6490   16.0510 C.2   142  PHE142      0.2290
     69  O         -8.0670   54.5920   14.8370 O.2   142  PHE142     -0.2864
     70  CB        -6.4710   56.5860   16.8700 C.3   142  PHE142      0.0560
     71  CG        -6.4230   58.0360   17.3070 C.ar  142  PHE142     -0.0200
     72  CD1       -7.5070   58.9060   17.1130 C.ar  142  PHE142     -0.0042
     73  CD2       -5.2530   58.5420   17.8670 C.ar  142  PHE142     -0.0042
     74  CE1       -7.4410   60.2310   17.5160 C.ar  142  PHE142     -0.0003
     75  CE2       -5.1790   59.8590   18.2560 C.ar  142  PHE142     -0.0003
     76  CZ        -6.2610   60.7080   18.0580 C.ar  142  PHE142     -0.0000
     77  N        -11.4050   54.1750   14.7480 N.3   145  MET145     -0.1245
     78  CA       -11.6370   54.9940   13.5610 C.3   145  MET145      0.1570
     79  C        -11.0510   54.3540   12.2970 C.2   145  MET145      0.2261
     80  O        -11.7080   54.3140   11.2430 O.2   145  MET145     -0.2867
     81  CB       -11.0580   56.3740   13.7420 C.3   145  MET145      0.0387
     82  CG       -11.5690   57.3150   12.6780 C.3   145  MET145      0.0595
     83  SD       -10.6390   58.8300   12.5730 S.3   145  MET145     -0.1393
     84  CE       -11.0220   59.6900   14.1020 C.3   145  MET145      0.0692
     85  N        -17.3570   54.1140   13.9210 N.3   152  TRP152     -0.1241
     86  CA       -16.8170   55.2020   14.7440 C.3   152  TRP152      0.1605
     87  C        -17.6890   56.4730   14.6590 C.2   152  TRP152      0.2264
     88  O        -18.0410   57.0540   15.6770 O.2   152  TRP152     -0.2867
     89  CB       -15.3500   55.5310   14.4090 C.3   152  TRP152      0.0550
     90  CG       -14.9430   56.7270   15.1670 C.ar  152  TRP152      0.0003
     91  CD1      -14.6040   56.7890   16.4910 C.ar  152  TRP152      0.0946
     92  CD2      -14.8970   58.0730   14.6770 C.ar  152  TRP152      0.0152
     93  NE1      -14.3410   58.0830   16.8420 N.ar  152  TRP152     -0.2442
     94  CE2      -14.5280   58.8950   15.7580 C.ar  152  TRP152      0.0810
     95  CE3      -15.1650   58.6620   13.4360 C.ar  152  TRP152      0.0012
     96  CZ2      -14.3910   60.2690   15.6340 C.ar  152  TRP152      0.0191
     97  CZ3      -15.0320   60.0240   13.3110 C.ar  152  TRP152      0.0001
     98  CH2      -14.6440   60.8180   14.4100 C.ar  152  TRP152      0.0015
     99  N        -19.6050   58.2780   17.7020 N.3   156  PHE156     -0.1241
    100  CA       -19.0400   59.5330   18.1290 C.3   156  PHE156      0.1605
    101  C        -20.0100   60.7110   17.9850 C.2   156  PHE156      0.2264
    102  O        -20.1010   61.5660   18.8760 O.2   156  PHE156     -0.2867
    103  CB       -17.7570   59.7760   17.3290 C.3   156  PHE156      0.0534
    104  CG       -17.1130   61.0710   17.6310 C.ar  156  PHE156     -0.0203
    105  CD1      -16.3000   61.2050   18.7510 C.ar  156  PHE156     -0.0042
    106  CD2      -17.2410   62.1410   16.7610 C.ar  156  PHE156     -0.0042
    107  CE1      -15.6730   62.4010   19.0070 C.ar  156  PHE156     -0.0003
    108  CE2      -16.6390   63.3540   17.0310 C.ar  156  PHE156     -0.0003
    109  CZ       -15.8420   63.4800   18.1500 C.ar  156  PHE156     -0.0000
    110  N         -6.0680   64.4980   11.0510 N.3   187  VAL187     -0.1231
    111  CA        -6.4390   65.7620   11.7060 C.3   187  VAL187      0.1692
    112  C         -6.6230   65.5360   13.2050 C.2   187  VAL187      0.2592
    113  O         -6.1810   66.3570   14.0190 O.2   187  VAL187     -0.2718
    114  CB        -7.7330   66.3560   11.1010 C.3   187  VAL187      0.0266
    115  CG1       -8.2570   67.5360   11.9260 C.3   187  VAL187      0.0020
    116  CG2       -7.5050   66.7900    9.6550 C.3   187  VAL187      0.0020
    117  N         -7.3150   64.4570   13.5530 N.am  188  SER188     -0.1952
    118  CA        -7.5130   64.1090   14.9570 C.3   188  SER188      0.1924
    119  C         -6.1890   63.9290   15.6850 C.2   188  SER188      0.2314
    120  O         -5.9930   64.4850   16.7540 O.2   188  SER188     -0.2863
    121  CB        -8.3340   62.8370   15.0900 C.3   188  SER188      0.2116
    122  OG        -9.6230   63.0150   14.4910 O.3   188  SER188     -0.2180
    123  N         -4.3760   67.2990   16.2640 N.3   191  VAL191     -0.1231
    124  CA        -4.8910   68.1530   17.3430 C.3   191  VAL191      0.1692
    125  C         -4.7100   67.5130   18.7150 C.2   191  VAL191      0.2592
    126  O         -4.3820   68.2330   19.6870 O.2   191  VAL191     -0.2718
    127  CB        -6.3470   68.5540   17.0680 C.3   191  VAL191      0.0266
    128  CG1       -6.8500   69.4360   18.1770 C.3   191  VAL191      0.0020
    129  CG2       -6.4420   69.2920   15.7220 C.3   191  VAL191      0.0020
    130  N         -4.8620   66.1980   18.8390 N.am  192  PHE192     -0.1976
    131  CA        -4.5350   65.5290   20.1100 C.3   192  PHE192      0.1639
    132  C         -3.0490   65.6860   20.4590 C.2   192  PHE192      0.2290
    133  O         -2.6780   65.7340   21.6370 O.2   192  PHE192     -0.2864
    134  CB        -4.9670   64.0670   20.1270 C.3   192  PHE192      0.0560
    135  CG        -6.3970   63.8840   20.5360 C.ar  192  PHE192     -0.0200
    136  CD1       -7.4110   63.9610   19.6110 C.ar  192  PHE192     -0.0042
    137  CD2       -6.7160   63.6940   21.8860 C.ar  192  PHE192     -0.0042
    138  CE1       -8.7350   63.8090   20.0100 C.ar  192  PHE192     -0.0003
    139  CE2       -8.0200   63.5530   22.2830 C.ar  192  PHE192     -0.0003
    140  CZ        -9.0370   63.6040   21.3400 C.ar  192  PHE192     -0.0000
    141  N        -18.4900   67.0800   25.4260 N.3   216  HIS216     -0.1226
    142  CA       -17.6760   65.8670   25.3360 C.3   216  HIS216      0.1752
    143  C        -16.1700   66.1320   25.1640 C.2   216  HIS216      0.2596
    144  O        -15.3570   65.3630   25.6510 O.2   216  HIS216     -0.2718
    145  CB       -18.2050   65.0240   24.1600 C.3   216  HIS216      0.0759
    146  CG       -17.4640   63.7540   23.9350 C.ar  216  HIS216      0.0818
    147  ND1      -16.6860   63.5490   22.8150 N.ar  216  HIS216     -0.2268
    148  CD2      -17.3750   62.6220   24.6720 C.ar  216  HIS216      0.1154
    149  CE1      -16.1340   62.3500   22.8810 C.ar  216  HIS216      0.1986
    150  NE2      -16.5360   61.7660   23.9920 N.ar  216  HIS216     -0.2212
    151  N        -15.8290   67.1820   24.4130 N.am  217  SER217     -0.1952
    152  CA       -14.4540   67.5420   24.0980 C.3   217  SER217      0.1924
    153  C        -13.8050   68.5020   25.0740 C.2   217  SER217      0.2314
    154  O        -12.5670   68.6630   25.0300 O.2   217  SER217     -0.2863
    155  CB       -14.4340   68.2020   22.7130 C.3   217  SER217      0.2116
    156  OG       -14.7620   67.2390   21.7490 O.3   217  SER217     -0.2180
    157  N        -21.2290   69.7820   22.2890 N.3   244  HIS244     -0.1241
    158  CA       -20.0350   70.3940   21.7170 C.3   244  HIS244      0.1621
    159  C        -20.3560   71.2320   20.4680 C.2   244  HIS244      0.2264
    160  O        -19.4770   71.9910   20.0100 O.2   244  HIS244     -0.2867
    161  CB       -19.0210   69.2960   21.3940 C.3   244  HIS244      0.0745
    162  CG       -17.6850   69.8010   20.9290 C.ar  244  HIS244      0.0817
    163  ND1      -16.9520   70.7470   21.6090 N.ar  244  HIS244     -0.2268
    164  CD2      -16.9430   69.4690   19.8420 C.ar  244  HIS244      0.1154
    165  CE1      -15.8280   70.9880   20.9620 C.ar  244  HIS244      0.1986
    166  NE2      -15.7920   70.2190   19.8890 N.ar  244  HIS244     -0.2212
@<TRIPOS>BOND
     1   116   114    1
     2   110   111    1
     3   114   111    1
     4   114   115    1
     5    80    79    2
     6   111   112    1
     7    79    78    1
     8    83    82    1
     9    83    84    1
    10    82    81    1
    11     3     2    1
    12     3     4    2
    13     9     7   ar
    14     9    11   ar
    15   112   117   am
    16   112   113    2
    17    97    95   ar
    18    97    98   ar
    19     2     1    1
    20     2     5    1
    21     7     6   ar
    22    95    92   ar
    23   117   118    1
    24    78    81    1
    25    78    77    1
    26    11    10   ar
    27    85    86    1
    28    23    22    1
    29     6     5    1
    30     6     8   ar
    31    89    86    1
    32    89    90    1
    33    98    96   ar
    34   122   121    1
    35    10     8   ar
    36    87    86    1
    37    87    88    2
    38    92    90   ar
    39    92    94   ar
    40    69    68    2
    41   118   121    1
    42   118   119    1
    43    24    22    1
    44    90    91   ar
    45    22    19    1
    46    96    94   ar
    47   119   120    2
    48   129   127    1
    49    20    21    2
    50    20    19    1
    51    94    93   ar
    52    68    67    1
    53   123   124    1
    54    19    18    1
    55    91    93   ar
    56    18    14   am
    57    17    16    1
    58   106   108   ar
    59   106   104   ar
    60    67    70    1
    61    67    66    1
    62    70    71    1
    63   108   109   ar
    64   127   124    1
    65   127   128    1
    66    72    71   ar
    67    72    74   ar
    68    62    61    2
    69    16    13    1
    70    71    73   ar
    71   103   104    1
    72   103   100    1
    73   124   125    1
    74    74    76   ar
    75    14    13    1
    76    14    15    2
    77   104   105   ar
    78    99   100    1
    79    73    75   ar
    80    12    13    1
    81   101   100    1
    82   101   102    2
    83    76    75   ar
    84    66    61   am
    85   109   107   ar
    86    61    60    1
    87   125   130   am
    88   125   126    2
    89   105   107   ar
    90   130   131    1
    91    64    63    1
    92   136   138   ar
    93   136   135   ar
    94    60    63    1
    95    60    59    1
    96   164   166   ar
    97   164   162   ar
    98   166   165   ar
    99   138   140   ar
   100   160   159    2
   101   131   134    1
   102   131   132    1
   103   134   135    1
   104    63    65    1
   105    54    53    2
   106   132   133    2
   107   159   158    1
   108    38    39   ar
   109    38    36   ar
   110   135   137   ar
   111    39    37   ar
   112   162   161    1
   113   162   163   ar
   114   165   163   ar
   115    57    55    1
   116   140   139   ar
   117   161   158    1
   118    36    34   ar
   119    28    27    2
   120    53    52    1
   121   158   157    1
   122   156   155    1
   123   137   139   ar
   124    27    26    1
   125    25    26    1
   126    37    35   ar
   127    58    56    1
   128    52    55    1
   129    52    51    1
   130    55    56    1
   131   155   152    1
   132    34    35   ar
   133    34    33    1
   134   147   149   ar
   135   147   146   ar
   136   149   150   ar
   137    33    30    1
   138   146   145    1
   139   146   148   ar
   140   150   148   ar
   141   152   151    1
   142   152   153    1
   143   145   142    1
   144   151   143   am
   145    50    48   ar
   146    50    49   ar
   147    48    46   ar
   148    29    30    1
   149    49    47   ar
   150   154   153    2
   151    30    31    1
   152    46    45   ar
   153   143   142    1
   154   143   144    2
   155   142   141    1
   156    47    45   ar
   157    45    44    1
   158    31    32    2
   159    44    41    1
   160    41    42    1
   161    41    40    1
   162    42    43    2
