@<TRIPOS>MOLECULE
tmp/6ap7A00.pdb
 166 162 0 0 0
SMALL
GASTEIGER

@<TRIPOS>ATOM
      1  N        -11.7080  -46.7440  -36.4600 N.3    25  PHE25      -0.1241
      2  CA       -11.9250  -45.3620  -36.8670 C.3    25  PHE25       0.1605
      3  C        -10.6540  -44.7100  -37.3030 C.2    25  PHE25       0.2264
      4  O         -9.6440  -44.7490  -36.6010 O.2    25  PHE25      -0.2867
      5  CB       -12.5270  -44.5410  -35.7340 C.3    25  PHE25       0.0534
      6  CG       -12.7900  -43.1110  -36.0800 C.ar   25  PHE25      -0.0203
      7  CD1      -13.7820  -42.7210  -36.9660 C.ar   25  PHE25      -0.0042
      8  CD2      -11.9520  -42.1330  -35.5440 C.ar   25  PHE25      -0.0042
      9  CE1      -13.9170  -41.3730  -37.2530 C.ar   25  PHE25      -0.0003
     10  CE2      -12.1070  -40.8000  -35.8170 C.ar   25  PHE25      -0.0003
     11  CZ       -13.1150  -40.4130  -36.6440 C.ar   25  PHE25      -0.0000
     12  N        -11.5120  -50.4220  -32.1580 N.3    94  SER94      -0.1202
     13  CA       -12.3590  -49.2750  -32.1480 C.3    94  SER94       0.2020
     14  C        -13.7810  -49.7280  -32.5360 C.2    94  SER94       0.2618
     15  O        -14.3190  -50.7390  -32.0120 O.2    94  SER94      -0.2717
     16  CB       -11.6610  -48.2000  -33.0430 C.3    94  SER94       0.2103
     17  OG       -12.4570  -47.1620  -33.5330 O.3    94  SER94      -0.2182
     18  N        -14.4140  -48.9980  -33.4280 N.am   95  VAL95      -0.1979
     19  CA       -15.7750  -49.3080  -33.8140 C.3    95  VAL95       0.1595
     20  C        -15.9570  -50.7470  -34.3370 C.2    95  VAL95       0.2287
     21  O        -17.0450  -51.3450  -34.1570 O.2    95  VAL95      -0.2864
     22  CB       -16.3210  -48.2860  -34.8470 C.3    95  VAL95       0.0276
     23  CG1      -15.5510  -48.2960  -36.1220 C.3    95  VAL95       0.0022
     24  CG2      -17.8070  -48.4360  -35.0680 C.3    95  VAL95       0.0022
     25  N         -9.2670  -51.2300  -27.9300 N.3   118  GLY118     -0.1225
     26  CA        -9.8020  -49.8490  -27.9300 C.3   118  GLY118      0.1811
     27  C        -11.3210  -49.7920  -28.0230 C.2   118  GLY118      0.2280
     28  O        -11.8770  -48.8900  -28.6440 O.2   118  GLY118     -0.2866
     29  N        -19.5540  -43.8680  -25.7750 N.3   123  PHE123     -0.1241
     30  CA       -18.6090  -42.7960  -25.4800 C.3   123  PHE123      0.1605
     31  C        -19.1550  -41.7750  -24.5050 C.2   123  PHE123      0.2264
     32  O        -18.4330  -41.2290  -23.6390 O.2   123  PHE123     -0.2867
     33  CB       -18.1830  -42.0450  -26.7150 C.3   123  PHE123      0.0534
     34  CG       -17.2930  -42.8040  -27.6510 C.ar  123  PHE123     -0.0203
     35  CD1      -16.2390  -43.5860  -27.2140 C.ar  123  PHE123     -0.0042
     36  CD2      -17.4770  -42.6740  -29.0100 C.ar  123  PHE123     -0.0042
     37  CE1      -15.4320  -44.2790  -28.1130 C.ar  123  PHE123     -0.0003
     38  CE2      -16.6420  -43.2960  -29.9150 C.ar  123  PHE123     -0.0003
     39  CZ       -15.6280  -44.1460  -29.4590 C.ar  123  PHE123     -0.0000
     40  N        -16.9080  -38.8300  -22.2470 N.3   133  PHE133     -0.1241
     41  CA       -17.2600  -37.6130  -22.9750 C.3   133  PHE133      0.1605
     42  C        -18.6050  -37.0470  -22.5880 C.2   133  PHE133      0.2264
     43  O        -19.5290  -37.8010  -22.3480 O.2   133  PHE133     -0.2867
     44  CB       -17.2510  -37.9020  -24.4780 C.3   133  PHE133      0.0534
     45  CG       -15.9120  -38.3570  -24.9930 C.ar  133  PHE133     -0.0203
     46  CD1      -15.5420  -39.6910  -24.9470 C.ar  133  PHE133     -0.0042
     47  CD2      -15.0190  -37.4430  -25.5420 C.ar  133  PHE133     -0.0042
     48  CE1      -14.3260  -40.1150  -25.4310 C.ar  133  PHE133     -0.0003
     49  CE2      -13.7650  -37.8650  -26.0290 C.ar  133  PHE133     -0.0003
     50  CZ       -13.4190  -39.2050  -25.9610 C.ar  133  PHE133     -0.0000
     51  N        -18.4580  -32.5480  -26.8850 N.3   138  ILE138     -0.1245
     52  CA       -18.4850  -33.2400  -28.1530 C.3   138  ILE138      0.1561
     53  C        -19.1020  -32.4090  -29.2810 C.2   138  ILE138      0.2260
     54  O        -18.6000  -32.4810  -30.3820 O.2   138  ILE138     -0.2867
     55  CB       -19.0740  -34.6770  -28.0090 C.3   138  ILE138      0.0252
     56  CG1      -17.9180  -35.6530  -27.8900 C.3   138  ILE138      0.0019
     57  CG2      -19.9900  -35.0890  -29.1490 C.3   138  ILE138      0.0019
     58  CD1      -17.0550  -35.8200  -29.1460 C.3   138  ILE138      0.0001
     59  N        -16.3020  -30.3260  -30.5450 N.3   141  VAL141     -0.1231
     60  CA       -15.4040  -31.0620  -31.4120 C.3   141  VAL141      0.1692
     61  C        -15.9940  -31.2330  -32.8140 C.2   141  VAL141      0.2592
     62  O        -15.2760  -31.0620  -33.7840 O.2   141  VAL141     -0.2718
     63  CB       -15.0280  -32.4350  -30.8360 C.3   141  VAL141      0.0266
     64  CG1      -14.1500  -33.1990  -31.8380 C.3   141  VAL141      0.0020
     65  CG2      -14.2960  -32.2200  -29.5290 C.3   141  VAL141      0.0020
     66  N        -17.2850  -31.5610  -32.9030 N.am  142  PHE142     -0.1976
     67  CA       -17.9260  -31.6900  -34.2170 C.3   142  PHE142      0.1639
     68  C        -17.8640  -30.3740  -35.0300 C.2   142  PHE142      0.2290
     69  O        -17.6650  -30.3910  -36.2370 O.2   142  PHE142     -0.2864
     70  CB       -19.3730  -32.1860  -34.0860 C.3   142  PHE142      0.0560
     71  CG       -19.5060  -33.5730  -33.5150 C.ar  142  PHE142     -0.0200
     72  CD1      -18.4700  -34.5010  -33.6020 C.ar  142  PHE142     -0.0042
     73  CD2      -20.6870  -33.9510  -32.8730 C.ar  142  PHE142     -0.0042
     74  CE1      -18.6160  -35.7840  -33.0580 C.ar  142  PHE142     -0.0003
     75  CE2      -20.8200  -35.2280  -32.3510 C.ar  142  PHE142     -0.0003
     76  CZ       -19.7790  -36.1360  -32.4460 C.ar  142  PHE142     -0.0000
     77  N        -14.3580  -30.0750  -36.3590 N.3   145  MET145     -0.1196
     78  CA       -14.1610  -31.0540  -37.4370 C.3   145  MET145      0.1786
     79  C        -14.7570  -30.5220  -38.7180 C.2   145  MET145      0.2306
     80  O        -14.1820  -30.6760  -39.7950 O.2   145  MET145     -0.2863
     81  CB       -14.8590  -32.3720  -37.1350 C.2   145  MET145      0.0070
     82  CG       -14.2160  -33.2810  -36.0800 C.2   145  MET145      0.0282
     83  SD       -15.2030  -34.7380  -35.5360 S.3   145  MET145     -0.1125
     84  CE       -14.8540  -35.7210  -36.9670 C.3   145  MET145      0.0742
     85  N         -8.2800  -30.2510  -37.3410 N.3   152  TRP152     -0.1241
     86  CA        -8.8310  -31.1690  -36.3820 C.3   152  TRP152      0.1605
     87  C         -7.9810  -32.4440  -36.3610 C.2   152  TRP152      0.2264
     88  O         -7.6180  -32.9440  -35.2860 O.2   152  TRP152     -0.2867
     89  CB       -10.3350  -31.4940  -36.6350 C.3   152  TRP152      0.0550
     90  CG       -10.7780  -32.5940  -35.8010 C.ar  152  TRP152      0.0003
     91  CD1      -11.0840  -32.5690  -34.4570 C.ar  152  TRP152      0.0946
     92  CD2      -10.8130  -33.9730  -36.1900 C.ar  152  TRP152      0.0152
     93  NE1      -11.3770  -33.8320  -34.0180 N.ar  152  TRP152     -0.2442
     94  CE2      -11.2140  -34.7230  -35.0580 C.ar  152  TRP152      0.0810
     95  CE3      -10.5880  -34.6360  -37.4060 C.ar  152  TRP152      0.0012
     96  CZ2      -11.3530  -36.0900  -35.0890 C.ar  152  TRP152      0.0191
     97  CZ3      -10.7480  -36.0100  -37.4290 C.ar  152  TRP152      0.0001
     98  CH2      -11.1110  -36.7170  -36.2730 C.ar  152  TRP152      0.0015
     99  N         -6.0650  -34.0030  -33.1940 N.3   156  PHE156     -0.1241
    100  CA        -6.6560  -35.2040  -32.6780 C.3   156  PHE156      0.1605
    101  C         -5.6820  -36.3640  -32.6970 C.2   156  PHE156      0.2264
    102  O         -5.6520  -37.1740  -31.7830 O.2   156  PHE156     -0.2867
    103  CB        -7.9560  -35.5270  -33.4550 C.3   156  PHE156      0.0534
    104  CG        -8.6370  -36.7910  -33.0330 C.ar  156  PHE156     -0.0203
    105  CD1       -9.3460  -36.8870  -31.8090 C.ar  156  PHE156     -0.0042
    106  CD2       -8.5630  -37.9130  -33.8150 C.ar  156  PHE156     -0.0042
    107  CE1       -9.9720  -38.1040  -31.4540 C.ar  156  PHE156     -0.0003
    108  CE2       -9.1920  -39.0820  -33.4930 C.ar  156  PHE156     -0.0003
    109  CZ        -9.8910  -39.1890  -32.2770 C.ar  156  PHE156     -0.0000
    110  N        -19.7000  -40.3620  -39.4420 N.3   187  VAL187     -0.1231
    111  CA       -19.3270  -41.6080  -38.7460 C.3   187  VAL187      0.1692
    112  C        -19.1560  -41.2940  -37.2640 C.2   187  VAL187      0.2592
    113  O        -19.6550  -42.0240  -36.4040 O.2   187  VAL187     -0.2718
    114  CB       -18.0480  -42.2610  -39.3310 C.3   187  VAL187      0.0266
    115  CG1      -17.5620  -43.3800  -38.4630 C.3   187  VAL187      0.0020
    116  CG2      -18.3260  -42.7780  -40.7140 C.3   187  VAL187      0.0020
    117  N        -18.5200  -40.1730  -36.9740 N.am  188  SER188     -0.1952
    118  CA       -18.2680  -39.8100  -35.6030 C.3   188  SER188      0.1924
    119  C        -19.6120  -39.5660  -34.9240 C.2   188  SER188      0.2314
    120  O        -19.8510  -40.1020  -33.8490 O.2   188  SER188     -0.2863
    121  CB       -17.3870  -38.5790  -35.4890 C.3   188  SER188      0.2116
    122  OG       -16.1670  -38.8220  -36.1080 O.3   188  SER188     -0.2180
    123  N        -21.4360  -42.9150  -34.1940 N.3   191  VAL191     -0.1231
    124  CA       -20.9100  -43.7130  -33.0900 C.3   191  VAL191      0.1692
    125  C        -21.0900  -43.0100  -31.7490 C.2   191  VAL191      0.2592
    126  O        -21.4930  -43.6790  -30.7820 O.2   191  VAL191     -0.2718
    127  CB       -19.4730  -44.1160  -33.3470 C.3   191  VAL191      0.0266
    128  CG1      -18.9450  -44.9570  -32.2100 C.3   191  VAL191      0.0020
    129  CG2      -19.3700  -44.9350  -34.6190 C.3   191  VAL191      0.0020
    130  N        -20.9370  -41.6990  -31.6600 N.am  192  PHE192     -0.1976
    131  CA       -21.2610  -40.9830  -30.4130 C.3   192  PHE192      0.1639
    132  C        -22.7530  -41.1280  -30.0800 C.2   192  PHE192      0.2290
    133  O        -23.1630  -41.0980  -28.9140 O.2   192  PHE192     -0.2864
    134  CB       -20.8550  -39.5060  -30.4300 C.3   192  PHE192      0.0560
    135  CG       -19.4250  -39.3070  -30.0480 C.ar  192  PHE192     -0.0200
    136  CD1      -18.4140  -39.3810  -30.9950 C.ar  192  PHE192     -0.0042
    137  CD2      -19.1100  -39.0980  -28.7220 C.ar  192  PHE192     -0.0042
    138  CE1      -17.0690  -39.2650  -30.6050 C.ar  192  PHE192     -0.0003
    139  CE2      -17.7900  -38.9800  -28.3250 C.ar  192  PHE192     -0.0003
    140  CZ       -16.7840  -39.0110  -29.2650 C.ar  192  PHE192     -0.0000
    141  N         -7.3100  -42.2600  -24.9120 N.3   216  HIS216     -0.1226
    142  CA        -8.1290  -41.0460  -25.0670 C.3   216  HIS216      0.1752
    143  C         -9.6330  -41.3440  -25.2410 C.2   216  HIS216      0.2596
    144  O        -10.4760  -40.6480  -24.6530 O.2   216  HIS216     -0.2718
    145  CB        -7.6260  -40.2410  -26.2710 C.3   216  HIS216      0.0759
    146  CG        -8.4050  -38.9960  -26.5630 C.ar  216  HIS216      0.0818
    147  ND1       -8.2890  -37.8400  -25.8190 N.ar  216  HIS216     -0.2268
    148  CD2       -9.2900  -38.7140  -27.5490 C.ar  216  HIS216      0.1154
    149  CE1       -9.0740  -36.9000  -26.3270 C.ar  216  HIS216      0.1986
    150  NE2       -9.7020  -37.4140  -27.3680 N.ar  216  HIS216     -0.2212
    151  N         -9.9450  -42.4040  -25.9900 N.am  217  SER217     -0.1952
    152  CA       -11.3250  -42.7500  -26.2840 C.3   217  SER217      0.1924
    153  C        -11.9960  -43.6480  -25.2480 C.2   217  SER217      0.2314
    154  O        -13.2450  -43.8070  -25.2850 O.2   217  SER217     -0.2863
    155  CB       -11.4060  -43.4540  -27.6470 C.3   217  SER217      0.2116
    156  OG       -10.9940  -42.6100  -28.7100 O.3   217  SER217     -0.2180
    157  N         -4.6120  -45.2040  -27.9090 N.3   244  HIS244     -0.1241
    158  CA        -5.7620  -45.8700  -28.4920 C.3   244  HIS244      0.1621
    159  C         -5.4620  -46.7550  -29.7150 C.2   244  HIS244      0.2264
    160  O         -6.2960  -47.5000  -30.1790 O.2   244  HIS244     -0.2867
    161  CB        -6.7810  -44.7880  -28.8740 C.3   244  HIS244      0.0745
    162  CG        -8.1140  -45.3140  -29.3390 C.ar  244  HIS244      0.0817
    163  ND1       -8.8440  -46.2290  -28.6180 N.ar  244  HIS244     -0.2268
    164  CD2       -8.8720  -45.0210  -30.4240 C.ar  244  HIS244      0.1154
    165  CE1       -9.9930  -46.4560  -29.2090 C.ar  244  HIS244      0.1986
    166  NE2      -10.0180  -45.7770  -30.3310 N.ar  244  HIS244     -0.2212
@<TRIPOS>BOND
     1   116   114    1
     2    80    79    2
     3   110   111    1
     4   114   111    1
     5   114   115    1
     6   111   112    1
     7    79    78    1
     8    78    81    1
     9    78    77    1
    10    97    95   ar
    11    97    98   ar
    12    95    92   ar
    13    85    86    1
    14     3     2    1
    15     3     4    2
    16   112   117   am
    17   112   113    2
    18     9     7   ar
    19     9    11   ar
    20    81    82    2
    21   117   118    1
    22    84    83    1
    23     7     6   ar
    24     2     1    1
    25     2     5    1
    26    11    10   ar
    27    89    86    1
    28    89    90    1
    29    86    87    1
    30    87    88    2
    31    98    96   ar
    32    69    68    2
    33    92    90   ar
    34    92    94   ar
    35    23    22    1
    36   122   121    1
    37    82    83    1
    38     6     5    1
    39     6     8   ar
    40    10     8   ar
    41    90    91   ar
    42   118   121    1
    43   118   119    1
    44    96    94   ar
    45    24    22    1
    46    94    93   ar
    47    68    67    1
    48   119   120    2
    49    22    19    1
    50   129   127    1
    51    91    93   ar
    52    20    21    2
    53    20    19    1
    54    67    70    1
    55    67    66    1
    56   123   124    1
    57    70    71    1
    58   106   108   ar
    59   106   104   ar
    60    19    18    1
    61    62    61    2
    62    72    71   ar
    63    72    74   ar
    64    17    16    1
    65    71    73   ar
    66   108   109   ar
    67   103   104    1
    68   103   100    1
    69    18    14   am
    70   127   124    1
    71   127   128    1
    72    99   100    1
    73   124   125    1
    74    74    76   ar
    75    16    13    1
    76   104   105   ar
    77    66    61   am
    78    73    75   ar
    79    61    60    1
    80   101   100    1
    81   101   102    2
    82    14    13    1
    83    14    15    2
    84    76    75   ar
    85   109   107   ar
    86    12    13    1
    87    64    63    1
    88   105   107   ar
    89   125   130   am
    90   125   126    2
    91   130   131    1
    92    60    63    1
    93    60    59    1
    94   136   138   ar
    95   136   135   ar
    96    63    65    1
    97   138   140   ar
    98   134   131    1
    99   134   135    1
   100   164   166   ar
   101   164   162   ar
   102   131   132    1
   103    54    53    2
   104   166   165   ar
   105   160   159    2
   106   132   133    2
   107   135   137   ar
   108    38    39   ar
   109    38    36   ar
   110   159   158    1
   111    39    37   ar
   112   162   161    1
   113   162   163   ar
   114    53    52    1
   115   140   139   ar
   116   165   163   ar
   117    57    55    1
   118    58    56    1
   119    36    34   ar
   120   161   158    1
   121   137   139   ar
   122   156   155    1
   123    28    27    2
   124   158   157    1
   125    52    55    1
   126    52    51    1
   127    37    35   ar
   128    27    26    1
   129    55    56    1
   130    26    25    1
   131    34    35   ar
   132    34    33    1
   133   155   152    1
   134   148   150   ar
   135   148   146   ar
   136   150   149   ar
   137    33    30    1
   138   146   145    1
   139   146   147   ar
   140   149   147   ar
   141   152   151    1
   142   152   153    1
   143   145   142    1
   144    49    50   ar
   145    49    47   ar
   146   151   143   am
   147    50    48   ar
   148    29    30    1
   149    47    45   ar
   150    30    31    1
   151    48    46   ar
   152   154   153    2
   153   143   142    1
   154   143   144    2
   155   142   141    1
   156    45    46   ar
   157    45    44    1
   158    31    32    2
   159    44    41    1
   160    41    42    1
   161    41    40    1
   162    42    43    2
