@<TRIPOS>MOLECULE
tmp/6ap8A00.pdb
 169 165 0 0 0
SMALL
GASTEIGER

@<TRIPOS>ATOM
      1  N        -22.7930   12.0160  -16.5890 N.3    26  PHE26      -0.1241
      2  CA       -24.0070   11.6210  -15.8960 C.3    26  PHE26       0.1605
      3  C        -24.3190   10.1810  -16.1950 C.2    26  PHE26       0.2264
      4  O        -24.3850    9.7420  -17.3340 O.2    26  PHE26      -0.2867
      5  CB       -25.1520   12.5290  -16.3490 C.3    26  PHE26       0.0534
      6  CG       -26.4970   12.1500  -15.8010 C.ar   26  PHE26      -0.0203
      7  CD1      -26.8160   12.3360  -14.4930 C.ar   26  PHE26      -0.0042
      8  CD2      -27.4380   11.5790  -16.6090 C.ar   26  PHE26      -0.0042
      9  CE1      -28.0420   11.9280  -13.9720 C.ar   26  PHE26      -0.0003
     10  CE2      -28.6610   11.1860  -16.1490 C.ar   26  PHE26      -0.0003
     11  CZ       -28.9510   11.3240  -14.8220 C.ar   26  PHE26      -0.0000
     12  N        -19.8030   15.2100  -20.7340 N.3    95  SER95      -0.1202
     13  CA       -21.1190   15.6460  -20.1490 C.3    95  SER95       0.2020
     14  C        -20.7790   16.6520  -18.9670 C.2    95  SER95       0.2618
     15  O        -20.0280   17.6250  -19.1310 O.2    95  SER95      -0.2717
     16  CB       -21.8440   14.2510  -19.6490 C.3    95  SER95       0.2103
     17  OG       -22.7990   14.2130  -18.7540 O.3    95  SER95      -0.2182
     18  N        -21.3190   16.3830  -17.8060 N.am   96  VAL96      -0.1979
     19  CA       -21.0700   17.2530  -16.6450 C.3    96  VAL96       0.1595
     20  C        -19.5800   17.3970  -16.3930 C.2    96  VAL96       0.2287
     21  O        -19.1900   18.4680  -15.9330 O.2    96  VAL96      -0.2864
     22  CB       -21.8890   16.7250  -15.4450 C.3    96  VAL96       0.0276
     23  CG1      -21.5490   15.2910  -15.0570 C.3    96  VAL96       0.0022
     24  CG2      -21.6870   17.6880  -14.2660 C.3    96  VAL96       0.0022
     25  N        -27.7870   23.9020  -21.1820 N.3   124  PHE124     -0.1241
     26  CA       -28.7970   23.0620  -21.8280 C.3   124  PHE124      0.1605
     27  C        -30.0700   23.7970  -22.1930 C.2   124  PHE124      0.2264
     28  O        -30.6950   23.5270  -23.2460 O.2   124  PHE124     -0.2867
     29  CB       -29.2110   21.9100  -20.9230 C.3   124  PHE124      0.0534
     30  CG       -28.2220   20.8300  -20.7680 C.ar  124  PHE124     -0.0203
     31  CD1      -27.4280   20.3990  -21.8520 C.ar  124  PHE124     -0.0042
     32  CD2      -28.1010   20.1680  -19.5380 C.ar  124  PHE124     -0.0042
     33  CE1      -26.5560   19.3210  -21.7170 C.ar  124  PHE124     -0.0003
     34  CE2      -27.2340   19.0670  -19.4260 C.ar  124  PHE124     -0.0003
     35  CZ       -26.4750   18.6730  -20.4890 C.ar  124  PHE124     -0.0000
     36  N        -33.1950   22.4610  -24.9030 N.3   134  PHE134     -0.1241
     37  CA       -34.1980   22.0790  -23.9250 C.3   134  PHE134      0.1605
     38  C        -35.0140   23.2610  -23.5150 C.2   134  PHE134      0.2264
     39  O        -34.5190   24.3940  -23.4390 O.2   134  PHE134     -0.2867
     40  CB       -33.5070   21.4830  -22.6820 C.3   134  PHE134      0.0534
     41  CG       -32.8070   20.2000  -22.9960 C.ar  134  PHE134     -0.0203
     42  CD1      -31.4920   20.1960  -23.4580 C.ar  134  PHE134     -0.0042
     43  CD2      -33.4380   19.0100  -22.8200 C.ar  134  PHE134     -0.0042
     44  CE1      -30.8580   19.0200  -23.7870 C.ar  134  PHE134     -0.0003
     45  CE2      -32.8380   17.8510  -23.1890 C.ar  134  PHE134     -0.0003
     46  CZ       -31.5550   17.8430  -23.6740 C.ar  134  PHE134     -0.0000
     47  N        -40.3740   21.2030  -20.5760 N.3   138  GLU138     -0.1182
     48  CA       -39.9380   19.8640  -20.9690 C.3   138  GLU138      0.1915
     49  C        -39.1940   19.2290  -19.7970 C.2   138  GLU138      0.2634
     50  O        -39.4430   18.0960  -19.4040 O.2   138  GLU138     -0.2714
     51  CB       -38.9770   19.9880  -22.1780 C.2   138  GLU138      0.0085
     52  CG       -38.2230   18.7930  -22.5880 C.2   138  GLU138      0.0835
     53  CD       -37.2050   19.0240  -23.6700 C.2   138  GLU138      0.3877
     54  OE1      -36.9070   20.2440  -23.9620 O.co2 138  GLU138     -0.2406
     55  OE2      -36.7350   17.9280  -24.1630 O.co2 138  GLU138     -0.2406
     56  N        -38.1980   19.9440  -19.2780 N.am  139  ILE139     -0.1977
     57  CA       -37.3830   19.4030  -18.2050 C.3   139  ILE139      0.1596
     58  C        -38.1440   19.2980  -16.9160 C.2   139  ILE139      0.2287
     59  O        -37.8760   18.3270  -16.1810 O.2   139  ILE139     -0.2864
     60  CB       -36.0330   20.1120  -18.0360 C.3   139  ILE139      0.0276
     61  CG1      -36.1170   21.4710  -17.3780 C.3   139  ILE139      0.0022
     62  CG2      -35.3120   20.1550  -19.3420 C.3   139  ILE139      0.0022
     63  CD1      -34.8820   21.9240  -16.6230 C.3   139  ILE139      0.0001
     64  N        -39.6430   15.9050  -17.1910 N.3   142  VAL142     -0.1231
     65  CA       -38.6480   14.8410  -17.0020 C.3   142  VAL142      0.1692
     66  C        -38.2850   14.7070  -15.5480 C.2   142  VAL142      0.2592
     67  O        -38.2100   13.5830  -15.0370 O.2   142  VAL142     -0.2718
     68  CB       -37.4170   15.1280  -17.8680 C.3   142  VAL142      0.0266
     69  CG1      -36.2730   14.1770  -17.5180 C.3   142  VAL142      0.0020
     70  CG2      -37.7760   15.0190  -19.3700 C.3   142  VAL142      0.0020
     71  N        -38.0700   15.8310  -14.8610 N.am  143  PHE143     -0.1976
     72  CA       -37.7310   15.7480  -13.4470 C.3   143  PHE143      0.1639
     73  C        -38.8380   15.1080  -12.6370 C.2   143  PHE143      0.2290
     74  O        -38.5630   14.3070  -11.7320 O.2   143  PHE143     -0.2864
     75  CB       -37.4070   17.1310  -12.8590 C.3   143  PHE143      0.0560
     76  CG       -36.1680   17.7670  -13.3930 C.ar  143  PHE143     -0.0200
     77  CD1      -35.2620   17.1210  -14.1620 C.ar  143  PHE143     -0.0042
     78  CD2      -35.9780   19.0860  -13.1240 C.ar  143  PHE143     -0.0042
     79  CE1      -34.1430   17.7500  -14.6380 C.ar  143  PHE143     -0.0003
     80  CE2      -34.8720   19.7280  -13.5910 C.ar  143  PHE143     -0.0003
     81  CZ       -33.9000   19.0620  -14.2980 C.ar  143  PHE143     -0.0000
     82  N        -38.5450   11.3340  -13.2660 N.3   146  MET146     -0.1245
     83  CA       -37.4020   10.8080  -12.5190 C.3   146  MET146      0.1570
     84  C        -37.7740   10.4950  -11.0850 C.2   146  MET146      0.2261
     85  O        -37.2560    9.5520  -10.4850 O.2   146  MET146     -0.2867
     86  CB       -36.2250   11.7590  -12.5620 C.3   146  MET146      0.0387
     87  CG       -35.6140   11.8780  -13.9440 C.3   146  MET146      0.0595
     88  SD       -34.1620   12.9850  -13.9660 S.3   146  MET146     -0.1393
     89  CE       -33.0220   11.9910  -13.0970 C.3   146  MET146      0.0692
     90  N        -38.1560    5.7410  -16.1170 N.3   153  TRP153     -0.1241
     91  CA       -37.4610    6.8550  -16.7420 C.3   153  TRP153      0.1605
     92  C        -36.1180    6.3970  -17.3310 C.2   153  TRP153      0.2264
     93  O        -35.8010    6.6920  -18.5000 O.2   153  TRP153     -0.2867
     94  CB       -37.2810    8.0540  -15.7590 C.3   153  TRP153      0.0550
     95  CG       -36.3190    9.0200  -16.3250 C.ar  153  TRP153      0.0003
     96  CD1      -36.5830    9.9580  -17.2850 C.ar  153  TRP153      0.0946
     97  CD2      -34.8850    9.0630  -16.1090 C.ar  153  TRP153      0.0152
     98  NE1      -35.3940   10.5330  -17.6730 N.ar  153  TRP153     -0.2442
     99  CE2      -34.3460    9.9870  -17.0010 C.ar  153  TRP153      0.0810
    100  CE3      -34.0280    8.3700  -15.2600 C.ar  153  TRP153      0.0012
    101  CZ2      -32.9950   10.2530  -17.0400 C.ar  153  TRP153      0.0191
    102  CZ3      -32.7300    8.6130  -15.2980 C.ar  153  TRP153      0.0001
    103  CH2      -32.1940    9.5470  -16.2250 C.ar  153  TRP153      0.0015
    104  N        -34.7200    6.3640  -21.0810 N.3   157  TYR157     -0.1241
    105  CA       -33.6840    7.3440  -21.3970 C.3   157  TYR157      0.1605
    106  C        -32.4640    6.6720  -22.0280 C.2   157  TYR157      0.2264
    107  O        -31.8360    7.2340  -22.9520 O.2   157  TYR157     -0.2867
    108  CB       -33.2880    8.1160  -20.1310 C.3   157  TYR157      0.0534
    109  CG       -32.2190    9.1380  -20.3770 C.ar  157  TYR157     -0.0201
    110  CD1      -32.4340   10.2060  -21.2530 C.ar  157  TYR157     -0.0009
    111  CD2      -30.9940    9.0260  -19.7910 C.ar  157  TYR157     -0.0009
    112  CE1      -31.4560   11.1210  -21.4980 C.ar  157  TYR157      0.0417
    113  CE2      -29.9970    9.9910  -20.0150 C.ar  157  TYR157      0.0417
    114  CZ       -30.2520   11.0400  -20.8430 C.ar  157  TYR157      0.1957
    115  OH       -29.2560   11.9440  -21.0850 O.3   157  TYR157     -0.2866
    116  N        -28.3270   15.9880   -9.3940 N.3   188  VAL188     -0.1231
    117  CA       -27.2970   16.3420  -10.3630 C.3   188  VAL188      0.1692
    118  C        -27.9350   16.9490  -11.5820 C.2   188  VAL188      0.2592
    119  O        -27.4270   17.9670  -12.1110 O.2   188  VAL188     -0.2718
    120  CB       -26.5290   15.0860  -10.7480 C.3   188  VAL188      0.0266
    121  CG1      -25.5900   15.3790  -11.9070 C.3   188  VAL188      0.0020
    122  CG2      -25.8290   14.4850   -9.5930 C.3   188  VAL188      0.0020
    123  N        -29.0630   16.3980  -12.0370 N.am  189  CYS189     -0.1970
    124  CA       -29.7450   16.9760  -13.1900 C.3   189  CYS189      0.1712
    125  C        -30.1890   18.4100  -12.9050 C.2   189  CYS189      0.2296
    126  O        -30.0180   19.3000  -13.7380 O.2   189  CYS189     -0.2864
    127  CB       -30.9390   16.1190  -13.6050 C.3   189  CYS189      0.0983
    128  SG       -30.4160   14.5620  -14.2970 S.3   189  CYS189     -0.0798
    129  N        -27.0900   20.7120  -12.9180 N.3   192  VAL192     -0.1231
    130  CA       -26.5810   20.9560  -14.2260 C.3   192  VAL192      0.1692
    131  C        -27.5080   21.8660  -15.0100 C.2   192  VAL192      0.2592
    132  O        -27.0350   22.7650  -15.7080 O.2   192  VAL192     -0.2718
    133  CB       -26.2490   19.6530  -14.9490 C.3   192  VAL192      0.0266
    134  CG1      -25.8910   19.8940  -16.4160 C.3   192  VAL192      0.0020
    135  CG2      -25.0790   18.9760  -14.2100 C.3   192  VAL192      0.0020
    136  N        -28.8210   21.6440  -14.9230 N.am  193  PHE193     -0.1976
    137  CA       -29.7600   22.4950  -15.6530 C.3   193  PHE193      0.1639
    138  C        -29.8490   23.9220  -15.1450 C.2   193  PHE193      0.2290
    139  O        -30.2900   24.7870  -15.9020 O.2   193  PHE193     -0.2864
    140  CB       -31.1370   21.8400  -15.7540 C.3   193  PHE193      0.0560
    141  CG       -31.2520   20.8820  -16.9080 C.ar  193  PHE193     -0.0200
    142  CD1      -30.8870   19.5710  -16.8400 C.ar  193  PHE193     -0.0042
    143  CD2      -31.7170   21.3540  -18.1390 C.ar  193  PHE193     -0.0042
    144  CE1      -31.0100   18.7630  -17.9410 C.ar  193  PHE193     -0.0003
    145  CE2      -31.8560   20.5210  -19.2160 C.ar  193  PHE193     -0.0003
    146  CZ       -31.4700   19.2420  -19.1300 C.ar  193  PHE193     -0.0000
    147  N        -28.4520   13.7940  -28.3770 N.3   217  VAL217     -0.1231
    148  CA       -29.7080   14.2930  -27.8150 C.3   217  VAL217      0.1692
    149  C        -29.5290   15.4330  -26.8160 C.2   217  VAL217      0.2592
    150  O        -30.4710   16.2030  -26.5920 O.2   217  VAL217     -0.2718
    151  CB       -30.5960   13.1680  -27.2030 C.3   217  VAL217      0.0266
    152  CG1      -31.1410   12.2900  -28.2900 C.3   217  VAL217      0.0020
    153  CG2      -29.8830   12.5030  -26.0790 C.3   217  VAL217      0.0020
    154  N        -28.3630   15.5260  -26.1970 N.am  218  SER218     -0.1952
    155  CA       -28.0850   16.5590  -25.2230 C.3   218  SER218      0.1924
    156  C        -27.4310   17.8200  -25.7980 C.2   218  SER218      0.2314
    157  O        -27.3460   18.8040  -25.0720 O.2   218  SER218     -0.2863
    158  CB       -27.1080   16.0200  -24.0800 C.3   218  SER218      0.2116
    159  OG       -27.8090   15.0400  -23.3580 O.3   218  SER218     -0.2180
    160  N        -24.6690   10.2640  -27.5840 N.3   245  HIS245     -0.1241
    161  CA       -24.1230   11.0930  -26.5080 C.3   245  HIS245      0.1621
    162  C        -22.9870   10.4040  -25.7450 C.2   245  HIS245      0.2264
    163  O        -22.2960   11.0670  -24.9880 O.2   245  HIS245     -0.2867
    164  CB       -25.2430   11.4870  -25.5710 C.3   245  HIS245      0.0745
    165  CG       -24.8230   12.4550  -24.4770 C.ar  245  HIS245      0.0817
    166  ND1      -24.2010   13.6550  -24.7110 N.ar  245  HIS245     -0.2268
    167  CD2      -25.0630   12.4520  -23.1720 C.ar  245  HIS245      0.1154
    168  CE1      -24.0460   14.3370  -23.6200 C.ar  245  HIS245      0.1986
    169  NE2      -24.5450   13.6250  -22.6620 N.ar  245  HIS245     -0.2212
@<TRIPOS>BOND
     1   147   148    1
     2   152   151    1
     3   148   151    1
     4   148   149    1
     5   160   161    1
     6   151   153    1
     7   149   150    2
     8   149   154   am
     9   161   162    1
    10   161   164    1
    11   154   155    1
    12   156   155    1
    13   156   157    2
    14   162   163    2
    15   164   165    1
    16   155   158    1
    17    36    37    1
    18   166   165   ar
    19   166   168   ar
    20   165   167   ar
    21    55    53   ar
    22   158   159    1
    23    54    53   ar
    24    37    38    1
    25    37    40    1
    26    44    46   ar
    27    44    42   ar
    28    46    45   ar
    29    53    52    1
    30   168   169   ar
    31    38    39    2
    32    42    41   ar
    33    28    27    2
    34    45    43   ar
    35   167   169   ar
    36    41    43   ar
    37    41    40    1
    38   107   106    2
    39    52    51    2
    40    27    26    1
    41    51    48    1
    42   106   105    1
    43    31    33   ar
    44    31    30   ar
    45    26    25    1
    46    26    29    1
    47    33    35   ar
    48   112   110   ar
    49   112   114   ar
    50   105   104    1
    51   105   108    1
    52   110   109   ar
    53   115   114    1
    54    48    47    1
    55    48    49    1
    56    29    30    1
    57   114   113   ar
    58    30    32   ar
    59    12    13    1
    60    35    34   ar
    61   109   108    1
    62   109   111   ar
    63    13    16    1
    64    13    14    1
    65   113   111   ar
    66    49    50    2
    67    49    56   am
    68    16    17    1
    69    32    34   ar
    70    70    68    1
    71    62    60    1
    72    56    57    1
    73   145   146   ar
    74   145   143   ar
    75    15    14    2
    76   146   144   ar
    77    14    18   am
    78    93    92    2
    79    57    60    1
    80    57    58    1
    81   143   141   ar
    82    60    61    1
    83   144   142   ar
    84    68    69    1
    85    68    65    1
    86    18    19    1
    87    98    96   ar
    88    98    99   ar
    89    61    63    1
    90     4     3    2
    91    92    91    1
    92    96    95   ar
    93    64    65    1
    94   101    99   ar
    95   101   103   ar
    96    65    66    1
    97    99    97   ar
    98    58    59    2
    99   141   142   ar
   100   141   140    1
   101    91    90    1
   102    91    94    1
   103    19    20    1
   104    19    22    1
   105     8    10   ar
   106     8     6   ar
   107     1     2    1
   108   134   133    1
   109    20    21    2
   110     5     2    1
   111     5     6    1
   112    95    97   ar
   113    95    94    1
   114   103   102   ar
   115     3     2    1
   116    10    11   ar
   117    97   100   ar
   118   139   138    2
   119     6     7   ar
   120   140   137    1
   121   132   131    2
   122   137   138    1
   123   137   136    1
   124    66    67    2
   125    66    71   am
   126    22    23    1
   127    22    24    1
   128   102   100   ar
   129   131   136   am
   130   131   130    1
   131   133   130    1
   132   133   135    1
   133    71    72    1
   134    11     9   ar
   135    79    81   ar
   136    79    77   ar
   137     7     9   ar
   138    81    80   ar
   139   128   127    1
   140   130   129    1
   141    77    76   ar
   142    88    87    1
   143    88    89    1
   144    87    86    1
   145   126   125    2
   146   127   124    1
   147    80    78   ar
   148    72    75    1
   149    72    73    1
   150    76    78   ar
   151    76    75    1
   152    82    83    1
   153   124   125    1
   154   124   123    1
   155    73    74    2
   156    86    83    1
   157    83    84    1
   158   119   118    2
   159   123   118   am
   160   121   120    1
   161   118   117    1
   162    84    85    2
   163   120   117    1
   164   120   122    1
   165   117   116    1
