@<TRIPOS>MOLECULE
tmp/6apfB00.pdb
 111 104 0 0 0
SMALL
GASTEIGER

@<TRIPOS>ATOM
      1  N         80.5860   46.3980 -118.6090 N.3     9  GLN9       -0.1245
      2  CA        79.6780   46.0450 -117.5280 C.3     9  GLN9        0.1566
      3  C         78.5450   47.0520 -117.4260 C.2     9  GLN9        0.2260
      4  O         78.7560   48.2500 -117.5680 O.2     9  GLN9       -0.2867
      5  CB        80.4190   45.9590 -116.2180 C.3     9  GLN9        0.0367
      6  CG        81.4610   44.8530 -116.2190 C.3     9  GLN9        0.0905
      7  CD        81.8330   44.4770 -114.8110 C.2     9  GLN9        0.2608
      8  OE1       81.2050   43.5990 -114.2380 O.2     9  GLN9       -0.2717
      9  NE2       82.8110   45.1670 -114.2310 N.am    9  GLN9       -0.0878
     10  N         84.8960   49.8490 -123.9700 N.3    85  HIS85      -0.1226
     11  CA        84.7150   50.5080 -122.6750 C.3    85  HIS85       0.1752
     12  C         85.0220   49.5040 -121.5720 C.2    85  HIS85       0.2597
     13  O         84.2220   48.6170 -121.3120 O.2    85  HIS85      -0.2718
     14  CB        83.2940   51.0770 -122.5280 C.3    85  HIS85       0.0759
     15  CG        83.1600   52.0540 -121.3970 C.ar   85  HIS85       0.0818
     16  ND1       83.3380   51.6950 -120.0720 N.ar   85  HIS85      -0.2268
     17  CD2       82.9280   53.3900 -121.3940 C.ar   85  HIS85       0.1154
     18  CE1       83.2030   52.7670 -119.3050 C.ar   85  HIS85       0.1986
     19  NE2       82.9320   53.8070 -120.0840 N.ar   85  HIS85      -0.2212
     20  N         86.1910   49.6490 -120.9450 N.am   86  SER86      -0.1938
     21  CA        86.5950   48.8520 -119.7860 C.3    86  SER86       0.2055
     22  C         86.6900   47.3530 -120.1330 C.2    86  SER86       0.2642
     23  O         87.6350   46.9540 -120.8110 O.2    86  SER86      -0.2714
     24  CB        85.7090   49.1790 -118.5630 C.3    86  SER86       0.2130
     25  OG        85.8990   50.5370 -118.1480 O.3    86  SER86      -0.2179
     26  N         85.7300   46.5280 -119.7350 N.am   87  LEU87      -0.1977
     27  CA        85.7340   45.1340 -120.1940 C.3    87  LEU87       0.1596
     28  C         85.8410   45.0620 -121.7340 C.2    87  LEU87       0.2287
     29  O         86.5060   44.1770 -122.2910 O.2    87  LEU87      -0.2864
     30  CB        84.4610   44.4440 -119.7170 C.3    87  LEU87       0.0297
     31  CG        84.1970   43.0000 -120.1520 C.3    87  LEU87       0.0022
     32  CD1       83.6650   42.8660 -121.5730 C.3    87  LEU87       0.0001
     33  CD2       85.4280   42.1310 -119.9280 C.3    87  LEU87       0.0001
     34  N         90.2600   39.3070 -114.5600 N.3   111  ARG111     -0.1245
     35  CA        89.8110   40.6860 -114.2620 C.3   111  ARG111      0.1563
     36  C         88.5420   40.6720 -113.3890 C.2   111  ARG111      0.2260
     37  O         88.4300   41.4120 -112.4190 O.2   111  ARG111     -0.2867
     38  CB        89.5520   41.4540 -115.5540 C.3   111  ARG111      0.0307
     39  CG        89.3580   42.9500 -115.3580 C.3   111  ARG111      0.0489
     40  CD        89.1520   43.6300 -116.6840 C.3   111  ARG111      0.2205
     41  NE        89.1000   45.0990 -116.6380 N.pl3 111  ARG111     -0.0865
     42  CZ        88.0090   45.8330 -116.4670 C.cat 111  ARG111      0.5346
     43  NH1       86.8140   45.2700 -116.3060 N.pl3 111  ARG111      0.1354
     44  NH2       88.0960   47.1560 -116.4770 N.pl3 111  ARG111      0.1354
     45  N         88.3820   42.1030 -109.6170 N.3   115  MET115     -0.1245
     46  CA        87.4150   43.1580 -109.3440 C.3   115  MET115      0.1570
     47  C         86.3380   42.7050 -108.3570 C.2   115  MET115      0.2261
     48  O         85.9170   43.4780 -107.4900 O.2   115  MET115     -0.2867
     49  CB        86.8410   43.7050 -110.6490 C.3   115  MET115      0.0387
     50  CG        87.8900   44.5210 -111.3840 C.3   115  MET115      0.0595
     51  SD        87.3520   45.0980 -112.9880 S.3   115  MET115     -0.1393
     52  CE        86.0850   46.2630 -112.5220 C.3   115  MET115      0.0692
     53  N         81.2310   53.8620 -105.9310 N.3   123  MET123     -0.1245
     54  CA        81.1420   54.6140 -107.1710 C.3   123  MET123      0.1570
     55  C         79.7300   55.1220 -107.3670 C.2   123  MET123      0.2261
     56  O         78.7860   54.5280 -106.8630 O.2   123  MET123     -0.2867
     57  CB        81.5250   53.7480 -108.3700 C.3   123  MET123      0.0387
     58  CG        82.8840   53.0760 -108.2490 C.3   123  MET123      0.0595
     59  SD        83.2630   52.0520 -109.6820 S.3   123  MET123     -0.1393
     60  CE        83.8540   53.2660 -110.8400 C.3   123  MET123      0.0692
     61  N         85.0320   57.7160 -114.6900 N.3   150  ASN150     -0.1240
     62  CA        84.7060   57.5710 -116.1290 C.3   150  ASN150      0.1653
     63  C         84.3160   58.9540 -116.6600 C.2   150  ASN150      0.2266
     64  O         83.5220   59.6440 -116.0160 O.2   150  ASN150     -0.2867
     65  CB        83.4480   56.7610 -116.4070 C.3   150  ASN150      0.1155
     66  CG        83.5290   55.2780 -116.1390 C.2   150  ASN150      0.2627
     67  OD1       82.5730   54.5880 -116.4760 O.2   150  ASN150     -0.2716
     68  ND2       84.5980   54.7720 -115.5420 N.am  150  ASN150     -0.0877
     69  N         81.2150   59.2170 -114.1680 N.3   158  VAL158     -0.1245
     70  CA        81.1830   58.3250 -113.0140 C.3   158  VAL158      0.1561
     71  C         82.2870   58.7500 -112.0560 C.2   158  VAL158      0.2260
     72  O         83.4070   59.0440 -112.4830 O.2   158  VAL158     -0.2867
     73  CB        81.3690   56.8440 -113.4100 C.3   158  VAL158      0.0252
     74  CG1       81.2910   55.9300 -112.1920 C.3   158  VAL158      0.0019
     75  CG2       80.3460   56.4520 -114.4570 C.3   158  VAL158      0.0019
     76  N         76.5780   52.8840 -107.4790 N.3   184  LEU184     -0.1245
     77  CA        76.6830   51.6630 -108.2900 C.3   184  LEU184      0.1561
     78  C         76.8410   50.4060 -107.4380 C.2   184  LEU184      0.2260
     79  O         77.3480   50.4610 -106.3120 O.2   184  LEU184     -0.2867
     80  CB        77.8380   51.7630 -109.2890 C.3   184  LEU184      0.0270
     81  CG        77.8470   52.8750 -110.3470 C.3   184  LEU184      0.0019
     82  CD1       79.0580   52.7160 -111.2480 C.3   184  LEU184      0.0001
     83  CD2       76.5600   52.9010 -111.1690 C.3   184  LEU184      0.0001
     84  N         78.9430   47.8320 -107.0390 N.3   186  VAL186     -0.1245
     85  CA        80.3320   47.4610 -107.2920 C.3   186  VAL186      0.1561
     86  C         80.9760   47.1520 -105.9440 C.2   186  VAL186      0.2260
     87  O         80.5640   47.6850 -104.9180 O.2   186  VAL186     -0.2867
     88  CB        81.1050   48.5820 -108.0090 C.3   186  VAL186      0.0252
     89  CG1       80.5880   48.7510 -109.4330 C.3   186  VAL186      0.0019
     90  CG2       81.0170   49.9000 -107.2340 C.3   186  VAL186      0.0019
     91  N         86.5550   51.5780 -108.1670 N.3   190  PHE190     -0.1227
     92  CA        87.3880   51.3530 -109.3500 C.3   190  PHE190      0.1736
     93  C         87.8720   52.6230 -110.0260 C.2   190  PHE190      0.2595
     94  O         87.2880   53.6960 -109.8470 O.2   190  PHE190     -0.2718
     95  CB        86.6700   50.4400 -110.3060 C.3   190  PHE190      0.0547
     96  CG        86.4080   49.0950 -109.7180 C.ar  190  PHE190     -0.0202
     97  CD1       87.4720   48.2990 -109.3200 C.ar  190  PHE190     -0.0042
     98  CD2       85.1390   48.6460 -109.5270 C.ar  190  PHE190     -0.0042
     99  CE1       87.2470   47.0600 -108.7310 C.ar  190  PHE190     -0.0003
    100  CE2       84.9060   47.4030 -108.9450 C.ar  190  PHE190     -0.0003
    101  CZ        85.9560   46.6240 -108.5480 C.ar  190  PHE190     -0.0000
    102  N         88.9670   52.4960 -110.7730 N.am  191  HIS191     -0.1975
    103  CA        89.4740   53.5550 -111.6570 C.3   191  HIS191      0.1656
    104  C         90.1010   54.7610 -110.9670 C.2   191  HIS191      0.2291
    105  O         90.1170   55.8710 -111.5170 O.2   191  HIS191     -0.2864
    106  CB        88.3750   53.9540 -112.6700 C.3   191  HIS191      0.0771
    107  CG        87.9360   52.7950 -113.4890 C.ar  191  HIS191      0.0820
    108  ND1       88.8100   52.1220 -114.3140 N.ar  191  HIS191     -0.2267
    109  CD2       86.7720   52.1060 -113.5210 C.ar  191  HIS191      0.1154
    110  CE1       88.1870   51.0870 -114.8390 C.ar  191  HIS191      0.1986
    111  NE2       86.9480   51.0640 -114.3910 N.ar  191  HIS191     -0.2212
@<TRIPOS>BOND
     1    10    11    1
     2    11    14    1
     3    11    12    1
     4    14    15    1
     5    29    28    2
     6    28    27    1
     7    32    31    1
     8    12    13    2
     9    12    20   am
    10    15    17   ar
    11    15    16   ar
    12    17    19   ar
    13    20    21    1
    14    23    22    2
    15    27    26    1
    16    27    30    1
    17    31    33    1
    18    31    30    1
    19    22    21    1
    20    22    26   am
    21    19    18   ar
    22    16    18   ar
    23    21    24    1
    24     1     2    1
    25    24    25    1
    26     4     3    2
    27     2     3    1
    28     2     5    1
    29    40    41    1
    30    40    39    1
    31    63    62    1
    32    63    64    2
    33    41    42    2
    34    44    42    1
    35    67    66    2
    36    42    43    1
    37    65    66    1
    38    65    62    1
    39     6     5    1
    40     6     7    1
    41    66    68   am
    42    62    61    1
    43    38    39    1
    44    38    35    1
    45   110   111   ar
    46   110   108   ar
    47     7     8    2
    48     7     9   am
    49    34    35    1
    50    75    73    1
    51   111   109   ar
    52   108   107   ar
    53    35    36    1
    54    69    70    1
    55   109   107   ar
    56   107   106    1
    57    73    70    1
    58    73    74    1
    59    36    37    2
    60    70    71    1
    61    51    52    1
    62    51    50    1
    63   106   103    1
    64    72    71    2
    65   103   104    1
    66   103   102    1
    67   105   104    2
    68    50    49    1
    69    82    81    1
    70    83    81    1
    71    60    59    1
    72   102    93   am
    73    49    46    1
    74    81    80    1
    75    95    96    1
    76    95    92    1
    77    93    94    2
    78    93    92    1
    79    96    98   ar
    80    96    97   ar
    81    59    58    1
    82    45    46    1
    83    98   100   ar
    84    89    88    1
    85    92    91    1
    86    46    47    1
    87    97    99   ar
    88    80    77    1
    89   100   101   ar
    90    99   101   ar
    91    57    58    1
    92    57    54    1
    93    47    48    2
    94    77    76    1
    95    77    78    1
    96    88    85    1
    97    88    90    1
    98    78    79    2
    99    55    54    1
   100    55    56    2
   101    85    84    1
   102    85    86    1
   103    54    53    1
   104    86    87    2
