@<TRIPOS>MOLECULE
tmp/6apgB00.pdb
 118 110 0 0 0
SMALL
GASTEIGER

@<TRIPOS>ATOM
      1  N         80.8910   46.4880 -118.6460 N.3     9  GLN9       -0.1245
      2  CA        79.9720   46.2090 -117.5400 C.3     9  GLN9        0.1566
      3  C         78.8580   47.2340 -117.4820 C.2     9  GLN9        0.2260
      4  O         79.0860   48.4200 -117.6930 O.2     9  GLN9       -0.2867
      5  CB        80.6890   46.1870 -116.1960 C.3     9  GLN9        0.0367
      6  CG        81.8160   45.1730 -116.1310 C.3     9  GLN9        0.0905
      7  CD        82.0990   44.6960 -114.7250 C.2     9  GLN9        0.2608
      8  OE1       81.4290   43.7840 -114.2420 O.2     9  GLN9       -0.2717
      9  NE2       83.1150   45.2910 -114.0670 N.am    9  GLN9       -0.0878
     10  N         85.2010   49.8150 -124.0350 N.3    85  HIS85      -0.1226
     11  CA        84.9320   50.4750 -122.7570 C.3    85  HIS85       0.1752
     12  C         85.2670   49.5160 -121.6310 C.2    85  HIS85       0.2597
     13  O         84.4840   48.6290 -121.3000 O.2    85  HIS85      -0.2718
     14  CB        83.4840   50.9890 -122.6470 C.3    85  HIS85       0.0759
     15  CG        83.3030   52.0080 -121.5640 C.ar   85  HIS85       0.0818
     16  ND1       83.5070   51.7210 -120.2290 N.ar   85  HIS85      -0.2268
     17  CD2       83.0030   53.3270 -121.6210 C.ar   85  HIS85       0.1154
     18  CE1       83.3080   52.8120 -119.5080 C.ar   85  HIS85       0.1986
     19  NE2       83.0020   53.8010 -120.3300 N.ar   85  HIS85      -0.2212
     20  N         86.4670   49.6850 -121.0810 N.am   86  SER86      -0.1938
     21  CA        86.9000   48.9820 -119.8840 C.3    86  SER86       0.2055
     22  C         87.0620   47.4610 -120.1390 C.2    86  SER86       0.2642
     23  O         88.0690   47.0670 -120.7370 O.2    86  SER86      -0.2714
     24  CB        85.9860   49.3990 -118.7250 C.3    86  SER86       0.2130
     25  OG        86.6690   49.2900 -117.5180 O.3    86  SER86      -0.2179
     26  N         86.1020   46.6070 -119.7550 N.am   87  LEU87      -0.1977
     27  CA        86.1090   45.2060 -120.2090 C.3    87  LEU87       0.1596
     28  C         86.2160   45.1060 -121.7330 C.2    87  LEU87       0.2287
     29  O         86.9190   44.2430 -122.2530 O.2    87  LEU87      -0.2864
     30  CB        84.8540   44.4640 -119.7160 C.3    87  LEU87       0.0297
     31  CG        84.6240   42.9880 -120.0920 C.3    87  LEU87       0.0022
     32  CD1       84.0970   42.8000 -121.5150 C.3    87  LEU87       0.0001
     33  CD2       85.8620   42.1240 -119.8650 C.3    87  LEU87       0.0001
     34  N         90.7020   39.3710 -114.4760 N.3   111  ARG111     -0.1245
     35  CA        90.2310   40.7370 -114.1940 C.3   111  ARG111      0.1563
     36  C         88.9520   40.7200 -113.3480 C.2   111  ARG111      0.2260
     37  O         88.8330   41.4680 -112.3780 O.2   111  ARG111     -0.2867
     38  CB        90.0010   41.5080 -115.4910 C.3   111  ARG111      0.0307
     39  CG        89.7500   43.0020 -115.3140 C.3   111  ARG111      0.0489
     40  CD        89.6840   43.6740 -116.6820 C.3   111  ARG111      0.2205
     41  NE        89.6310   45.1340 -116.6340 N.pl3 111  ARG111     -0.0865
     42  CZ        88.5290   45.8810 -116.5160 C.cat 111  ARG111      0.5346
     43  NH1       87.3140   45.3360 -116.3970 N.pl3 111  ARG111      0.1354
     44  NH2       88.6440   47.2070 -116.5000 N.pl3 111  ARG111      0.1354
     45  N         88.7570   42.3000 -109.5680 N.3   115  MET115     -0.1245
     46  CA        87.8050   43.3800 -109.2960 C.3   115  MET115      0.1570
     47  C         86.6970   42.9210 -108.3490 C.2   115  MET115      0.2261
     48  O         86.2870   43.6740 -107.4630 O.2   115  MET115     -0.2867
     49  CB        87.2520   43.9480 -110.6010 C.3   115  MET115      0.0387
     50  CG        88.3260   44.6610 -111.4180 C.3   115  MET115      0.0595
     51  SD        87.7900   45.2440 -113.0420 S.3   115  MET115     -0.1393
     52  CE        86.6170   46.5100 -112.5530 C.3   115  MET115      0.0692
     53  N         81.3650   53.9340 -105.8630 N.3   123  MET123     -0.1245
     54  CA        81.2630   54.7080 -107.0980 C.3   123  MET123      0.1570
     55  C         79.8530   55.2550 -107.2790 C.2   123  MET123      0.2261
     56  O         78.8910   54.7000 -106.7430 O.2   123  MET123     -0.2867
     57  CB        81.6350   53.8500 -108.3150 C.3   123  MET123      0.0387
     58  CG        82.9730   53.1280 -108.2290 C.3   123  MET123      0.0595
     59  SD        83.3290   52.0820 -109.6580 S.3   123  MET123     -0.1393
     60  CE        84.0260   53.2580 -110.8040 C.3   123  MET123      0.0692
     61  N         85.2650   57.6520 -114.6870 N.3   150  ASN150     -0.1240
     62  CA        84.8890   57.4950 -116.1050 C.3   150  ASN150      0.1653
     63  C         84.4810   58.8500 -116.6600 C.2   150  ASN150      0.2266
     64  O         83.6460   59.5280 -116.0560 O.2   150  ASN150     -0.2867
     65  CB        83.6600   56.5980 -116.3100 C.3   150  ASN150      0.1155
     66  CG        83.8870   55.1320 -116.0040 C.2   150  ASN150      0.2627
     67  OD1       83.0540   54.3110 -116.3860 O.2   150  ASN150     -0.2716
     68  ND2       84.9750   54.7860 -115.3330 N.am  150  ASN150     -0.0877
     69  N         81.3350   59.1420 -114.1710 N.3   158  VAL158     -0.1245
     70  CA        81.3020   58.2660 -112.9920 C.3   158  VAL158      0.1561
     71  C         82.4070   58.6980 -112.0360 C.2   158  VAL158      0.2260
     72  O         83.5530   58.8770 -112.4530 O.2   158  VAL158     -0.2867
     73  CB        81.5000   56.7760 -113.3520 C.3   158  VAL158      0.0252
     74  CG1       81.4680   55.9010 -112.1060 C.3   158  VAL158      0.0019
     75  CG2       80.4360   56.3270 -114.3530 C.3   158  VAL158      0.0019
     76  N         76.5150   53.0570 -107.2410 N.3   184  LEU184     -0.1245
     77  CA        76.5800   51.7780 -107.9480 C.3   184  LEU184      0.1561
     78  C         76.7980   50.6150 -106.9900 C.2   184  LEU184      0.2260
     79  O         77.3750   50.7840 -105.9110 O.2   184  LEU184     -0.2867
     80  CB        77.7000   51.7940 -108.9830 C.3   184  LEU184      0.0270
     81  CG        77.7050   52.9510 -109.9860 C.3   184  LEU184      0.0019
     82  CD1       78.8380   52.7360 -110.9740 C.3   184  LEU184      0.0001
     83  CD2       76.3690   53.0870 -110.7070 C.3   184  LEU184      0.0001
     84  N         79.0190   48.0370 -106.6000 N.3   186  VAL186     -0.1245
     85  CA        80.3570   47.5700 -106.9650 C.3   186  VAL186      0.1561
     86  C         81.1080   47.2400 -105.6840 C.2   186  VAL186      0.2260
     87  O         80.8160   47.7980 -104.6370 O.2   186  VAL186     -0.2867
     88  CB        81.1460   48.6250 -107.7820 C.3   186  VAL186      0.0252
     89  CG1       80.6420   48.6860 -109.2190 C.3   186  VAL186      0.0019
     90  CG2       81.0860   50.0060 -107.1300 C.3   186  VAL186      0.0019
     91  N         86.6800   51.5990 -108.0990 N.3   190  PHE190     -0.1227
     92  CA        87.4430   51.3070 -109.3180 C.3   190  PHE190      0.1736
     93  C         87.9440   52.5880 -109.9840 C.2   190  PHE190      0.2595
     94  O         87.3350   53.6600 -109.8510 O.2   190  PHE190     -0.2718
     95  CB        86.6170   50.5020 -110.3340 C.3   190  PHE190      0.0547
     96  CG        86.0750   49.2010 -109.8090 C.ar  190  PHE190     -0.0202
     97  CD1       86.8770   48.3300 -109.0740 C.ar  190  PHE190     -0.0042
     98  CD2       84.7740   48.8080 -110.1100 C.ar  190  PHE190     -0.0042
     99  CE1       86.3780   47.1220 -108.6070 C.ar  190  PHE190     -0.0003
    100  CE2       84.2710   47.5950 -109.6530 C.ar  190  PHE190     -0.0003
    101  CZ        85.0750   46.7540 -108.8970 C.ar  190  PHE190     -0.0000
    102  N         89.0650   52.4560 -110.6880 N.am  191  HIS191     -0.1975
    103  CA        89.6430   53.5180 -111.5230 C.3   191  HIS191      0.1656
    104  C         90.1950   54.6970 -110.7340 C.2   191  HIS191      0.2291
    105  O         90.2840   55.8140 -111.2540 O.2   191  HIS191     -0.2864
    106  CB        88.6440   53.9520 -112.6110 C.3   191  HIS191      0.0771
    107  CG        88.1830   52.8090 -113.4460 C.ar  191  HIS191      0.0820
    108  ND1       89.0370   52.0990 -114.2620 N.ar  191  HIS191     -0.2267
    109  CD2       86.9810   52.1990 -113.5310 C.ar  191  HIS191      0.1154
    110  CE1       88.3690   51.1130 -114.8320 C.ar  191  HIS191      0.1986
    111  NE2       87.1200   51.1530 -114.4060 N.ar  191  HIS191     -0.2212
    112  N         88.9310   56.3360 -116.9140 N.3   244  VAL244     -0.1245
    113  CA        88.5260   55.8170 -118.2240 C.3   244  VAL244      0.1561
    114  C         88.1870   56.9870 -119.1440 C.2   244  VAL244      0.2260
    115  O         87.1350   57.6270 -118.9990 O.2   244  VAL244     -0.2867
    116  CB        87.3260   54.8510 -118.0960 C.3   244  VAL244      0.0252
    117  CG1       86.8930   54.3280 -119.4630 C.3   244  VAL244      0.0019
    118  CG2       87.6860   53.7110 -117.1400 C.3   244  VAL244      0.0019
@<TRIPOS>BOND
     1    10    11    1
     2    11    14    1
     3    11    12    1
     4    14    15    1
     5    29    28    2
     6    28    27    1
     7    12    13    2
     8    12    20   am
     9    17    15   ar
    10    17    19   ar
    11    15    16   ar
    12    32    31    1
    13    20    21    1
    14    23    22    2
    15    19    18   ar
    16    16    18   ar
    17    27    26    1
    18    27    30    1
    19    22    21    1
    20    22    26   am
    21    31    33    1
    22    31    30    1
    23    21    24    1
    24   117   116    1
    25   114   115    2
    26   114   113    1
    27    24    25    1
    28     1     2    1
    29   113   116    1
    30   113   112    1
    31   116   118    1
    32     4     3    2
    33     2     3    1
    34     2     5    1
    35    40    41    1
    36    40    39    1
    37    63    62    1
    38    63    64    2
    39    41    42    2
    40    42    44    1
    41    42    43    1
    42    67    66    2
    43    65    62    1
    44    65    66    1
    45     5     6    1
    46     6     7    1
    47    62    61    1
    48    66    68   am
    49    38    39    1
    50    38    35    1
    51   110   111   ar
    52   110   108   ar
    53     7     8    2
    54     7     9   am
    55    34    35    1
    56   111   109   ar
    57    75    73    1
    58   108   107   ar
    59    35    36    1
    60    69    70    1
    61   109   107   ar
    62   107   106    1
    63    73    70    1
    64    73    74    1
    65    36    37    2
    66    51    52    1
    67    51    50    1
    68    70    71    1
    69   106   103    1
    70    72    71    2
    71   103   104    1
    72   103   102    1
    73    50    49    1
    74   105   104    2
    75    82    81    1
    76    60    59    1
    77    83    81    1
    78   102    93   am
    79    49    46    1
    80    95    96    1
    81    95    92    1
    82    98    96   ar
    83    98   100   ar
    84    81    80    1
    85    93    94    2
    86    93    92    1
    87    96    97   ar
    88    59    58    1
    89   100   101   ar
    90    45    46    1
    91    92    91    1
    92    46    47    1
    93    89    88    1
    94    97    99   ar
    95    80    77    1
    96   101    99   ar
    97    47    48    2
    98    57    58    1
    99    57    54    1
   100    77    76    1
   101    77    78    1
   102    88    90    1
   103    88    85    1
   104    55    54    1
   105    55    56    2
   106    54    53    1
   107    78    79    2
   108    85    84    1
   109    85    86    1
   110    86    87    2
