@<TRIPOS>MOLECULE
tmp/6aphA01.pdb
 172 162 0 0 0
SMALL
GASTEIGER

@<TRIPOS>ATOM
      1  N        -22.3620   37.3400    9.7140 N.3    52  LEU52      -0.1231
      2  CA       -23.0380   38.0410    8.6350 C.3    52  LEU52       0.1693
      3  C        -23.8850   39.1390    9.2580 C.2    52  LEU52       0.2592
      4  O        -24.6340   38.8690   10.1930 O.2    52  LEU52      -0.2718
      5  CB       -23.9130   37.0670    7.8120 C.3    52  LEU52       0.0284
      6  CG       -24.2330   37.5110    6.3840 C.3    52  LEU52       0.0019
      7  CD1      -24.4910   36.3190    5.4730 C.3    52  LEU52       0.0001
      8  CD2      -25.4260   38.4240    6.3940 C.3    52  LEU52       0.0001
      9  N        -23.7350   40.3660    8.7510 N.am   53  HIS53      -0.1976
     10  CA       -24.4810   41.5430    9.1950 C.3    53  HIS53       0.1656
     11  C        -25.8110   41.2180    9.8560 C.2    53  HIS53       0.2291
     12  O        -26.7100   40.6990    9.1920 O.2    53  HIS53      -0.2864
     13  CB       -24.7300   42.4510    7.9910 C.3    53  HIS53       0.0771
     14  CG       -23.5040   42.6840    7.1570 C.ar   53  HIS53       0.0820
     15  ND1      -22.4210   43.4100    7.6060 N.ar   53  HIS53      -0.2267
     16  CD2      -23.2000   42.2890    5.8990 C.ar   53  HIS53       0.1154
     17  CE1      -21.5000   43.4550    6.6550 C.ar   53  HIS53       0.1986
     18  NE2      -21.9570   42.7900    5.6060 N.ar   53  HIS53      -0.2212
     19  N        -28.8880   41.9800   10.5870 N.3    55  THR55      -0.1218
     20  CA       -29.9770   42.8400   10.1390 C.3    55  THR55       0.1862
     21  C        -31.3110   42.1110   10.2460 C.2    55  THR55       0.2287
     22  O        -31.3770   40.9120   10.5360 O.2    55  THR55      -0.2866
     23  CB       -29.7680   43.2450    8.6880 C.3    55  THR55       0.1770
     24  OG1      -29.9010   42.0510    7.8970 O.3    55  THR55      -0.2211
     25  CG2      -28.3970   43.8680    8.4910 C.3    55  THR55       0.0375
     26  N        -33.0560   41.3250    7.7460 N.3    57  GLN57      -0.1231
     27  CA       -33.0490   40.3210    6.6810 C.3    57  GLN57       0.1698
     28  C        -32.3330   39.0680    7.1380 C.2    57  GLN57       0.2592
     29  O        -32.7700   37.9370    6.8690 O.2    57  GLN57      -0.2718
     30  CB       -32.3520   40.8830    5.4390 C.3    57  GLN57       0.0381
     31  CG       -33.1080   42.0440    4.7490 C.3    57  GLN57       0.0905
     32  CD       -33.2420   43.2790    5.6160 C.2    57  GLN57       0.2608
     33  OE1      -32.2680   43.7500    6.1910 O.2    57  GLN57      -0.2717
     34  NE2      -34.4630   43.8240    5.6980 N.am   57  GLN57      -0.0878
     35  N        -31.2030   39.2500    7.8200 N.am   58  THR58      -0.1953
     36  CA       -30.4830   38.1000    8.3330 C.3    58  THR58       0.1897
     37  C        -31.3090   37.3360    9.3570 C.2    58  THR58       0.2313
     38  O        -31.2160   36.1030    9.4390 O.2    58  THR58      -0.2863
     39  CB       -29.1480   38.5750    8.9200 C.3    58  THR58       0.1794
     40  OG1      -28.3740   39.1410    7.8620 O.3    58  THR58      -0.2208
     41  CG2      -28.3770   37.4290    9.5560 C.3    58  THR58       0.0378
     42  N        -19.3760   35.7480    5.6210 N.3   131  ASP131     -0.1239
     43  CA       -19.5240   36.9250    4.7570 C.3   131  ASP131      0.1674
     44  C        -18.2590   37.7510    4.9790 C.2   131  ASP131      0.2266
     45  O        -18.1490   38.4990    5.9590 O.2   131  ASP131     -0.2867
     46  CB       -20.8020   37.6890    5.1070 C.3   131  ASP131      0.1410
     47  CG       -20.9440   39.0260    4.3820 C.2   131  ASP131      0.3668
     48  OD1      -20.0580   39.4460    3.6040 O.co2 131  ASP131     -0.2456
     49  OD2      -21.9840   39.6820    4.6150 O.co2 131  ASP131     -0.2456
     50  N        -20.3190   34.3650    1.2590 N.3   156  GLU156     -0.1231
     51  CA       -21.3620   35.2420    0.7340 C.3   156  GLU156      0.1699
     52  C        -20.8510   36.3540   -0.1800 C.2   156  GLU156      0.2592
     53  O        -21.5980   36.8290   -1.0400 O.2   156  GLU156     -0.2718
     54  CB       -22.1130   35.8700    1.9190 C.3   156  GLU156      0.0402
     55  CG       -22.9780   37.0920    1.6140 C.3   156  GLU156      0.1161
     56  CD       -24.4160   36.7170    1.4020 C.2   156  GLU156      0.3649
     57  OE1      -24.7370   35.5410    1.6440 O.co2 156  GLU156     -0.2457
     58  OE2      -25.2180   37.5880    0.9990 O.co2 156  GLU156     -0.2457
     59  N        -19.6200   36.8310   -0.0120 N.am  157  THR157     -0.1953
     60  CA       -19.2870   38.0870   -0.6940 C.3   157  THR157      0.1897
     61  C        -17.9690   38.0190   -1.4600 C.2   157  THR157      0.2313
     62  O        -17.1040   37.1650   -1.2130 O.2   157  THR157     -0.2863
     63  CB       -19.2600   39.2850    0.2940 C.3   157  THR157      0.1794
     64  OG1      -19.4670   40.5180   -0.4220 O.3   157  THR157     -0.2208
     65  CG2      -17.9330   39.3840    1.0370 C.3   157  THR157      0.0378
     66  N        -27.1870   36.0940   -6.9630 N.3   186  LYS186     -0.1245
     67  CA       -26.5770   36.8880   -5.9040 C.3   186  LYS186      0.1561
     68  C        -25.7880   38.0370   -6.5290 C.2   186  LYS186      0.2260
     69  O        -26.2070   39.1970   -6.4330 O.2   186  LYS186     -0.2867
     70  CB       -25.7010   35.9940   -5.0210 C.3   186  LYS186      0.0271
     71  CG       -25.3710   36.5850   -3.6350 C.3   186  LYS186      0.0035
     72  CD       -24.3460   37.7290   -3.7330 C.3   186  LYS186      0.0206
     73  CE       -24.0260   38.2280   -2.3390 C.3   186  LYS186      0.1093
     74  NZ       -22.8860   39.2420   -2.3710 N.3   186  LYS186     -0.1314
     75  N        -28.0160   41.2420   -5.7610 N.3   190  ASP190     -0.1225
     76  CA       -27.5550   41.8530   -4.5120 C.3   190  ASP190      0.1805
     77  C        -26.4640   42.8900   -4.7550 C.2   190  ASP190      0.2597
     78  O        -26.6340   44.0620   -4.4180 O.2   190  ASP190     -0.2718
     79  CB       -27.1000   40.6920   -3.6110 C.3   190  ASP190      0.1424
     80  CG       -26.3840   41.1120   -2.3240 C.2   190  ASP190      0.3668
     81  OD1      -25.6180   42.0840   -2.3000 O.co2 190  ASP190     -0.2456
     82  OD2      -26.5750   40.3690   -1.3300 O.co2 190  ASP190     -0.2456
     83  N        -25.3070   42.4620   -5.2930 N.am  191  ASN191     -0.1974
     84  CA       -24.1680   43.3720   -5.4070 C.3   191  ASN191      0.1688
     85  C        -24.5300   44.6130   -6.2040 C.2   191  ASN191      0.2292
     86  O        -24.1250   45.7280   -5.8460 O.2   191  ASN191     -0.2864
     87  CB       -22.9880   42.6470   -6.0680 C.3   191  ASN191      0.1181
     88  CG       -22.5480   41.4460   -5.2980 C.2   191  ASN191      0.2629
     89  OD1      -23.3350   40.7620   -4.6470 O.2   191  ASN191     -0.2716
     90  ND2      -21.2380   41.1780   -5.3570 N.am  191  ASN191     -0.0877
     91  N        -18.2520   51.5980    0.2300 N.3   299  ILE299     -0.1245
     92  CA       -19.2790   50.5570    0.2430 C.3   299  ILE299      0.1561
     93  C        -18.6950   49.1920   -0.1220 C.2   299  ILE299      0.2260
     94  O        -19.4250   48.1940   -0.1840 O.2   299  ILE299     -0.2867
     95  CB       -20.4730   50.9650   -0.6560 C.3   299  ILE299      0.0252
     96  CG1      -21.7500   50.1090   -0.4480 C.3   299  ILE299      0.0019
     97  CG2      -20.0950   51.0080   -2.1320 C.3   299  ILE299      0.0019
     98  CD1      -23.0060   50.8380   -1.0530 C.3   299  ILE299      0.0001
     99  N        -16.2110   45.8900    1.0820 N.3   301  HIS301     -0.1241
    100  CA       -16.3570   45.1170    2.3200 C.3   301  HIS301      0.1621
    101  C        -15.5030   45.6780    3.4630 C.2   301  HIS301      0.2264
    102  O        -15.9590   45.7110    4.6120 O.2   301  HIS301     -0.2867
    103  CB       -16.0390   43.6330    2.0990 C.3   301  HIS301      0.0745
    104  CG       -16.2950   42.7950    3.3210 C.ar  301  HIS301      0.0817
    105  ND1      -17.5700   42.5140    3.7850 N.ar  301  HIS301     -0.2268
    106  CD2      -15.4420   42.2650    4.2260 C.ar  301  HIS301      0.1154
    107  CE1      -17.4820   41.8120    4.9010 C.ar  301  HIS301      0.1986
    108  NE2      -16.2020   41.6500    5.1920 N.ar  301  HIS301     -0.2212
    109  N        -18.4120   49.8520    5.5260 N.3   344  LEU344     -0.1245
    110  CA       -19.4330   49.7900    4.4720 C.3   344  LEU344      0.1561
    111  C        -20.6440   50.6470    4.8290 C.2   344  LEU344      0.2260
    112  O        -21.3190   50.4290    5.8440 O.2   344  LEU344     -0.2867
    113  CB       -19.8570   48.3640    4.1290 C.3   344  LEU344      0.0270
    114  CG       -19.7190   47.1260    4.9660 C.3   344  LEU344      0.0019
    115  CD1      -20.5360   47.3250    6.1860 C.3   344  LEU344      0.0001
    116  CD2      -20.2540   45.9830    4.1230 C.3   344  LEU344      0.0001
    117  N        -23.6040   51.5470    3.4200 N.3   346  ASN346     -0.1225
    118  CA       -25.0330   51.2640    3.3290 C.3   346  ASN346      0.1785
    119  C        -25.5360   50.5860    4.5970 C.2   346  ASN346      0.2597
    120  O        -26.6200   50.9180    5.0990 O.2   346  ASN346     -0.2718
    121  CB       -25.3450   50.4470    2.0700 C.3   346  ASN346      0.1169
    122  CG       -24.6330   49.0880    2.0110 C.2   346  ASN346      0.2627
    123  OD1      -23.5380   48.9020    2.5380 O.2   346  ASN346     -0.2716
    124  ND2      -25.2750   48.1300    1.3500 N.am  346  ASN346     -0.0877
    125  N        -24.7310   49.6970    5.1790 N.am  347  LEU347     -0.1980
    126  CA       -25.0880   49.0900    6.4530 C.3   347  LEU347      0.1596
    127  C        -24.7230   49.9700    7.6440 C.2   347  LEU347      0.2287
    128  O        -25.3640   49.8690    8.6980 O.2   347  LEU347     -0.2864
    129  CB       -24.4030   47.7220    6.5660 C.3   347  LEU347      0.0297
    130  CG       -25.0230   46.6960    5.6070 C.3   347  LEU347      0.0022
    131  CD1      -24.0130   45.6940    5.0610 C.3   347  LEU347      0.0001
    132  CD2      -26.1580   45.9510    6.3310 C.3   347  LEU347      0.0001
    133  N        -29.6650   50.8330    6.4850 N.3   351  THR351     -0.1203
    134  CA       -30.0340   49.4780    6.8880 C.3   351  THR351      0.1994
    135  C        -29.5860   48.4370    5.8720 C.2   351  THR351      0.2618
    136  O        -30.1620   47.3450    5.8290 O.2   351  THR351     -0.2717
    137  CB       -31.5510   49.3610    7.0900 C.3   351  THR351      0.1784
    138  OG1      -32.1970   49.5970    5.8310 O.3   351  THR351     -0.2211
    139  CG2      -32.0170   50.4040    8.0630 C.3   351  THR351      0.0376
    140  N        -28.5740   48.7540    5.0530 N.am  352  GLY352     -0.1942
    141  CA       -28.2000   47.7970    4.0130 C.3   352  GLY352      0.2014
    142  C        -29.3000   47.5900    2.9720 C.2   352  GLY352      0.2638
    143  O        -30.2500   48.3750    2.8320 O.2   352  GLY352     -0.2714
    144  N        -29.1330   46.5320    2.2030 N.am  353  HIS353     -0.1973
    145  CA       -30.0860   46.2110    1.1440 C.3   353  HIS353      0.1656
    146  C        -31.4680   45.9100    1.7000 C.2   353  HIS353      0.2291
    147  O        -31.6210   45.4820    2.8500 O.2   353  HIS353     -0.2864
    148  CB       -29.6550   44.9550    0.3860 C.3   353  HIS353      0.0771
    149  CG       -28.3390   45.0750   -0.3040 C.ar  353  HIS353      0.0820
    150  ND1      -27.6670   46.2710   -0.4670 N.ar  353  HIS353     -0.2267
    151  CD2      -27.5560   44.1200   -0.8620 C.ar  353  HIS353      0.1154
    152  CE1      -26.5310   46.0480   -1.0970 C.ar  353  HIS353      0.1986
    153  NE2      -26.4490   44.7530   -1.3660 N.ar  353  HIS353     -0.2212
    154  N        -32.3070   40.6600   -0.6280 N.3   358  MET358     -0.1245
    155  CA       -31.6040   39.7310    0.2560 C.3   358  MET358      0.1570
    156  C        -32.2450   38.3610    0.2650 C.2   358  MET358      0.2261
    157  O        -31.5670   37.3780    0.5930 O.2   358  MET358     -0.2867
    158  CB       -31.5410   40.2620    1.6910 C.3   358  MET358      0.0387
    159  CG       -30.7280   41.5710    1.7860 C.3   358  MET358      0.0595
    160  SD       -29.0770   41.4280    1.0260 S.3   358  MET358     -0.1393
    161  CE       -28.4630   40.0080    1.9450 C.3   358  MET358      0.0692
    162  N        -30.0410   35.0400    0.2380 N.3   362  PHE362     -0.1241
    163  CA       -30.1930   34.1230    1.3520 C.3   362  PHE362      0.1605
    164  C        -30.9030   32.8330    0.9480 C.2   362  PHE362      0.2264
    165  O        -30.7150   31.8080    1.6110 O.2   362  PHE362     -0.2867
    166  CB       -30.9380   34.8390    2.4920 C.3   362  PHE362      0.0534
    167  CG       -30.0990   35.8970    3.1830 C.ar  362  PHE362     -0.0203
    168  CD1      -28.7170   35.9770    2.9530 C.ar  362  PHE362     -0.0042
    169  CD2      -30.6820   36.7880    4.0810 C.ar  362  PHE362     -0.0042
    170  CE1      -27.9340   36.9290    3.6080 C.ar  362  PHE362     -0.0003
    171  CE2      -29.9110   37.7320    4.7430 C.ar  362  PHE362     -0.0003
    172  CZ       -28.5440   37.8130    4.5190 C.ar  362  PHE362     -0.0000
@<TRIPOS>BOND
     1    66    67    1
     2    68    69    2
     3    68    67    1
     4    85    86    2
     5    85    84    1
     6    87    84    1
     7    87    88    1
     8    67    70    1
     9    75    76    1
    10    84    83    1
    11    90    88   am
    12    88    89    2
    13    83    77   am
    14    70    71    1
    15    77    76    1
    16    77    78    2
    17    76    79    1
    18    72    71    1
    19    72    73    1
    20    79    80    1
    21    74    73    1
    22    80    81   ar
    23    80    82   ar
    24    97    95    1
    25    61    62    2
    26    61    60    1
    27   153   152   ar
    28   153   151   ar
    29   152   150   ar
    30    98    96    1
    31    53    52    2
    32   151   149   ar
    33    60    59    1
    34    60    63    1
    35    95    96    1
    36    95    92    1
    37   154   155    1
    38   150   149   ar
    39    64    63    1
    40   149   148    1
    41    94    93    2
    42    52    59   am
    43    52    51    1
    44    93    92    1
    45    91    92    1
    46   162   163    1
    47   155   156    1
    48   155   158    1
    49   156   157    2
    50    63    65    1
    51   148   145    1
    52    51    50    1
    53    51    54    1
    54   164   163    1
    55   164   165    2
    56    58    56   ar
    57   160   159    1
    58   160   161    1
    59    99   100    1
    60   145   146    1
    61   145   144    1
    62   124   122   am
    63   163   166    1
    64    56    55    1
    65    56    57   ar
    66    55    54    1
    67   158   159    1
    68   146   147    2
    69   122   121    1
    70   122   123    2
    71   121   118    1
    72   103   100    1
    73   103   104    1
    74   144   142   am
    75   100   101    1
    76   166   167    1
    77   143   142    2
    78   168   167   ar
    79   168   170   ar
    80   142   141    1
    81   167   169   ar
    82   104   105   ar
    83   104   106   ar
    84   118   117    1
    85   118   119    1
    86   101   102    2
    87    48    47   ar
    88   170   172   ar
    89   105   107   ar
    90   141   140    1
    91   169   171   ar
    92   116   114    1
    93   113   110    1
    94   113   114    1
    95   106   108   ar
    96    47    49   ar
    97    47    46    1
    98   110   111    1
    99   110   109    1
   100   172   171   ar
   101   119   120    2
   102   119   125   am
   103    31    30    1
   104    31    32    1
   105    43    44    1
   106    43    46    1
   107    43    42    1
   108   111   112    2
   109   107   108   ar
   110   114   115    1
   111    44    45    2
   112   140   135   am
   113   131   130    1
   114   125   126    1
   115    30    27    1
   116     7     6    1
   117    18    16   ar
   118    18    17   ar
   119   130   132    1
   120   130   129    1
   121    32    34   am
   122    32    33    2
   123   136   135    2
   124   138   137    1
   125   135   134    1
   126    16    14   ar
   127     6     8    1
   128     6     5    1
   129   126   129    1
   130   126   127    1
   131   133   134    1
   132    17    15   ar
   133    27    28    1
   134    27    26    1
   135    29    28    2
   136   134   137    1
   137   137   139    1
   138    28    35   am
   139    14    15   ar
   140    14    13    1
   141   127   128    2
   142     5     2    1
   143    35    36    1
   144    40    39    1
   145    24    23    1
   146    13    10    1
   147    36    39    1
   148    36    37    1
   149    25    23    1
   150     2     3    1
   151     2     1    1
   152    23    20    1
   153     9    10    1
   154     9     3   am
   155    39    41    1
   156    12    11    2
   157    10    11    1
   158     3     4    2
   159    37    38    2
   160    20    21    1
   161    20    19    1
   162    21    22    2
