@<TRIPOS>MOLECULE
tmp/6aplC00.pdb
 195 188 0 0 0
SMALL
GASTEIGER

@<TRIPOS>ATOM
      1  N        -20.3900   39.8960  -17.9050 N.3    87  GLY87      -0.1210
      2  CA       -19.8770   38.8220  -18.7300 C.3    87  GLY87       0.1956
      3  C        -18.4160   38.5540  -18.4060 C.2    87  GLY87       0.2612
      4  O        -17.7570   39.3260  -17.7140 O.2    87  GLY87      -0.2717
      5  N        -17.8960   37.4340  -18.9150 N.am   88  ASN88      -0.1960
      6  CA       -16.5830   36.9490  -18.5060 C.3    88  ASN88       0.1819
      7  C        -15.4820   37.2770  -19.5140 C.2    88  ASN88       0.2622
      8  O        -14.4290   36.6300  -19.5210 O.2    88  ASN88      -0.2715
      9  CB       -16.6650   35.4510  -18.2220 C.3    88  ASN88       0.1195
     10  CG       -17.6440   35.1470  -17.1030 C.2    88  ASN88       0.2630
     11  OD1      -17.7790   35.9340  -16.1650 O.2    88  ASN88      -0.2716
     12  ND2      -18.3540   34.0280  -17.2080 N.am   88  ASN88      -0.0877
     13  N        -15.6800   38.3180  -20.3190 N.am   89  GLY89      -0.1940
     14  CA       -14.7430   38.6290  -21.3820 C.3    89  GLY89       0.2014
     15  C        -13.4250   39.2030  -20.8860 C.2    89  GLY89       0.2639
     16  O        -13.3470   39.8830  -19.8610 O.2    89  GLY89      -0.2714
     17  N        -12.3720   38.9340  -21.6650 N.am   90  GLY90      -0.1954
     18  CA       -11.0220   39.3490  -21.3110 C.3    90  GLY90       0.1869
     19  C        -10.8410   40.8450  -21.1650 C.2    90  GLY90       0.2309
     20  O         -9.8450   41.2840  -20.5810 O.2    90  GLY90      -0.2863
     21  N        -22.5490   34.9960  -14.3690 N.3   110  LEU110     -0.1231
     22  CA       -22.9550   33.7790  -15.0630 C.3   110  LEU110      0.1693
     23  C        -21.7290   32.9750  -15.4900 C.2   110  LEU110      0.2592
     24  O        -20.6140   33.4980  -15.5650 O.2   110  LEU110     -0.2718
     25  CB       -23.8530   34.0990  -16.2770 C.3   110  LEU110      0.0284
     26  CG       -23.5970   35.2690  -17.2440 C.3   110  LEU110      0.0019
     27  CD1      -24.0610   36.6090  -16.6840 C.3   110  LEU110      0.0001
     28  CD2      -22.1530   35.3680  -17.6590 C.3   110  LEU110      0.0001
     29  N        -21.9590   31.6900  -15.7630 N.am  111  ASN111     -0.1960
     30  CA       -20.9780   30.7850  -16.3900 C.3   111  ASN111      0.1819
     31  C        -19.6900   30.7940  -15.5700 C.2   111  ASN111      0.2621
     32  O        -19.7370   30.5410  -14.3550 O.2   111  ASN111     -0.2715
     33  CB       -20.8140   31.1740  -17.8550 C.3   111  ASN111      0.1195
     34  CG       -22.0230   30.8260  -18.6970 C.2   111  ASN111      0.2630
     35  OD1      -23.0500   30.3850  -18.1840 O.2   111  ASN111     -0.2716
     36  ND2      -21.9080   31.0280  -20.0020 N.am  111  ASN111     -0.0877
     37  N        -18.5350   31.0720  -16.1710 N.am  112  GLY112     -0.1954
     38  CA       -17.2650   30.9850  -15.4800 C.3   112  GLY112      0.1869
     39  C        -16.9330   32.2270  -14.6860 C.2   112  GLY112      0.2309
     40  O        -15.8870   32.8510  -14.8920 O.2   112  GLY112     -0.2863
     41  N        -23.0760   24.1530  -18.9330 N.3   135  THR135     -0.1218
     42  CA       -21.9950   25.1300  -18.9330 C.3   135  THR135      0.1862
     43  C        -21.3960   25.2830  -17.5380 C.2   135  THR135      0.2287
     44  O        -20.1780   25.4440  -17.3980 O.2   135  THR135     -0.2866
     45  CB       -22.4950   26.4720  -19.4740 C.3   135  THR135      0.1770
     46  OG1      -22.8550   26.3300  -20.8540 O.3   135  THR135     -0.2211
     47  CG2      -21.4130   27.5250  -19.3700 C.3   135  THR135      0.0375
     48  N        -17.4990   24.5820  -16.9300 N.3   138  SER138     -0.1217
     49  CA       -16.6470   25.6380  -16.3970 C.3   138  SER138      0.1889
     50  C        -15.8560   25.1480  -15.1910 C.2   138  SER138      0.2288
     51  O        -14.6550   25.4200  -15.0700 O.2   138  SER138     -0.2866
     52  CB       -17.5030   26.8530  -16.0270 C.3   138  SER138      0.2089
     53  OG       -18.1080   27.4250  -17.1730 O.3   138  SER138     -0.2183
     54  N        -11.8910   25.5450  -15.7810 N.3   142  TYR142     -0.1241
     55  CA       -11.2830   26.7070  -15.1450 C.3   142  TYR142      0.1605
     56  C        -11.0000   26.4770  -13.6650 C.2   142  TYR142      0.2264
     57  O        -10.8150   27.4440  -12.9150 O.2   142  TYR142     -0.2867
     58  CB       -12.1800   27.9290  -15.3380 C.3   142  TYR142      0.0534
     59  CG       -12.6730   28.0820  -16.7590 C.ar  142  TYR142     -0.0201
     60  CD1      -11.8060   27.9450  -17.8370 C.ar  142  TYR142     -0.0009
     61  CD2      -14.0100   28.3380  -17.0240 C.ar  142  TYR142     -0.0009
     62  CE1      -12.2580   28.0740  -19.1410 C.ar  142  TYR142      0.0417
     63  CE2      -14.4690   28.4670  -18.3200 C.ar  142  TYR142      0.0417
     64  CZ       -13.5910   28.3370  -19.3720 C.ar  142  TYR142      0.1957
     65  OH       -14.0580   28.4700  -20.6600 O.3   142  TYR142     -0.2866
     66  N        -26.3850   33.4580  -25.9090 N.3   233  SER233     -0.1202
     67  CA       -25.4560   33.1190  -24.8400 C.3   233  SER233      0.2020
     68  C        -26.0900   33.4190  -23.4870 C.2   233  SER233      0.2619
     69  O        -26.9870   34.2590  -23.3700 O.2   233  SER233     -0.2717
     70  CB       -24.1500   33.9030  -24.9980 C.3   233  SER233      0.2103
     71  OG       -24.3540   35.2930  -24.7980 O.3   233  SER233     -0.2182
     72  N        -25.6290   32.7120  -22.4520 N.am  234  THR234     -0.1938
     73  CA       -26.1890   32.9410  -21.1250 C.3   234  THR234      0.2028
     74  C        -25.9440   34.3790  -20.6810 C.2   234  THR234      0.2643
     75  O        -26.8080   34.9970  -20.0480 O.2   234  THR234     -0.2714
     76  CB       -25.6100   31.9360  -20.1270 C.3   234  THR234      0.1808
     77  OG1      -25.9980   30.6130  -20.5160 O.3   234  THR234     -0.2208
     78  CG2      -26.1310   32.2020  -18.7230 C.3   234  THR234      0.0379
     79  N        -24.7900   34.9410  -21.0500 N.am  235  GLY235     -0.1939
     80  CA       -24.5470   36.3530  -20.7960 C.3   235  GLY235      0.2014
     81  C        -25.5550   37.2540  -21.4860 C.2   235  GLY235      0.2638
     82  O        -26.0130   38.2430  -20.9080 O.2   235  GLY235     -0.2714
     83  N        -25.9100   36.9280  -22.7340 N.am  236  ALA236     -0.1977
     84  CA       -26.9860   37.6380  -23.4190 C.3   236  ALA236      0.1597
     85  C        -28.3160   37.4700  -22.6910 C.2   236  ALA236      0.2287
     86  O        -29.1040   38.4180  -22.6010 O.2   236  ALA236     -0.2864
     87  CB       -27.1040   37.1480  -24.8620 C.3   236  ALA236      0.0319
     88  N        -17.7180   43.3380  -19.4690 N.3   252  GLY252     -0.1210
     89  CA       -17.1770   42.0720  -19.9240 C.3   252  GLY252      0.1956
     90  C        -17.9400   41.3790  -21.0310 C.2   252  GLY252      0.2612
     91  O        -17.8660   40.1520  -21.1450 O.2   252  GLY252     -0.2717
     92  N        -18.6740   42.1270  -21.8480 N.am  253  PHE253     -0.1962
     93  CA       -19.3140   41.6070  -23.0470 C.3   253  PHE253      0.1771
     94  C        -18.4990   41.9800  -24.2780 C.2   253  PHE253      0.2619
     95  O        -17.6840   42.9060  -24.2590 O.2   253  PHE253     -0.2715
     96  CB       -20.7460   42.1370  -23.1790 C.3   253  PHE253      0.0574
     97  CG       -21.6990   41.5160  -22.2080 C.ar  253  PHE253     -0.0200
     98  CD1      -21.7470   41.9540  -20.8960 C.ar  253  PHE253     -0.0042
     99  CD2      -22.5250   40.4740  -22.5950 C.ar  253  PHE253     -0.0042
    100  CE1      -22.6040   41.3760  -19.9920 C.ar  253  PHE253     -0.0003
    101  CE2      -23.3880   39.8900  -21.6930 C.ar  253  PHE253     -0.0003
    102  CZ       -23.4280   40.3410  -20.3900 C.ar  253  PHE253     -0.0000
    103  N        -18.7390   41.2450  -25.3630 N.am  254  ILE254     -0.1977
    104  CA       -17.9180   41.3970  -26.5560 C.3   254  ILE254      0.1596
    105  C        -18.1320   42.7800  -27.1570 C.2   254  ILE254      0.2287
    106  O        -19.2700   43.2340  -27.3340 O.2   254  ILE254     -0.2864
    107  CB       -18.2290   40.2840  -27.5680 C.3   254  ILE254      0.0276
    108  CG1      -17.4800   40.5220  -28.8800 C.3   254  ILE254      0.0022
    109  CG2      -19.7300   40.1700  -27.8050 C.3   254  ILE254      0.0022
    110  CD1      -17.5310   39.3430  -29.8030 C.3   254  ILE254      0.0001
    111  N        -12.7650   43.3370  -29.1260 N.3   258  TYR258     -0.1241
    112  CA       -12.5850   42.1870  -28.2390 C.3   258  TYR258      0.1605
    113  C        -11.2790   41.4430  -28.5170 C.2   258  TYR258      0.2264
    114  O        -10.6610   40.9080  -27.5890 O.2   258  TYR258     -0.2867
    115  CB       -13.7670   41.2230  -28.3880 C.3   258  TYR258      0.0534
    116  CG       -13.6670   40.3570  -29.6300 C.ar  258  TYR258     -0.0201
    117  CD1      -13.1250   39.0750  -29.5700 C.ar  258  TYR258     -0.0009
    118  CD2      -14.0740   40.8340  -30.8690 C.ar  258  TYR258     -0.0009
    119  CE1      -13.0190   38.2860  -30.7030 C.ar  258  TYR258      0.0417
    120  CE2      -13.9720   40.0520  -32.0070 C.ar  258  TYR258      0.0417
    121  CZ       -13.4430   38.7810  -31.9190 C.ar  258  TYR258      0.1957
    122  OH       -13.3430   38.0120  -33.0550 O.3   258  TYR258     -0.2866
    123  N         -7.8970   38.6700  -24.2660 N.3   262  SER262     -0.1202
    124  CA        -8.0430   37.2280  -24.3010 C.3   262  SER262      0.2020
    125  C         -9.5250   36.8530  -24.2670 C.2   262  SER262      0.2619
    126  O        -10.4080   37.7080  -24.1760 O.2   262  SER262     -0.2717
    127  CB        -7.2730   36.5990  -23.1400 C.3   262  SER262      0.2103
    128  OG        -7.2690   35.1850  -23.2240 O.3   262  SER262     -0.2182
    129  N         -9.7960   35.5520  -24.3820 N.am  263  ASP263     -0.1959
    130  CA       -11.1740   35.0730  -24.3360 C.3   263  ASP263      0.1840
    131  C        -11.8290   35.4600  -23.0150 C.2   263  ASP263      0.2622
    132  O        -12.8640   36.1370  -22.9890 O.2   263  ASP263     -0.2715
    133  CB       -11.1960   33.5520  -24.5460 C.3   263  ASP263      0.1450
    134  CG       -12.6020   32.9810  -24.7190 C.2   263  ASP263      0.3671
    135  OD1      -13.5940   33.7350  -24.6710 O.co2 263  ASP263     -0.2456
    136  OD2      -12.7060   31.7510  -24.9130 O.co2 263  ASP263     -0.2456
    137  N        -11.2190   35.0660  -21.9050 N.am  264  HIS264     -0.1973
    138  CA       -11.7760   35.3050  -20.5850 C.3   264  HIS264      0.1656
    139  C        -10.8290   36.1630  -19.7620 C.2   264  HIS264      0.2291
    140  O         -9.6070   36.1190  -19.9430 O.2   264  HIS264     -0.2864
    141  CB       -12.0480   33.9930  -19.8510 C.3   264  HIS264      0.0771
    142  CG       -13.0880   33.1390  -20.5040 C.ar  264  HIS264      0.0820
    143  ND1      -12.7770   32.0100  -21.2300 N.ar  264  HIS264     -0.2267
    144  CD2      -14.4380   33.2510  -20.5400 C.ar  264  HIS264      0.1154
    145  CE1      -13.8900   31.4600  -21.6820 C.ar  264  HIS264      0.1986
    146  NE2      -14.9120   32.1930  -21.2770 N.ar  264  HIS264     -0.2212
    147  N        -11.0630   34.1560  -28.8450 N.3   272  LEU272     -0.1245
    148  CA       -12.5080   34.0220  -28.6790 C.3   272  LEU272      0.1561
    149  C        -13.0490   33.2010  -29.8390 C.2   272  LEU272      0.2260
    150  O        -13.1050   33.6840  -30.9740 O.2   272  LEU272     -0.2867
    151  CB       -13.1800   35.3900  -28.6260 C.3   272  LEU272      0.0270
    152  CG       -14.4230   35.5620  -27.7440 C.3   272  LEU272      0.0019
    153  CD1      -15.1940   36.7940  -28.1710 C.3   272  LEU272      0.0001
    154  CD2      -15.3380   34.3430  -27.7440 C.3   272  LEU272      0.0001
    155  N        -23.9620   29.8560  -30.3000 N.3   278  HIS278     -0.1241
    156  CA       -24.5160   31.1990  -30.2160 C.3   278  HIS278      0.1621
    157  C        -24.0210   32.0110  -31.4090 C.2   278  HIS278      0.2264
    158  O        -23.3230   31.5010  -32.2890 O.2   278  HIS278     -0.2867
    159  CB       -24.1340   31.8700  -28.8880 C.3   278  HIS278      0.0745
    160  CG       -24.1500   30.9400  -27.7110 C.ar  278  HIS278      0.0817
    161  ND1      -25.3020   30.3370  -27.2510 N.ar  278  HIS278     -0.2268
    162  CD2      -23.1530   30.5190  -26.8960 C.ar  278  HIS278      0.1154
    163  CE1      -25.0120   29.5820  -26.2050 C.ar  278  HIS278      0.1986
    164  NE2      -23.7160   29.6750  -25.9690 N.ar  278  HIS278     -0.2212
    165  N        -22.1780   35.4560  -31.4870 N.3   280  LEU280     -0.1245
    166  CA       -21.6090   36.5690  -30.7370 C.3   280  LEU280      0.1561
    167  C        -21.4740   37.8340  -31.5770 C.2   280  LEU280      0.2260
    168  O        -21.4330   38.9330  -31.0100 O.2   280  LEU280     -0.2867
    169  CB       -20.2550   36.1630  -30.1530 C.3   280  LEU280      0.0270
    170  CG       -20.3410   35.0590  -29.0980 C.3   280  LEU280      0.0019
    171  CD1      -18.9680   34.4790  -28.8080 C.3   280  LEU280      0.0001
    172  CD2      -20.9750   35.5800  -27.8230 C.3   280  LEU280      0.0001
    173  N        -24.7770   39.5120  -31.0650 N.3   283  GLU283     -0.1245
    174  CA       -24.8880   40.0650  -29.7210 C.3   283  GLU283      0.1567
    175  C        -24.0730   41.3430  -29.5880 C.2   283  GLU283      0.2260
    176  O        -24.5590   42.3410  -29.0440 O.2   283  GLU283     -0.2867
    177  CB       -24.4640   39.0220  -28.6850 C.3   283  GLU283      0.0388
    178  CG       -25.2890   37.7350  -28.7540 C.3   283  GLU283      0.1160
    179  CD       -25.0160   36.7840  -27.6050 C.2   283  GLU283      0.3649
    180  OE1      -25.4920   35.6340  -27.6680 O.co2 283  GLU283     -0.2457
    181  OE2      -24.3340   37.1830  -26.6360 O.co2 283  GLU283     -0.2457
    182  N        -25.4290   44.9880  -28.4420 N.3   287  TRP287     -0.1241
    183  CA       -24.9380   45.8070  -27.3380 C.3   287  TRP287      0.1605
    184  C        -24.5570   47.2030  -27.8150 C.2   287  TRP287      0.2264
    185  O        -24.7480   48.1840  -27.0880 O.2   287  TRP287     -0.2867
    186  CB       -23.7520   45.1310  -26.6460 C.3   287  TRP287      0.0550
    187  CG       -23.9030   43.6480  -26.3630 C.ar  287  TRP287      0.0003
    188  CD1      -22.9130   42.7090  -26.4360 C.ar  287  TRP287      0.0946
    189  CD2      -25.0950   42.9390  -25.9640 C.ar  287  TRP287      0.0152
    190  NE1      -23.4050   41.4720  -26.1080 N.ar  287  TRP287     -0.2442
    191  CE2      -24.7400   41.5810  -25.8170 C.ar  287  TRP287      0.0810
    192  CE3      -26.4220   43.3180  -25.7120 C.ar  287  TRP287      0.0012
    193  CZ2      -25.6590   40.6030  -25.4360 C.ar  287  TRP287      0.0191
    194  CZ3      -27.3350   42.3420  -25.3370 C.ar  287  TRP287      0.0001
    195  CH2      -26.9480   41.0000  -25.2030 C.ar  287  TRP287      0.0015
@<TRIPOS>BOND
     1   122   121    1
     2   158   157    2
     3   120   121   ar
     4   120   118   ar
     5   121   119   ar
     6   167   168    2
     7   167   166    1
     8   165   166    1
     9   157   156    1
    10   173   174    1
    11   150   149    2
    12   118   116   ar
    13   166   169    1
    14   119   117   ar
    15   155   156    1
    16   156   159    1
    17   169   170    1
    18   149   148    1
    19   110   108    1
    20   174   175    1
    21   174   177    1
    22   116   117   ar
    23   116   115    1
    24   175   176    2
    25   111   112    1
    26   170   171    1
    27   170   172    1
    28   159   160    1
    29   108   107    1
    30   147   148    1
    31   178   177    1
    32   178   179    1
    33   148   151    1
    34   151   152    1
    35   113   112    1
    36   113   114    2
    37   182   183    1
    38   115   112    1
    39   153   152    1
    40   184   183    1
    41   184   185    2
    42   109   107    1
    43   154   152    1
    44   160   161   ar
    45   160   162   ar
    46   180   179   ar
    47   179   181   ar
    48   107   104    1
    49   183   186    1
    50   106   105    2
    51   161   163   ar
    52   105   104    1
    53   162   164   ar
    54   186   187    1
    55   104   103    1
    56   188   187   ar
    57   188   190   ar
    58   187   189   ar
    59   163   164   ar
    60   190   191   ar
    61   189   191   ar
    62   189   192   ar
    63    66    67    1
    64   191   193   ar
    65   192   194   ar
    66   193   195   ar
    67   103    94   am
    68   194   195   ar
    69    70    67    1
    70    70    71    1
    71   136   134   ar
    72    87    84    1
    73    67    68    1
    74   134   135   ar
    75   134   133    1
    76   133   130    1
    77   129   130    1
    78   129   125   am
    79   130   131    1
    80   124   125    1
    81   124   123    1
    82   124   127    1
    83    94    95    2
    84    94    93    1
    85   125   126    2
    86    68    69    2
    87    68    72   am
    88    84    83    1
    89    84    85    1
    90   128   127    1
    91    96    93    1
    92    96    97    1
    93    93    92    1
    94   131   132    2
    95   131   137   am
    96    83    81   am
    97    85    86    2
    98    99    97   ar
    99    99   101   ar
   100    72    73    1
   101    97    98   ar
   102   137   138    1
   103    92    90   am
   104   101   102   ar
   105   145   146   ar
   106   145   143   ar
   107    17    18    1
   108    17    15   am
   109    81    82    2
   110    81    80    1
   111    14    15    1
   112    14    13    1
   113    18    19    1
   114   146   144   ar
   115   143   142   ar
   116    19    20    2
   117    91    90    2
   118    73    74    1
   119    73    76    1
   120    79    80    1
   121    79    74   am
   122    90    89    1
   123    98   100   ar
   124    15    16    2
   125    46    45    1
   126    74    75    2
   127    65    64    1
   128   138   141    1
   129   138   139    1
   130   144   142   ar
   131    77    76    1
   132   142   141    1
   133   102   100   ar
   134    13     7   am
   135    76    78    1
   136    36    34   am
   137   140   139    2
   138    89    88    1
   139     8     7    2
   140     7     6    1
   141    45    47    1
   142    45    42    1
   143    64    62   ar
   144    64    63   ar
   145    62    60   ar
   146    41    42    1
   147    42    43    1
   148     5     6    1
   149     5     3   am
   150     2     3    1
   151     2     1    1
   152    34    35    2
   153    34    33    1
   154     6     9    1
   155     3     4    2
   156    63    61   ar
   157     9    10    1
   158    33    30    1
   159    60    59   ar
   160    28    26    1
   161    43    44    2
   162    26    27    1
   163    26    25    1
   164    12    10   am
   165    53    52    1
   166    10    11    2
   167    61    59   ar
   168    48    49    1
   169    59    58    1
   170    49    52    1
   171    49    50    1
   172    30    29    1
   173    30    31    1
   174    25    22    1
   175    37    31   am
   176    37    38    1
   177    54    55    1
   178    29    23   am
   179    31    32    2
   180    24    23    2
   181    23    22    1
   182    38    39    1
   183    58    55    1
   184    50    51    2
   185    55    56    1
   186    22    21    1
   187    40    39    2
   188    56    57    2
