@<TRIPOS>MOLECULE
tmp/6apsA00.pdb
 162 157 0 0 0
SMALL
GASTEIGER

@<TRIPOS>ATOM
      1  N        131.2580  -30.9330   48.9920 N.3    56  LEU56      -0.1231
      2  CA       129.8570  -31.2770   48.7530 C.3    56  LEU56       0.1693
      3  C        128.9110  -30.1710   49.2350 C.2    56  LEU56       0.2592
      4  O        129.1270  -29.5310   50.2650 O.2    56  LEU56      -0.2718
      5  CB       129.4310  -32.6460   49.3860 C.3    56  LEU56       0.0284
      6  CG       130.2450  -33.8620   48.9040 C.3    56  LEU56       0.0019
      7  CD1      129.5890  -35.0880   49.5160 C.3    56  LEU56       0.0001
      8  CD2      130.1540  -33.8810   47.4200 C.3    56  LEU56       0.0001
      9  N        127.8340  -29.9820   48.4740 N.am   57  LYS57      -0.1966
     10  CA       126.9590  -28.8160   48.6600 C.3    57  LYS57       0.1728
     11  C        126.3910  -28.7440   50.0600 C.2    57  LYS57       0.2616
     12  O        126.3620  -27.6700   50.6960 O.2    57  LYS57      -0.2715
     13  CB       125.8240  -28.8990   47.6470 C.3    57  LYS57       0.0311
     14  CG       124.9080  -27.7100   47.6430 C.3    57  LYS57       0.0038
     15  CD       123.7330  -28.0730   46.7280 C.3    57  LYS57       0.0206
     16  CE       122.8760  -26.9510   46.4880 C.3    57  LYS57       0.1093
     17  NZ       121.9460  -27.2890   45.4180 N.3    57  LYS57      -0.1314
     18  N        125.8830  -29.8650   50.5420 N.am   58  GLY58      -0.1955
     19  CA       125.2460  -29.8460   51.8550 C.3    58  GLY58       0.1869
     20  C        126.1620  -29.6090   53.0210 C.2    58  GLY58       0.2309
     21  O        125.6610  -29.4170   54.1300 O.2    58  GLY58      -0.2863
     22  N        133.5410  -32.7890   55.3110 N.3    96  GLU96      -0.1231
     23  CA       132.4700  -33.2740   54.4370 C.3    96  GLU96       0.1699
     24  C        131.3180  -33.7650   55.3250 C.2    96  GLU96       0.2592
     25  O        131.5710  -34.3630   56.3830 O.2    96  GLU96      -0.2718
     26  CB       132.9950  -34.4280   53.5480 C.3    96  GLU96       0.0402
     27  CG       132.0070  -34.9400   52.5170 C.3    96  GLU96       0.1161
     28  CD       132.7180  -35.8970   51.5130 C.2    96  GLU96       0.3649
     29  OE1      133.5570  -35.4230   50.7540 O.co2  96  GLU96      -0.2457
     30  OE2      132.4080  -37.1200   51.4740 O.co2  96  GLU96      -0.2457
     31  N        130.0780  -33.4330   54.9280 N.am   97  ASP97      -0.1960
     32  CA       128.9090  -33.8270   55.7110 C.3    97  ASP97       0.1840
     33  C        128.8080  -35.3380   55.8470 C.2    97  ASP97       0.2622
     34  O        128.5420  -35.8420   56.9430 O.2    97  ASP97      -0.2715
     35  CB       127.5760  -33.2810   55.1670 C.3    97  ASP97       0.1450
     36  CG       127.3400  -33.4470   53.6150 C.2    97  ASP97       0.3671
     37  OD1      127.9450  -34.2520   52.8740 O.co2  97  ASP97      -0.2456
     38  OD2      126.4050  -32.7500   53.1200 O.co2  97  ASP97      -0.2456
     39  N        129.0720  -36.0890   54.7930 N.am   98  ILE98      -0.1963
     40  CA       128.9320  -37.5420   54.9260 C.3    98  ILE98       0.1727
     41  C        130.0410  -38.2150   54.1390 C.2    98  ILE98       0.2616
     42  O        130.4780  -37.7310   53.0910 O.2    98  ILE98      -0.2715
     43  CB       127.5100  -38.0380   54.5150 C.3    98  ILE98       0.0290
     44  CG1      127.2770  -39.5460   54.8800 C.3    98  ILE98       0.0022
     45  CG2      127.3000  -37.9210   53.0380 C.3    98  ILE98       0.0023
     46  CD1      125.8000  -39.7870   55.0510 C.3    98  ILE98       0.0001
     47  N        130.5120  -39.3250   54.6780 N.am   99  LEU99      -0.1963
     48  CA       131.5150  -40.1640   54.0380 C.3    99  LEU99       0.1728
     49  C        130.8980  -41.5660   53.9100 C.2    99  LEU99       0.2616
     50  O        130.4730  -42.1410   54.9120 O.2    99  LEU99      -0.2715
     51  CB       132.7610  -40.2020   54.9160 C.3    99  LEU99       0.0311
     52  CG       133.7940  -41.3360   54.6830 C.3    99  LEU99       0.0022
     53  CD1      134.3370  -41.0550   53.3530 C.3    99  LEU99       0.0001
     54  CD2      134.8900  -41.1470   55.7140 C.3    99  LEU99       0.0001
     55  N        130.8350  -42.1010   52.6840 N.am  100  ASP100     -0.1957
     56  CA       130.1050  -43.3350   52.4150 C.3   100  ASP100      0.1840
     57  C        130.9640  -44.2610   51.5520 C.2   100  ASP100      0.2623
     58  O        131.7390  -45.0540   52.0800 O.2   100  ASP100     -0.2715
     59  CB       128.7640  -43.0080   51.7300 C.3   100  ASP100      0.1450
     60  CG       127.9580  -44.2670   51.3860 C.2   100  ASP100      0.3671
     61  OD1      127.2270  -44.2490   50.3710 O.co2 100  ASP100     -0.2456
     62  OD2      128.0400  -45.2810   52.1430 O.co2 100  ASP100     -0.2456
     63  N        130.9580  -44.0810   50.2280 N.am  101  THR101     -0.1937
     64  CA       131.8490  -44.8980   49.4020 C.3   101  THR101      0.2028
     65  C        133.3110  -44.5050   49.5570 C.2   101  THR101      0.2642
     66  O        134.1850  -45.2960   49.1940 O.2   101  THR101     -0.2714
     67  CB       131.4980  -44.8220   47.9130 C.3   101  THR101      0.1808
     68  OG1      131.7790  -43.4980   47.3890 O.3   101  THR101     -0.2208
     69  CG2      130.0220  -45.2300   47.6400 C.3   101  THR101      0.0379
     70  N        133.5890  -43.2660   49.9760 N.am  102  ALA102     -0.1963
     71  CA       134.9030  -42.6180   50.1080 C.3   102  ALA102      0.1728
     72  C        135.4500  -42.1900   48.7500 C.2   102  ALA102      0.2616
     73  O        136.5470  -41.6520   48.7040 O.2   102  ALA102     -0.2715
     74  CB       135.9700  -43.4530   50.8170 C.3   102  ALA102      0.0334
     75  N        134.6810  -42.3070   47.6680 N.am  103  LEU103     -0.1963
     76  CA       135.2360  -41.9380   46.3670 C.3   103  LEU103      0.1728
     77  C        135.4590  -40.4230   46.2680 C.2   103  LEU103      0.2617
     78  O        136.4520  -39.9770   45.6550 O.2   103  LEU103     -0.2715
     79  CB       134.3070  -42.4180   45.2560 C.3   103  LEU103      0.0311
     80  CG       134.1770  -43.9480   45.1100 C.3   103  LEU103      0.0022
     81  CD1      133.0930  -44.2720   44.0680 C.3   103  LEU103      0.0001
     82  CD2      135.5660  -44.5760   44.7880 C.3   103  LEU103      0.0001
     83  N        134.5910  -39.6090   46.8960 N.am  104  THR104     -0.1937
     84  CA       134.8160  -38.1540   46.8360 C.3   104  THR104      0.2028
     85  C        136.1000  -37.7700   47.5820 C.2   104  THR104      0.2642
     86  O        136.9620  -37.0620   47.0640 O.2   104  THR104     -0.2714
     87  CB       133.6090  -37.3970   47.4400 C.3   104  THR104      0.1808
     88  OG1      132.4100  -37.7910   46.7750 O.3   104  THR104     -0.2208
     89  CG2      133.7320  -35.8750   47.2610 C.3   104  THR104      0.0379
     90  N        136.1920  -38.1470   48.8400 N.am  105  LEU105     -0.1977
     91  CA       137.3110  -37.7020   49.6410 C.3   105  LEU105      0.1596
     92  C        138.6220  -38.2590   49.0990 C.2   105  LEU105      0.2287
     93  O        139.6240  -37.5480   49.0900 O.2   105  LEU105     -0.2864
     94  CB       137.1060  -38.0920   51.1180 C.3   105  LEU105      0.0297
     95  CG       136.2660  -37.0490   51.8690 C.3   105  LEU105      0.0022
     96  CD1      136.0500  -37.5470   53.2980 C.3   105  LEU105      0.0001
     97  CD2      136.9640  -35.6610   51.9010 C.3   105  LEU105      0.0001
     98  N        129.5690  -43.4950   57.2010 N.3   128  LYS128     -0.1245
     99  CA       128.8400  -44.7470   56.9990 C.3   128  LYS128      0.1561
    100  C        129.9260  -45.7590   56.6770 C.2   128  LYS128      0.2260
    101  O        130.2230  -46.0110   55.4970 O.2   128  LYS128     -0.2867
    102  CB       127.8420  -44.6970   55.8610 C.3   128  LYS128      0.0271
    103  CG       126.7660  -43.7100   56.0780 C.3   128  LYS128      0.0035
    104  CD       126.0280  -43.3570   54.8070 C.3   128  LYS128      0.0206
    105  CE       125.0130  -44.3230   54.4510 C.3   128  LYS128      0.1093
    106  NZ       123.9820  -43.8540   53.4400 N.3   128  LYS128     -0.1314
    107  N        122.0850  -46.8730   55.8800 N.3   148  VAL148     -0.1231
    108  CA       120.7160  -46.4280   55.6870 C.3   148  VAL148      0.1692
    109  C        120.8020  -45.0190   55.0940 C.2   148  VAL148      0.2592
    110  O        121.8090  -44.3340   55.2200 O.2   148  VAL148     -0.2718
    111  CB       119.8690  -46.3890   56.9850 C.3   148  VAL148      0.0266
    112  CG1      119.6240  -47.8290   57.5030 C.3   148  VAL148      0.0020
    113  CG2      120.5690  -45.4970   58.0660 C.3   148  VAL148      0.0020
    114  N        119.7300  -44.6040   54.4390 N.am  149  PHE149     -0.1962
    115  CA       119.7390  -43.2920   53.7610 C.3   149  PHE149      0.1771
    116  C        119.2110  -42.2280   54.7110 C.2   149  PHE149      0.2619
    117  O        118.0560  -42.3190   55.1670 O.2   149  PHE149     -0.2715
    118  CB       118.8860  -43.3130   52.5020 C.3   149  PHE149      0.0574
    119  CG       119.0430  -42.0260   51.6900 C.ar  149  PHE149     -0.0200
    120  CD1      118.0810  -41.0180   51.7400 C.ar  149  PHE149     -0.0042
    121  CD2      120.1620  -41.8720   50.8900 C.ar  149  PHE149     -0.0042
    122  CE1      118.2690  -39.8370   51.0130 C.ar  149  PHE149     -0.0003
    123  CE2      120.3330  -40.6840   50.1070 C.ar  149  PHE149     -0.0003
    124  CZ       119.3700  -39.6840   50.2130 C.ar  149  PHE149     -0.0000
    125  N        120.0530  -41.2350   55.0230 N.am  150  VAL150     -0.1977
    126  CA       119.6930  -40.2020   56.0040 C.3   150  VAL150      0.1596
    127  C        119.5590  -38.8410   55.3280 C.2   150  VAL150      0.2287
    128  O        120.1490  -38.5710   54.2910 O.2   150  VAL150     -0.2864
    129  CB       120.7260  -40.1080   57.1370 C.3   150  VAL150      0.0276
    130  CG1      120.6800  -41.4530   57.9060 C.3   150  VAL150      0.0022
    131  CG2      122.1330  -39.8230   56.6430 C.3   150  VAL150      0.0022
    132  N        122.1520  -30.6540   56.6700 N.3   154  GLY154     -0.1210
    133  CA       122.7310  -30.3620   55.3710 C.3   154  GLY154      0.1956
    134  C        122.5590  -31.4630   54.3280 C.2   154  GLY154      0.2612
    135  O        122.6440  -31.1760   53.1490 O.2   154  GLY154     -0.2717
    136  N        122.2410  -32.6980   54.7420 N.am  155  LEU155     -0.1965
    137  CA       121.9870  -33.7820   53.7880 C.3   155  LEU155      0.1728
    138  C        120.5670  -33.7160   53.2180 C.2   155  LEU155      0.2616
    139  O        119.6060  -33.4980   53.9500 O.2   155  LEU155     -0.2715
    140  CB       122.2050  -35.1260   54.5220 C.3   155  LEU155      0.0311
    141  CG       123.6720  -35.1540   55.0770 C.3   155  LEU155      0.0022
    142  CD1      123.7540  -36.3550   56.0410 C.3   155  LEU155      0.0001
    143  CD2      124.6280  -35.4060   53.8650 C.3   155  LEU155      0.0001
    144  N        120.4300  -33.8740   51.9050 N.am  156  ASP156     -0.1971
    145  CA       119.1610  -33.6640   51.2110 C.3   156  ASP156      0.1709
    146  C        118.5830  -34.9710   50.6770 C.2   156  ASP156      0.2293
    147  O        119.2760  -35.9790   50.4730 O.2   156  ASP156     -0.2864
    148  CB       119.3520  -32.7240   49.9880 C.3   156  ASP156      0.1436
    149  CG       120.1180  -33.4440   48.8430 C.2   156  ASP156      0.3671
    150  OD1      121.1910  -33.9710   49.1690 O.co2 156  ASP156     -0.2456
    151  OD2      119.6500  -33.5610   47.6760 O.co2 156  ASP156     -0.2456
    152  N        117.5820  -30.4110   53.7660 N.3   162  ARG162     -0.1245
    153  CA       118.8900  -30.0900   54.3400 C.3   162  ARG162      0.1563
    154  C        118.7130  -29.3300   55.6280 C.2   162  ARG162      0.2260
    155  O        119.6020  -29.3540   56.4810 O.2   162  ARG162     -0.2867
    156  CB       119.7150  -29.2050   53.3740 C.3   162  ARG162      0.0307
    157  CG       119.8900  -29.8310   51.9650 C.3   162  ARG162      0.0489
    158  CD       120.9470  -29.0770   51.2200 C.3   162  ARG162      0.2205
    159  NE       121.0870  -29.5100   49.8140 N.pl3 162  ARG162     -0.0865
    160  CZ       121.8670  -30.4980   49.4190 C.cat 162  ARG162      0.5346
    161  NH1      121.9600  -30.7410   48.1020 N.pl3 162  ARG162      0.1354
    162  NH2      122.6080  -31.2010   50.3130 N.pl3 162  ARG162      0.1354
@<TRIPOS>BOND
     1    81    80    1
     2    82    80    1
     3    80    79    1
     4    79    76    1
     5    17    16    1
     6    78    77    2
     7    77    76    1
     8    77    83   am
     9    76    75    1
    10    16    15    1
    11    15    14    1
    12    88    87    1
    13    84    83    1
    14    84    87    1
    15    84    85    1
    16    86    85    2
    17    89    87    1
    18    68    67    1
    19     8     6    1
    20    85    90   am
    21    69    67    1
    22    14    13    1
    23    13    10    1
    24    75    72   am
    25   151   149   ar
    26    67    64    1
    27   161   160    1
    28     9    10    1
    29     9     3   am
    30    10    11    1
    31    73    72    2
    32    72    71    1
    33     2     1    1
    34     2     3    1
    35     2     5    1
    36    90    91    1
    37   149   150   ar
    38   149   148    1
    39     6     5    1
    40     6     7    1
    41    93    92    2
    42    92    91    1
    43    66    65    2
    44     3     4    2
    45    64    65    1
    46    64    63    1
    47   160   159    2
    48   160   162    1
    49    65    70   am
    50    91    94    1
    51   159   158    1
    52    70    71    1
    53   148   145    1
    54    11    18   am
    55    11    12    2
    56   123   124   ar
    57   123   121   ar
    58    71    74    1
    59   124   122   ar
    60    63    57   am
    61    61    60   ar
    62   147   146    2
    63    18    19    1
    64   146   145    1
    65    29    28   ar
    66   121   119   ar
    67   122   120   ar
    68    94    95    1
    69   145   144    1
    70   158   157    1
    71    60    59    1
    72    60    62   ar
    73    30    28   ar
    74    28    27    1
    75    57    58    2
    76    57    56    1
    77   119   120   ar
    78   119   118    1
    79    59    56    1
    80    19    20    1
    81    95    97    1
    82    95    96    1
    83   144   138   am
    84   157   156    1
    85    56    55    1
    86   118   115    1
    87    27    26    1
    88    55    49   am
    89    37    36   ar
    90    20    21    2
    91    45    43    1
    92    42    41    2
    93    38    36   ar
    94   135   134    2
    95   138   137    1
    96   138   139    2
    97    53    52    1
    98   156   153    1
    99   106   105    1
   100    26    23    1
   101    36    35    1
   102   115   114    1
   103   115   116    1
   104   152   153    1
   105   137   140    1
   106   137   136    1
   107   143   141    1
   108    49    48    1
   109    49    50    2
   110    48    47    1
   111    48    51    1
   112    41    47   am
   113    41    40    1
   114   128   127    2
   115   134   136   am
   116   134   133    1
   117   153   154    1
   118    23    22    1
   119    23    24    1
   120   114   109   am
   121   105   104    1
   122    43    44    1
   123    43    40    1
   124   140   141    1
   125    52    51    1
   126    52    54    1
   127   116   125   am
   128   116   117    2
   129    39    40    1
   130    39    33   am
   131   104   103    1
   132    44    46    1
   133    31    24   am
   134    31    32    1
   135   125   126    1
   136   141   142    1
   137   109   110    2
   138   109   108    1
   139    35    32    1
   140    24    25    2
   141   127   126    1
   142   133   132    1
   143   101   100    2
   144   154   155    2
   145   108   107    1
   146   108   111    1
   147    32    33    1
   148    33    34    2
   149   102   103    1
   150   102    99    1
   151   126   129    1
   152   131   129    1
   153   100    99    1
   154   111   112    1
   155   111   113    1
   156    99    98    1
   157   129   130    1
