@<TRIPOS>MOLECULE
tmp/6aptB00.pdb
 160 154 0 0 0
SMALL
GASTEIGER

@<TRIPOS>ATOM
      1  N         -3.0250   38.9450   -1.8330 N.3    49  LEU49      -0.1231
      2  CA        -2.7720   38.6210   -0.4170 C.3    49  LEU49       0.1693
      3  C         -2.1140   39.8060    0.2810 C.2    49  LEU49       0.2592
      4  O         -1.2030   40.4160   -0.2800 O.2    49  LEU49      -0.2718
      5  CB        -1.8740   37.3790   -0.2350 C.3    49  LEU49       0.0284
      6  CG        -2.3340   36.0640   -0.8690 C.3    49  LEU49       0.0019
      7  CD1       -1.3150   35.0030   -0.4670 C.3    49  LEU49       0.0001
      8  CD2       -3.7250   35.7330   -0.4350 C.3    49  LEU49       0.0001
      9  N         -2.5750   40.1610    1.4810 N.am   50  LYS50      -0.1966
     10  CA        -2.0230   41.3400    2.1470 C.3    50  LYS50       0.1728
     11  C         -0.4870   41.3120    2.2800 C.2    50  LYS50       0.2616
     12  O          0.1950   42.3340    2.0480 O.2    50  LYS50      -0.2715
     13  CB        -2.6800   41.4910    3.5180 C.3    50  LYS50       0.0311
     14  CG        -2.1810   42.7130    4.2320 C.3    50  LYS50       0.0038
     15  CD        -3.1650   43.1330    5.3160 C.3    50  LYS50       0.0206
     16  CE        -2.9010   42.3690    6.5610 C.3    50  LYS50       0.1093
     17  NZ        -3.6120   42.9530    7.7250 N.3    50  LYS50      -0.1314
     18  N          0.0790   40.1540    2.6220 N.am   51  GLY51      -0.1955
     19  CA         1.5050   40.0600    2.8640 C.3    51  GLY51       0.1869
     20  C          2.3540   40.3270    1.6260 C.2    51  GLY51       0.2309
     21  O          3.5460   40.6290    1.7560 O.2    51  GLY51      -0.2863
     22  N          2.2220   37.1510   -5.9690 N.3    86  GLU86      -0.1231
     23  CA         1.7550   36.6020   -4.7100 C.3    86  GLU86       0.1699
     24  C          2.9900   36.1960   -3.9140 C.2    86  GLU86       0.2592
     25  O          3.9260   35.6390   -4.4850 O.2    86  GLU86      -0.2718
     26  CB         0.8500   35.4040   -4.9530 C.3    86  GLU86       0.0402
     27  CG         0.0260   35.0210   -3.7480 C.3    86  GLU86       0.1161
     28  CD        -1.1120   34.0600   -4.1120 C.2    86  GLU86       0.3649
     29  OE1       -2.0850   34.5430   -4.7160 O.co2  86  GLU86      -0.2457
     30  OE2       -1.0360   32.8310   -3.7880 O.co2  86  GLU86      -0.2457
     31  N          2.9940   36.4720   -2.6070 N.am   87  ASP87      -0.1960
     32  CA         4.1530   36.0830   -1.8130 C.3    87  ASP87       0.1840
     33  C          4.2930   34.5720   -1.6620 C.2    87  ASP87       0.2622
     34  O          5.4290   34.0640   -1.6220 O.2    87  ASP87      -0.2715
     35  CB         4.1330   36.7300   -0.4330 C.3    87  ASP87       0.1450
     36  CG         2.8480   36.5240    0.3390 C.2    87  ASP87       0.3671
     37  OD1        1.8770   35.8420   -0.0950 O.co2  87  ASP87      -0.2456
     38  OD2        2.8180   37.1100    1.4580 O.co2  87  ASP87      -0.2456
     39  N          3.1910   33.8310   -1.5640 N.am   88  ILE88      -0.1963
     40  CA         3.2970   32.3720   -1.4520 C.3    88  ILE88       0.1727
     41  C          2.2290   31.6960   -2.2890 C.2    88  ILE88       0.2616
     42  O          1.0950   32.1830   -2.4060 O.2    88  ILE88      -0.2715
     43  CB         3.2390   31.8890    0.0140 C.3    88  ILE88       0.0290
     44  CG1        3.6790   30.4160    0.0980 C.3    88  ILE88       0.0022
     45  CG2        1.8590   32.1370    0.6020 C.3    88  ILE88       0.0023
     46  CD1        4.5750   30.1130    1.3140 C.3    88  ILE88       0.0001
     47  N          2.6120   30.5640   -2.8830 N.am   89  LEU89      -0.1963
     48  CA         1.7150   29.7220   -3.6750 C.3    89  LEU89       0.1728
     49  C          1.7600   28.3350   -3.0410 C.2    89  LEU89       0.2616
     50  O          2.8380   27.7520   -2.9240 O.2    89  LEU89      -0.2715
     51  CB         2.1610   29.6910   -5.1420 C.3    89  LEU89       0.0311
     52  CG         1.6470   28.6010   -6.1040 C.3    89  LEU89       0.0022
     53  CD1        0.1680   28.7090   -6.2080 C.3    89  LEU89       0.0001
     54  CD2        2.2530   28.8740   -7.5060 C.3    89  LEU89       0.0001
     55  N          0.6140   27.8470   -2.5560 N.am   90  ASP90      -0.1957
     56  CA         0.6370   26.5960   -1.8020 C.3    90  ASP90       0.1840
     57  C         -0.3950   25.6410   -2.3960 C.2    90  ASP90       0.2623
     58  O         -0.0470   24.8110   -3.2370 O.2    90  ASP90      -0.2715
     59  CB         0.3900   26.8930   -0.3210 C.3    90  ASP90       0.1450
     60  CG         0.3370   25.6240    0.5510 C.2    90  ASP90       0.3671
     61  OD1        0.9860   24.6200    0.2030 O.co2  90  ASP90      -0.2456
     62  OD2       -0.3830   25.6600    1.5680 O.co2  90  ASP90      -0.2456
     63  N         -1.6600   25.7680   -1.9870 N.am   91  THR91      -0.1937
     64  CA        -2.7310   24.9470   -2.5710 C.3    91  THR91       0.2028
     65  C         -3.0840   25.3850   -3.9830 C.2    91  THR91       0.2642
     66  O         -3.6440   24.5860   -4.7380 O.2    91  THR91      -0.2714
     67  CB        -4.0130   25.0030   -1.7320 C.3    91  THR91       0.1808
     68  OG1       -4.6400   26.2820   -1.9180 O.3    91  THR91      -0.2208
     69  CG2       -3.7080   24.7970   -0.2700 C.3    91  THR91       0.0379
     70  N         -2.7670   26.6320   -4.3470 N.am   92  ALA92      -0.1963
     71  CA        -3.0250   27.2850   -5.6300 C.3    92  ALA92       0.1728
     72  C         -4.4850   27.7210   -5.7690 C.2    92  ALA92       0.2616
     73  O         -4.8650   28.2580   -6.8180 O.2    92  ALA92      -0.2715
     74  CB        -2.6170   26.4140   -6.8270 C.3    92  ALA92       0.0334
     75  N         -5.3160   27.5370   -4.7420 N.am   93  LEU93      -0.1963
     76  CA        -6.7100   27.9450   -4.8650 C.3    93  LEU93       0.1728
     77  C         -6.8580   29.4530   -5.0320 C.2    93  LEU93       0.2617
     78  O         -7.7320   29.9030   -5.7880 O.2    93  LEU93      -0.2715
     79  CB        -7.5120   27.4640   -3.6550 C.3    93  LEU93       0.0311
     80  CG        -7.5590   25.9310   -3.5450 C.3    93  LEU93       0.0022
     81  CD1       -8.2720   25.5690   -2.2760 C.3    93  LEU93       0.0001
     82  CD2       -8.1880   25.3120   -4.7640 C.3    93  LEU93       0.0001
     83  N         -6.0310   30.2500   -4.3360 N.am   94  THR94      -0.1937
     84  CA        -6.0880   31.7060   -4.5090 C.3    94  THR94       0.2028
     85  C         -5.7650   32.1130   -5.9410 C.2    94  THR94       0.2642
     86  O         -6.5230   32.8500   -6.5740 O.2    94  THR94      -0.2714
     87  CB        -5.1200   32.4240   -3.5550 C.3    94  THR94       0.1808
     88  OG1       -5.3500   32.0050   -2.2040 O.3    94  THR94      -0.2208
     89  CG2       -5.3150   33.9150   -3.6340 C.3    94  THR94       0.0379
     90  N         -4.6150   31.6800   -6.4570 N.am   95  LEU95      -0.1977
     91  CA        -4.2070   32.1500   -7.7810 C.3    95  LEU95       0.1596
     92  C         -5.1230   31.6230   -8.8700 C.2    95  LEU95       0.2287
     93  O         -5.3950   32.3300   -9.8370 O.2    95  LEU95      -0.2864
     94  CB        -2.7600   31.7540   -8.0770 C.3    95  LEU95       0.0297
     95  CG        -1.7550   32.7670   -7.5500 C.3    95  LEU95       0.0022
     96  CD1       -0.3470   32.2960   -7.8350 C.3    95  LEU95       0.0001
     97  CD2       -2.0300   34.1610   -8.1700 C.3    95  LEU95       0.0001
     98  N          5.3620   26.4730   -2.7800 N.3   118  LYS118     -0.1245
     99  CA         5.3990   25.2090   -2.0540 C.3   118  LYS118      0.1561
    100  C          4.8540   24.1940   -3.0370 C.2   118  LYS118      0.2260
    101  O          3.6450   23.9390   -3.0530 O.2   118  LYS118     -0.2867
    102  CB         4.5680   25.2210   -0.7760 C.3   118  LYS118      0.0271
    103  CG         5.0650   26.1030    0.2780 C.3   118  LYS118      0.0035
    104  CD         3.9900   26.2400    1.3280 C.3   118  LYS118      0.0206
    105  CE         4.5850   26.0590    2.6550 C.3   118  LYS118      0.1093
    106  NZ         3.5380   26.0150    3.7160 N.3   118  LYS118     -0.1314
    107  N          5.7350   25.4060    7.4460 N.3   139  PHE139     -0.1227
    108  CA         5.1050   26.7140    7.6400 C.3   139  PHE139      0.1736
    109  C          6.1740   27.7870    7.8610 C.2   139  PHE139      0.2595
    110  O          6.9410   27.7160    8.8270 O.2   139  PHE139     -0.2718
    111  CB         4.1310   26.6760    8.8150 C.3   139  PHE139      0.0547
    112  CG         3.3140   27.9450    8.9360 C.ar  139  PHE139     -0.0202
    113  CD1        2.2320   28.1490    8.0940 C.ar  139  PHE139     -0.0042
    114  CD2        3.6790   28.9390    9.8180 C.ar  139  PHE139     -0.0042
    115  CE1        1.4870   29.3180    8.1710 C.ar  139  PHE139     -0.0003
    116  CE2        2.9420   30.1220    9.8890 C.ar  139  PHE139     -0.0003
    117  CZ         1.8550   30.2980    9.0560 C.ar  139  PHE139     -0.0000
    118  N          6.2260   28.7800    6.9640 N.am  140  VAL140     -0.1980
    119  CA         7.2630   29.8040    6.9910 C.3   140  VAL140      0.1595
    120  C          6.6400   31.1530    7.3360 C.2   140  VAL140      0.2287
    121  O          5.4500   31.3840    7.0980 O.2   140  VAL140     -0.2864
    122  CB         8.0230   29.9040    5.6520 C.3   140  VAL140      0.0276
    123  CG1        8.7700   28.5850    5.3650 C.3   140  VAL140      0.0022
    124  CG2        7.0810   30.2530    4.5100 C.3   140  VAL140      0.0022
    125  N          5.2010   37.2890    4.9120 N.3   145  LEU145     -0.1231
    126  CA         4.3990   36.1680    5.4030 C.3   145  LEU145      0.1693
    127  C          4.2490   36.2300    6.9150 C.2   145  LEU145      0.2592
    128  O          5.2330   36.4280    7.6410 O.2   145  LEU145     -0.2718
    129  CB         5.0460   34.8420    4.9730 C.3   145  LEU145      0.0284
    130  CG         5.1320   34.7800    3.4490 C.3   145  LEU145      0.0019
    131  CD1        6.1660   33.7360    3.0170 C.3   145  LEU145      0.0001
    132  CD2        3.7550   34.4340    2.8820 C.3   145  LEU145      0.0001
    133  N          3.0120   36.1050    7.3950 N.am  146  ASP146     -0.1974
    134  CA         2.6810   36.3190    8.8030 C.3   146  ASP146      0.1709
    135  C          2.3410   35.0180    9.5110 C.2   146  ASP146      0.2293
    136  O          1.9970   34.0030    8.8950 O.2   146  ASP146     -0.2864
    137  CB         1.4680   37.2610    8.9570 C.3   146  ASP146      0.1436
    138  CG         0.1560   36.5640    8.5620 C.2   146  ASP146      0.3671
    139  OD1       -0.7680   36.4950    9.4070 O.co2 146  ASP146     -0.2456
    140  OD2        0.0780   36.0360    7.4170 O.co2 146  ASP146     -0.2456
    141  N         -0.7880   37.7630   11.9270 N.3   149  GLN149     -0.1245
    142  CA        -0.4850   39.1620   11.6360 C.3   149  GLN149      0.1566
    143  C          0.9120   39.6060   12.0860 C.2   149  GLN149      0.2260
    144  O          1.3190   40.7260   11.7350 O.2   149  GLN149     -0.2867
    145  CB        -1.5270   40.1520   12.2080 C.3   149  GLN149      0.0367
    146  CG        -2.9600   39.9270   11.6850 C.3   149  GLN149      0.0905
    147  CD        -3.0540   39.8470   10.1650 C.2   149  GLN149      0.2608
    148  OE1       -2.4090   40.6030    9.4310 O.2   149  GLN149     -0.2717
    149  NE2       -3.8600   38.9180    9.6850 N.am  149  GLN149     -0.0878
    150  N          5.6690   39.5750    9.7180 N.3   152  ARG152     -0.1245
    151  CA         5.7890   39.8970    8.2900 C.3   152  ARG152      0.1563
    152  C          7.0580   40.6900    8.0180 C.2   152  ARG152      0.2260
    153  O          7.5680   40.6930    6.8890 O.2   152  ARG152     -0.2867
    154  CB         4.6120   40.7340    7.8100 C.3   152  ARG152      0.0307
    155  CG         3.2440   40.0960    7.9480 C.3   152  ARG152      0.0489
    156  CD         2.2290   40.9420    7.1760 C.3   152  ARG152      0.2205
    157  NE         0.8350   40.5490    7.4730 N.pl3 152  ARG152     -0.0865
    158  CZ         0.1670   39.6490    6.7740 C.cat 152  ARG152      0.5346
    159  NH1       -1.0970   39.3920    7.0720 N.pl3 152  ARG152      0.1354
    160  NH2        0.7670   38.9980    5.7690 N.pl3 152  ARG152      0.1354
@<TRIPOS>BOND
     1    93    92    2
     2    92    91    1
     3    97    95    1
     4    94    91    1
     5    94    95    1
     6    96    95    1
     7    91    90    1
     8    54    52    1
     9    74    71    1
    10    73    72    2
    11    86    85    2
    12    90    85   am
    13    53    52    1
    14    52    51    1
    15    22    23    1
    16    85    84    1
    17    78    77    2
    18    72    71    1
    19    72    75   am
    20    71    70    1
    21    51    48    1
    22    77    76    1
    23    77    83   am
    24    26    23    1
    25    26    27    1
    26    76    75    1
    27    76    79    1
    28    82    80    1
    29    66    65    2
    30    29    28   ar
    31    23    24    1
    32    84    83    1
    33    84    87    1
    34    25    24    2
    35    70    65   am
    36    28    30   ar
    37    28    27    1
    38    65    64    1
    39    24    31   am
    40    48    49    1
    41    48    47    1
    42    79    80    1
    43    89    87    1
    44    87    88    1
    45    80    81    1
    46    58    57    2
    47   101   100    2
    48    49    50    2
    49    49    55   am
    50   100    99    1
    51    47    41   am
    52    98    99    1
    53    31    32    1
    54    64    63    1
    55    64    67    1
    56    55    56    1
    57    42    41    2
    58    57    63   am
    59    57    56    1
    60    41    40    1
    61    99   102    1
    62    68    67    1
    63     1     2    1
    64    32    33    1
    65    32    35    1
    66    56    59    1
    67    67    69    1
    68    33    34    2
    69    33    39   am
    70    39    40    1
    71    40    43    1
    72     6     7    1
    73     6     8    1
    74     6     5    1
    75   102   103    1
    76    35    36    1
    77     2     5    1
    78     2     3    1
    79    59    60    1
    80     4     3    2
    81    37    36   ar
    82    43    44    1
    83    43    45    1
    84    44    46    1
    85    61    60   ar
    86   103   104    1
    87     3     9   am
    88    36    38   ar
    89    60    62   ar
    90   104   105    1
    91     9    10    1
    92    20    21    2
    93    20    19    1
    94    12    11    2
    95    10    11    1
    96    10    13    1
    97    11    18   am
    98    18    19    1
    99   105   106    1
   100   132   130    1
   101   131   130    1
   102   130   129    1
   103    13    14    1
   104    14    15    1
   105   124   122    1
   106   125   126    1
   107   129   126    1
   108    15    16    1
   109   123   122    1
   110   126   127    1
   111   122   119    1
   112   160   158    1
   113    16    17    1
   114   158   159    1
   115   158   157    2
   116   153   152    2
   117   127   133   am
   118   127   128    2
   119   118   119    1
   120   118   109   am
   121   119   120    1
   122   121   120    2
   123   156   157    1
   124   156   155    1
   125   133   134    1
   126   140   138   ar
   127   107   108    1
   128   108   109    1
   129   108   111    1
   130   154   155    1
   131   154   151    1
   132   109   110    2
   133   152   151    1
   134   113   115   ar
   135   113   112   ar
   136   115   117   ar
   137   151   150    1
   138   138   137    1
   139   138   139   ar
   140   134   137    1
   141   134   135    1
   142   111   112    1
   143   136   135    2
   144   112   114   ar
   145   117   116   ar
   146   148   147    2
   147   149   147   am
   148   114   116   ar
   149   147   146    1
   150   142   141    1
   151   142   143    1
   152   142   145    1
   153   146   145    1
   154   144   143    2
