@<TRIPOS>MOLECULE
tmp/6apuB02.pdb
 129 125 0 0 0
SMALL
GASTEIGER

@<TRIPOS>ATOM
      1  N         13.1260  130.0700   45.5380 N.3    88  GLU88      -0.1231
      2  CA        12.6620  131.3490   45.0140 C.3    88  GLU88       0.1699
      3  C         12.2250  132.2330   46.1960 C.2    88  GLU88       0.2592
      4  O         11.7470  131.7340   47.2210 O.2    88  GLU88      -0.2718
      5  CB        11.4660  131.0960   44.0070 C.3    88  GLU88       0.0402
      6  CG        11.2100  132.2760   43.0740 C.3    88  GLU88       0.1161
      7  CD        10.1940  131.8730   41.9700 C.2    88  GLU88       0.3649
      8  OE1       10.6370  131.2330   40.9890 O.co2  88  GLU88      -0.2457
      9  OE2        8.9830  132.1600   42.0960 O.co2  88  GLU88      -0.2457
     10  N         12.4410  133.5400   46.0770 N.am   89  ASP89      -0.1960
     11  CA        12.0960  134.3990   47.1820 C.3    89  ASP89       0.1840
     12  C         10.5880  134.4920   47.3510 C.2    89  ASP89       0.2622
     13  O         10.0830  134.4830   48.4850 O.2    89  ASP89      -0.2715
     14  CB        12.6910  135.7900   46.9680 C.3    89  ASP89       0.1450
     15  CG        12.3850  136.4060   45.5550 C.2    89  ASP89       0.3671
     16  OD1       12.7160  137.6080   45.4020 O.co2  89  ASP89      -0.2456
     17  OD2       11.8050  135.7780   44.6160 O.co2  89  ASP89      -0.2456
     18  N          9.8430  134.5930   46.2450 N.am   90  ILE90      -0.1963
     19  CA         8.3880  134.7540   46.3430 C.3    90  ILE90       0.1727
     20  C          7.7080  133.9050   45.2840 C.2    90  ILE90       0.2616
     21  O          8.1670  133.8360   44.1410 O.2    90  ILE90      -0.2715
     22  CB         7.9670  136.2460   46.2380 C.3    90  ILE90       0.0290
     23  CG1        6.4570  136.4220   46.5540 C.3    90  ILE90       0.0022
     24  CG2        8.3620  136.8660   44.9140 C.3    90  ILE90       0.0023
     25  CD1        6.2400  137.8160   47.2660 C.3    90  ILE90       0.0001
     26  N          6.6390  133.2240   45.6760 N.am   91  LEU91      -0.1963
     27  CA         5.8470  132.3950   44.7820 C.3    91  LEU91       0.1728
     28  C          4.4670  133.0550   44.7430 C.2    91  LEU91       0.2616
     29  O          3.8110  133.1560   45.7900 O.2    91  LEU91      -0.2715
     30  CB         5.7490  130.9740   45.3390 C.3    91  LEU91       0.0311
     31  CG         4.6560  130.0250   44.8330 C.3    91  LEU91       0.0022
     32  CD1        4.8020  129.8950   43.3190 C.3    91  LEU91       0.0001
     33  CD2        4.7400  128.6330   45.4870 C.3    91  LEU91       0.0001
     34  N          4.0280  133.5020   43.5560 N.am   92  ASP92      -0.1957
     35  CA         2.7780  134.2670   43.4960 C.3    92  ASP92       0.1840
     36  C          1.8670  133.6320   42.4480 C.2    92  ASP92       0.2623
     37  O          1.0430  132.7820   42.7840 O.2    92  ASP92      -0.2715
     38  CB         3.0780  135.7450   43.1950 C.3    92  ASP92       0.1450
     39  CG         1.7920  136.6410   43.1310 C.2    92  ASP92       0.3671
     40  OD1        0.8330  136.3940   43.9010 O.co2  92  ASP92      -0.2456
     41  OD2        1.8010  137.6530   42.3780 O.co2  92  ASP92      -0.2456
     42  N          2.0510  133.9730   41.1680 N.am   93  THR93      -0.1937
     43  CA         1.2400  133.3480   40.1150 C.3    93  THR93       0.2028
     44  C          1.6460  131.8940   39.8960 C.2    93  THR93       0.2642
     45  O          0.8670  131.1180   39.3510 O.2    93  THR93      -0.2714
     46  CB         1.3790  134.0810   38.7800 C.3    93  THR93       0.1808
     47  OG1        2.7170  133.9760   38.2970 O.3    93  THR93      -0.2208
     48  CG2        0.9520  135.5860   38.9120 C.3    93  THR93       0.0379
     49  N          2.8740  131.5610   40.2450 N.am   94  ALA94      -0.1963
     50  CA         3.5640  130.2850   40.0340 C.3    94  ALA94       0.1728
     51  C          4.0250  130.0930   38.5930 C.2    94  ALA94       0.2616
     52  O          4.5280  129.0010   38.2890 O.2    94  ALA94      -0.2715
     53  CB         2.6810  129.0870   40.4290 C.3    94  ALA94       0.0334
     54  N          3.8790  131.0780   37.7030 N.am   95  LEU95      -0.1963
     55  CA         4.2550  130.8690   36.3110 C.3    95  LEU95       0.1728
     56  C          5.7690  130.6620   36.1560 C.2    95  LEU95       0.2616
     57  O          6.2200  129.8950   35.2900 O.2    95  LEU95      -0.2715
     58  CB         3.7740  132.0440   35.4760 C.3    95  LEU95       0.0311
     59  CG         2.2310  132.0930   35.4390 C.3    95  LEU95       0.0022
     60  CD1        1.7610  133.4320   34.9020 C.3    95  LEU95       0.0001
     61  CD2        1.7960  130.9150   34.5370 C.3    95  LEU95       0.0001
     62  N          6.5570  131.3980   36.9280 N.am   96  THR96      -0.1951
     63  CA         8.0280  131.2380   36.8810 C.3    96  THR96       0.1897
     64  C          8.4420  129.8380   37.3160 C.2    96  THR96       0.2313
     65  O          9.1710  129.1260   36.6150 O.2    96  THR96      -0.2863
     66  CB         8.7010  132.2580   37.8210 C.3    96  THR96       0.1794
     67  OG1        8.3190  133.5830   37.4820 O.3    96  THR96      -0.2208
     68  CG2       10.2810  132.1780   37.7270 C.3    96  THR96       0.0378
     69  N          2.5220  133.5030   48.3220 N.3   120  LYS120     -0.1245
     70  CA         1.3030  134.2930   48.2750 C.3   120  LYS120      0.1561
     71  C          0.2580  133.3280   47.7320 C.2   120  LYS120      0.2260
     72  O          0.0370  133.2750   46.5090 O.2   120  LYS120     -0.2867
     73  CB         1.4130  135.5240   47.3840 C.3   120  LYS120      0.0271
     74  CG         2.0900  136.7080   47.9600 C.3   120  LYS120      0.0035
     75  CD         1.7710  137.8340   47.0150 C.3   120  LYS120      0.0206
     76  CE         2.4660  139.0370   47.3470 C.3   120  LYS120      0.1093
     77  NZ         2.0580  140.1300   46.3950 N.3   120  LYS120     -0.1314
     78  N         -0.6640  141.4220   49.1690 N.3   140  VAL140     -0.1231
     79  CA        -0.2100  142.7890   49.4120 C.3   140  VAL140      0.1692
     80  C          1.1850  142.8080   48.8010 C.2   140  VAL140      0.2592
     81  O          1.8180  141.7780   48.6680 O.2   140  VAL140     -0.2718
     82  CB        -0.1480  143.2030   50.9180 C.3   140  VAL140      0.0266
     83  CG1       -1.5590  143.2550   51.4950 C.3   140  VAL140      0.0020
     84  CG2        0.6660  142.2550   51.6780 C.3   140  VAL140      0.0020
     85  N          1.6300  143.9820   48.4240 N.am  141  PHE141     -0.1962
     86  CA         2.9510  144.1070   47.7870 C.3   141  PHE141      0.1771
     87  C          4.0180  144.3830   48.8260 C.2   141  PHE141      0.2619
     88  O          3.9460  145.4160   49.5160 O.2   141  PHE141     -0.2715
     89  CB         2.9210  145.2580   46.7730 C.3   141  PHE141      0.0574
     90  CG         4.2040  145.2990   45.9680 C.ar  141  PHE141     -0.0200
     91  CD1        5.2530  146.1340   46.3480 C.ar  141  PHE141     -0.0042
     92  CD2        4.3710  144.4110   44.8860 C.ar  141  PHE141     -0.0042
     93  CE1        6.4570  146.1030   45.6240 C.ar  141  PHE141     -0.0003
     94  CE2        5.5790  144.3940   44.1480 C.ar  141  PHE141     -0.0003
     95  CZ         6.5820  145.2740   44.5180 C.ar  141  PHE141     -0.0000
     96  N          5.0210  143.4950   48.9100 N.am  142  VAL142     -0.1977
     97  CA         6.0510  143.5430   49.9520 C.3   142  VAL142      0.1596
     98  C          7.4130  143.7840   49.3060 C.2   142  VAL142      0.2287
     99  O          7.5890  143.5490   48.1030 O.2   142  VAL142     -0.2864
    100  CB         6.0950  142.2730   50.8010 C.3   142  VAL142      0.0276
    101  CG1        4.7110  142.1280   51.5250 C.3   142  VAL142      0.0022
    102  CG2        6.4730  141.0590   49.9370 C.3   142  VAL142      0.0022
    103  N         13.5150  141.1310   48.0660 N.3   147  LEU147     -0.1231
    104  CA        12.4270  141.5780   47.1970 C.3   147  LEU147      0.1693
    105  C         12.4770  143.0910   46.9560 C.2   147  LEU147      0.2592
    106  O         12.6460  143.8780   47.9030 O.2   147  LEU147     -0.2718
    107  CB        11.0940  141.2220   47.8400 C.3   147  LEU147      0.0284
    108  CG        10.9210  139.6740   48.0620 C.3   147  LEU147      0.0019
    109  CD1        9.6280  139.5800   48.8820 C.3   147  LEU147      0.0001
    110  CD2       10.5990  139.1970   46.6860 C.3   147  LEU147      0.0001
    111  N         12.3070  143.5040   45.7080 N.am  148  ASP148     -0.1974
    112  CA        12.5500  144.9050   45.3480 C.3   148  ASP148      0.1709
    113  C         11.2640  145.6300   45.0130 C.2   148  ASP148      0.2293
    114  O         10.2820  145.0320   44.5800 O.2   148  ASP148     -0.2864
    115  CB        13.4790  145.0350   44.1090 C.3   148  ASP148      0.1436
    116  CG        12.8000  144.5610   42.7930 C.2   148  ASP148      0.3671
    117  OD1       12.2910  143.4060   42.8070 O.co2 148  ASP148     -0.2456
    118  OD2       12.7930  145.3320   41.7770 O.co2 148  ASP148     -0.2456
    119  N         15.8350  145.8840   48.1790 N.3   154  ARG154     -0.1245
    120  CA        16.1290  144.4660   48.4350 C.3   154  ARG154      0.1563
    121  C         16.9010  144.2740   49.7300 C.2   154  ARG154      0.2260
    122  O         16.8770  143.1800   50.3020 O.2   154  ARG154     -0.2867
    123  CB        16.9920  143.8650   47.2960 C.3   154  ARG154      0.0307
    124  CG        16.2750  143.8960   45.8900 C.3   154  ARG154      0.0489
    125  CD        17.1110  143.0540   44.9310 C.3   154  ARG154      0.2205
    126  NE        16.7210  143.2470   43.5230 N.pl3 154  ARG154     -0.0865
    127  CZ        15.7140  142.5590   42.9790 C.cat 154  ARG154      0.5346
    128  NH1       14.9670  141.6690   43.6860 N.pl3 154  ARG154      0.1354
    129  NH2       15.4310  142.8020   41.6870 N.pl3 154  ARG154      0.1354
@<TRIPOS>BOND
     1    61    59    1
     2    60    59    1
     3    57    56    2
     4    59    58    1
     5    58    55    1
     6    56    55    1
     7    56    62   am
     8    55    54    1
     9    65    64    2
    10    63    62    1
    11    63    64    1
    12    63    66    1
    13    67    66    1
    14    54    51   am
    15    68    66    1
    16    52    51    2
    17    47    46    1
    18    51    50    1
    19    46    48    1
    20    46    43    1
    21    45    44    2
    22    44    43    1
    23    44    49   am
    24    50    49    1
    25    50    53    1
    26    43    42    1
    27     8     7   ar
    28    42    36   am
    29   129   127    1
    30   118   116   ar
    31     7     9   ar
    32     7     6    1
    33    41    39   ar
    34    36    37    2
    35    36    35    1
    36   116   117   ar
    37   116   115    1
    38   127   126    2
    39   127   128    1
    40     6     5    1
    41    39    38    1
    42    39    40   ar
    43    38    35    1
    44    32    31    1
    45    35    34    1
    46   126   125    1
    47    34    28   am
    48     5     2    1
    49   115   112    1
    50    21    20    2
    51    94    95   ar
    52    94    92   ar
    53    95    93   ar
    54   114   113    2
    55    17    15   ar
    56    28    27    1
    57    28    29    2
    58    27    30    1
    59    27    26    1
    60    31    30    1
    61    31    33    1
    62    92    90   ar
    63    24    22    1
    64   125   124    1
    65   113   112    1
    66     2     1    1
    67     2     3    1
    68    20    26   am
    69    20    19    1
    70   112   111    1
    71    16    15   ar
    72    15    14    1
    73    93    91   ar
    74   111   105   am
    75   124   123    1
    76    90    91   ar
    77    90    89    1
    78    10     3   am
    79    10    11    1
    80     3     4    2
    81    22    19    1
    82    22    23    1
    83    18    19    1
    84    18    12   am
    85    77    76    1
    86    72    71    2
    87    23    25    1
    88   110   108    1
    89    89    86    1
    90   105   104    1
    91   105   106    2
    92    14    11    1
    93    75    76    1
    94    75    74    1
    95    11    12    1
    96   104   107    1
    97   104   103    1
    98   123   120    1
    99    12    13    2
   100    73    74    1
   101    73    70    1
   102    71    70    1
   103    86    85    1
   104    86    87    1
   105   107   108    1
   106   108   109    1
   107    99    98    2
   108   119   120    1
   109    70    69    1
   110    85    80   am
   111   120   121    1
   112    81    80    2
   113    80    79    1
   114    87    96   am
   115    87    88    2
   116    96    97    1
   117    78    79    1
   118    98    97    1
   119    79    82    1
   120   121   122    2
   121   102   100    1
   122    97   100    1
   123   100   101    1
   124    82    83    1
   125    82    84    1
