@<TRIPOS>MOLECULE
tmp/6apvD00.pdb
 172 165 0 0 0
SMALL
GASTEIGER

@<TRIPOS>ATOM
      1  N         41.7160  135.3570  -84.0940 N.3    49  LEU49      -0.1231
      2  CA        41.7940  135.7400  -82.6850 C.3    49  LEU49       0.1693
      3  C         41.3490  134.5620  -81.8030 C.2    49  LEU49       0.2592
      4  O         40.6200  133.6810  -82.2510 O.2    49  LEU49      -0.2718
      5  CB        40.9090  136.9700  -82.4700 C.3    49  LEU49       0.0284
      6  CG        41.4640  138.2550  -83.0730 C.3    49  LEU49       0.0019
      7  CD1       40.4610  139.3830  -82.8370 C.3    49  LEU49       0.0001
      8  CD2       42.8210  138.5910  -82.4970 C.3    49  LEU49       0.0001
      9  N         41.7960  134.5490  -80.5450 N.am   50  LYS50      -0.1966
     10  CA        42.5860  135.6200  -79.9410 C.3    50  LYS50       0.1728
     11  C         44.0800  135.3200  -79.8590 C.2    50  LYS50       0.2616
     12  O         44.8910  136.2400  -79.8710 O.2    50  LYS50      -0.2715
     13  CB        42.0620  135.9300  -78.5390 C.3    50  LYS50       0.0311
     14  CG        40.5980  136.3230  -78.4840 C.3    50  LYS50       0.0038
     15  CD        40.0330  136.0730  -77.0980 C.3    50  LYS50       0.0206
     16  CE        40.9740  136.5740  -76.0240 C.3    50  LYS50       0.1093
     17  NZ        40.2280  136.8220  -74.7630 N.3    50  LYS50      -0.1314
     18  N         44.4480  134.0390  -79.7690 N.am   51  GLY51      -0.1955
     19  CA        45.8500  133.6900  -79.5080 C.3    51  GLY51       0.1869
     20  C         46.8240  134.0200  -80.6230 C.2    51  GLY51       0.2309
     21  O         48.0170  134.2430  -80.3520 O.2    51  GLY51      -0.2863
     22  N         37.4990  133.5370  -83.7060 N.3    77  ALA77      -0.1245
     23  CA        37.2330  132.1030  -83.6540 C.3    77  ALA77       0.1562
     24  C         36.0870  131.8100  -82.6800 C.2    77  ALA77       0.2260
     25  O         35.7920  130.6520  -82.3720 O.2    77  ALA77      -0.2867
     26  CB        38.4900  131.3430  -83.2480 C.3    77  ALA77       0.0290
     27  N         47.3540  131.2070  -87.7620 N.3    88  GLU88      -0.1231
     28  CA        46.7900  130.6690  -86.5430 C.3    88  GLU88       0.1699
     29  C         47.9360  130.2830  -85.6250 C.2    88  GLU88       0.2592
     30  O         48.9710  129.7880  -86.0840 O.2    88  GLU88      -0.2718
     31  CB        45.8960  129.4610  -86.8430 C.3    88  GLU88       0.0402
     32  CG        45.2740  128.8410  -85.6210 C.3    88  GLU88       0.1161
     33  CD        44.1900  129.7010  -85.0130 C.2    88  GLU88       0.3649
     34  OE1       43.0010  129.3900  -85.2280 O.co2  88  GLU88      -0.2457
     35  OE2       44.5260  130.6820  -84.3170 O.co2  88  GLU88      -0.2457
     36  N         47.7600  130.5210  -84.3280 N.am   89  ASP89      -0.1960
     37  CA        48.8130  130.1410  -83.4030 C.3    89  ASP89       0.1840
     38  C         48.9220  128.6220  -83.2830 C.2    89  ASP89       0.2622
     39  O         50.0310  128.0980  -83.1550 O.2    89  ASP89      -0.2715
     40  CB        48.6240  130.7890  -82.0330 C.3    89  ASP89       0.1450
     41  CG        47.2250  130.5690  -81.4280 C.2    89  ASP89       0.3671
     42  OD1       46.3000  130.0670  -82.1020 O.co2  89  ASP89      -0.2456
     43  OD2       47.0630  130.9450  -80.2320 O.co2  89  ASP89      -0.2456
     44  N         47.8070  127.8930  -83.3250 N.am   90  ILE90      -0.1963
     45  CA        47.8820  126.4400  -83.1460 C.3    90  ILE90       0.1727
     46  C         46.8500  125.7290  -84.0070 C.2    90  ILE90       0.2616
     47  O         45.7100  126.1770  -84.1480 O.2    90  ILE90      -0.2715
     48  CB        47.7430  126.0250  -81.6620 C.3    90  ILE90       0.0290
     49  CG1       48.1550  124.5520  -81.4700 C.3    90  ILE90       0.0022
     50  CG2       46.3370  126.2720  -81.1140 C.3    90  ILE90       0.0023
     51  CD1       48.6820  124.2670  -80.0540 C.3    90  ILE90       0.0001
     52  N         47.2600  124.6000  -84.5730 N.am   91  LEU91      -0.1963
     53  CA        46.4140  123.7610  -85.4010 C.3    91  LEU91       0.1728
     54  C         46.3950  122.3730  -84.7690 C.2    91  LEU91       0.2616
     55  O         47.4490  121.7360  -84.6380 O.2    91  LEU91      -0.2715
     56  CB        46.9680  123.7130  -86.8280 C.3    91  LEU91       0.0311
     57  CG        46.4980  122.6370  -87.8050 C.3    91  LEU91       0.0022
     58  CD1       45.0260  122.7770  -87.9900 C.3    91  LEU91       0.0001
     59  CD2       47.2060  122.7780  -89.1530 C.3    91  LEU91       0.0001
     60  N         45.2070  121.9180  -84.3710 N.am   92  ASP92      -0.1957
     61  CA        45.0390  120.6850  -83.5960 C.3    92  ASP92       0.1840
     62  C         44.0230  119.7790  -84.2850 C.2    92  ASP92       0.2623
     63  O         44.3990  118.9930  -85.1620 O.2    92  ASP92      -0.2715
     64  CB        44.6050  121.0380  -82.1720 C.3    92  ASP92       0.1450
     65  CG        44.4880  119.8240  -81.2540 C.2    92  ASP92       0.3671
     66  OD1       45.2040  118.8210  -81.4570 O.co2  92  ASP92      -0.2456
     67  OD2       43.6660  119.8990  -80.3170 O.co2  92  ASP92      -0.2456
     68  N         42.7330  119.9150  -83.9460 N.am   93  THR93      -0.1937
     69  CA        41.7070  119.1200  -84.6330 C.3    93  THR93       0.2028
     70  C         41.5300  119.5290  -86.0910 C.2    93  THR93       0.2642
     71  O         40.9930  118.7350  -86.8890 O.2    93  THR93      -0.2714
     72  CB        40.3570  119.2260  -83.9170 C.3    93  THR93       0.1808
     73  OG1       39.8380  120.5590  -84.0640 O.3    93  THR93      -0.2208
     74  CG2       40.4990  118.8800  -82.4440 C.3    93  THR93       0.0379
     75  N         41.9420  120.7520  -86.4360 N.am   94  ALA94      -0.1963
     76  CA        41.8060  121.4360  -87.7300 C.3    94  ALA94       0.1728
     77  C         40.3840  121.9440  -87.9620 C.2    94  ALA94       0.2616
     78  O         40.1160  122.5210  -89.0290 O.2    94  ALA94      -0.2715
     79  CB        42.2240  120.5600  -88.9290 C.3    94  ALA94       0.0334
     80  N         39.4660  121.7540  -87.0140 N.am   95  LEU95      -0.1963
     81  CA        38.0880  122.1820  -87.2240 C.3    95  LEU95       0.1728
     82  C         37.9810  123.6970  -87.4460 C.2    95  LEU95       0.2617
     83  O         37.2050  124.1470  -88.2970 O.2    95  LEU95      -0.2715
     84  CB        37.2250  121.7270  -86.0480 C.3    95  LEU95       0.0311
     85  CG        37.1470  120.2070  -86.0170 C.3    95  LEU95       0.0022
     86  CD1       36.4880  119.7500  -84.7450 C.3    95  LEU95       0.0001
     87  CD2       36.3960  119.7120  -87.2700 C.3    95  LEU95       0.0001
     88  N         38.7630  124.4960  -86.7100 N.am   96  THR96      -0.1937
     89  CA        38.7080  125.9490  -86.8700 C.3    96  THR96       0.2028
     90  C         39.1620  126.3710  -88.2600 C.2    96  THR96       0.2642
     91  O         38.4420  127.0750  -88.9750 O.2    96  THR96      -0.2714
     92  CB        39.5900  126.6560  -85.8330 C.3    96  THR96       0.1808
     93  OG1       39.2340  126.2500  -84.5090 O.3    96  THR96      -0.2208
     94  CG2       39.4120  128.1480  -85.9490 C.3    96  THR96       0.0379
     95  N         40.3800  125.9770  -88.6470 N.am   97  LEU97      -0.1977
     96  CA        40.9190  126.4370  -89.9230 C.3    97  LEU97       0.1596
     97  C         40.0980  125.9140  -91.0870 C.2    97  LEU97       0.2287
     98  O         39.9320  126.6150  -92.0940 O.2    97  LEU97      -0.2864
     99  CB        42.3830  126.0180  -90.0810 C.3    97  LEU97       0.0297
    100  CG        43.4290  126.9230  -89.4290 C.3    97  LEU97       0.0022
    101  CD1       44.7710  126.2350  -89.4070 C.3    97  LEU97       0.0001
    102  CD2       43.5290  128.2510  -90.1620 C.3    97  LEU97       0.0001
    103  N         49.8550  120.5200  -84.2100 N.3   120  LYS120     -0.1245
    104  CA        49.8000  119.2760  -83.4610 C.3   120  LYS120      0.1561
    105  C         49.2930  118.1990  -84.4070 C.2   120  LYS120      0.2260
    106  O         48.0910  117.9200  -84.4340 O.2   120  LYS120     -0.2867
    107  CB        48.8870  119.3830  -82.2340 C.3   120  LYS120      0.0271
    108  CG        49.5140  120.0560  -81.0250 C.3   120  LYS120      0.0035
    109  CD        48.4250  120.5540  -80.0790 C.3   120  LYS120      0.0206
    110  CE        48.3250  119.7110  -78.8570 C.3   120  LYS120      0.1093
    111  NZ        47.3930  120.2910  -77.8400 N.3   120  LYS120     -0.1314
    112  N         50.3190  117.2620  -76.3660 N.3   140  VAL140     -0.1231
    113  CA        50.4310  117.7870  -75.0070 C.3   140  VAL140      0.1692
    114  C         49.7840  119.1700  -74.9980 C.2   140  VAL140      0.2592
    115  O         49.6520  119.8240  -76.0340 O.2   140  VAL140     -0.2718
    116  CB        51.8930  117.9000  -74.4970 C.3   140  VAL140      0.0266
    117  CG1       52.5680  116.5050  -74.2800 C.3   140  VAL140      0.0020
    118  CG2       52.7190  118.7570  -75.4410 C.3   140  VAL140      0.0020
    119  N         49.3850  119.6280  -73.8220 N.am  141  PHE141     -0.1962
    120  CA        48.7090  120.9240  -73.7240 C.3   141  PHE141      0.1771
    121  C         49.7180  122.0190  -73.3780 C.2   141  PHE141      0.2619
    122  O         50.3640  121.9630  -72.3250 O.2   141  PHE141     -0.2715
    123  CB        47.5750  120.9000  -72.7010 C.3   141  PHE141      0.0574
    124  CG        46.7480  122.1520  -72.7370 C.ar  141  PHE141     -0.0200
    125  CD1       45.7460  122.3030  -73.6790 C.ar  141  PHE141     -0.0042
    126  CD2       47.0250  123.2010  -71.8740 C.ar  141  PHE141     -0.0042
    127  CE1       45.0020  123.4860  -73.7450 C.ar  141  PHE141     -0.0003
    128  CE2       46.2970  124.3850  -71.9250 C.ar  141  PHE141     -0.0003
    129  CZ        45.2830  124.5260  -72.8650 C.ar  141  PHE141     -0.0000
    130  N         49.8520  123.0080  -74.2720 N.am  142  VAL142     -0.1977
    131  CA        50.8480  124.0580  -74.1330 C.3   142  VAL142      0.1596
    132  C         50.1650  125.4150  -73.9610 C.2   142  VAL142      0.2287
    133  O         48.9990  125.6220  -74.3370 O.2   142  VAL142     -0.2864
    134  CB        51.8280  124.1030  -75.3280 C.3   142  VAL142      0.0276
    135  CG1       52.6610  122.7950  -75.3990 C.3   142  VAL142      0.0022
    136  CG2       51.0650  124.3730  -76.6260 C.3   142  VAL142      0.0022
    137  N         49.1740  131.4350  -76.6690 N.3   147  LEU147     -0.1231
    138  CA        48.3130  130.3120  -76.2980 C.3   147  LEU147      0.1693
    139  C         47.9690  130.3860  -74.8140 C.2   147  LEU147      0.2592
    140  O         48.8520  130.6030  -73.9710 O.2   147  LEU147     -0.2718
    141  CB        49.0160  128.9820  -76.6260 C.3   147  LEU147      0.0284
    142  CG        49.2830  128.7450  -78.1340 C.3   147  LEU147      0.0019
    143  CD1       50.3160  127.6510  -78.3690 C.3   147  LEU147      0.0001
    144  CD2       48.0030  128.3470  -78.7900 C.3   147  LEU147      0.0001
    145  N         46.6950  130.1920  -74.4860 N.am  148  ASP148     -0.1974
    146  CA        46.1910  130.4780  -73.1500 C.3   148  ASP148      0.1709
    147  C         45.7870  129.2150  -72.4150 C.2   148  ASP148      0.2293
    148  O         45.4890  128.1800  -73.0140 O.2   148  ASP148     -0.2864
    149  CB        44.9680  131.4180  -73.1950 C.3   148  ASP148      0.1436
    150  CG        43.6960  130.7310  -73.7290 C.2   148  ASP148      0.3671
    151  OD1       42.6730  130.7280  -73.0020 O.co2 148  ASP148     -0.2456
    152  OD2       43.7040  130.2180  -74.8750 O.co2 148  ASP148     -0.2456
    153  N         42.4060  131.9600  -70.6010 N.3   151  GLN151     -0.1245
    154  CA        42.6970  133.3430  -70.9650 C.3   151  GLN151      0.1566
    155  C         43.9950  133.8680  -70.3320 C.2   151  GLN151      0.2260
    156  O         44.4270  134.9730  -70.6780 O.2   151  GLN151     -0.2867
    157  CB        41.5450  134.3150  -70.6220 C.3   151  GLN151      0.0367
    158  CG        40.1830  133.9130  -71.2590 C.3   151  GLN151      0.0905
    159  CD        40.3080  133.7530  -72.7740 C.2   151  GLN151      0.2608
    160  OE1       41.0530  134.4890  -73.4300 O.2   151  GLN151     -0.2717
    161  NE2       39.5930  132.7860  -73.3320 N.am  151  GLN151     -0.0878
    162  N         48.9080  133.7870  -72.0500 N.3   154  ARG154     -0.1245
    163  CA        49.2380  134.1270  -73.4430 C.3   154  ARG154      0.1563
    164  C         50.5580  134.9020  -73.5540 C.2   154  ARG154      0.2260
    165  O         51.2290  134.8550  -74.5980 O.2   154  ARG154     -0.2867
    166  CB        48.1180  134.9550  -74.0730 C.3   154  ARG154      0.0307
    167  CG        46.7280  134.2860  -74.0860 C.3   154  ARG154      0.0489
    168  CD        45.8070  135.0550  -75.0640 C.3   154  ARG154      0.2205
    169  NE        44.4150  134.6080  -74.9970 N.pl3 154  ARG154     -0.0865
    170  CZ        43.9400  133.5400  -75.6490 C.cat 154  ARG154      0.5346
    171  NH1       42.6540  133.2080  -75.5470 N.pl3 154  ARG154      0.1354
    172  NH2       44.7450  132.8030  -76.4170 N.pl3 154  ARG154      0.1354
@<TRIPOS>BOND
     1    98    97    2
     2    97    96    1
     3   102   100    1
     4    99    96    1
     5    99   100    1
     6    96    95    1
     7   100   101    1
     8    59    57    1
     9    78    77    2
    10    91    90    2
    11    79    76    1
    12    95    90   am
    13    83    82    2
    14    90    89    1
    15    58    57    1
    16    77    76    1
    17    77    80   am
    18    57    56    1
    19    27    28    1
    20    76    75    1
    21    82    81    1
    22    82    88   am
    23    87    85    1
    24    81    80    1
    25    81    84    1
    26    71    70    2
    27    89    88    1
    28    89    92    1
    29    31    28    1
    30    31    32    1
    31    56    53    1
    32    28    29    1
    33    75    70   am
    34    70    69    1
    35    30    29    2
    36    84    85    1
    37    85    86    1
    38    94    92    1
    39    92    93    1
    40    29    36   am
    41    32    33    1
    42    53    54    1
    43    53    52    1
    44    34    33   ar
    45    63    62    2
    46    33    35   ar
    47    54    55    2
    48    54    60   am
    49    69    68    1
    50    69    72    1
    51    52    46   am
    52   106   105    2
    53   105   104    1
    54    60    61    1
    55    36    37    1
    56    62    68   am
    57    62    61    1
    58   103   104    1
    59    47    46    2
    60     1     2    1
    61    73    72    1
    62    46    45    1
    63    72    74    1
    64    22    23    1
    65    23    26    1
    66    23    24    1
    67    61    64    1
    68   104   107    1
    69    37    38    1
    70    37    40    1
    71    44    38   am
    72    44    45    1
    73    38    39    2
    74    45    48    1
    75     6     7    1
    76     6     8    1
    77     6     5    1
    78     2     5    1
    79     2     3    1
    80    24    25    2
    81     4     3    2
    82   107   108    1
    83    64    65    1
    84    42    41   ar
    85    40    41    1
    86     3     9   am
    87    48    49    1
    88    48    50    1
    89    49    51    1
    90    66    65   ar
    91    41    43   ar
    92    65    67   ar
    93   108   109    1
    94    20    21    2
    95    20    19    1
    96     9    10    1
    97   109   110    1
    98    10    11    1
    99    10    13    1
   100    12    11    2
   101    11    18   am
   102    18    19    1
   103   110   111    1
   104   144   142    1
   105    13    14    1
   106    14    15    1
   107   143   142    1
   108   142   141    1
   109    15    16    1
   110   137   138    1
   111   141   138    1
   112   136   134    1
   113   172   170    1
   114   112   113    1
   115   138   139    1
   116   115   114    2
   117    16    17    1
   118   170   171    1
   119   170   169    2
   120   118   116    1
   121   135   134    1
   122   134   131    1
   123   168   169    1
   124   168   167    1
   125   113   114    1
   126   113   116    1
   127   114   119   am
   128   152   150   ar
   129   139   145   am
   130   139   140    2
   131   165   164    2
   132   116   117    1
   133   145   146    1
   134   133   132    2
   135   130   131    1
   136   130   121   am
   137   131   132    1
   138   167   166    1
   139   166   163    1
   140   119   120    1
   141   127   125   ar
   142   127   129   ar
   143   150   149    1
   144   150   151   ar
   145   120   121    1
   146   120   123    1
   147   125   124   ar
   148   164   163    1
   149   163   162    1
   150   160   159    2
   151   121   122    2
   152   161   159   am
   153   149   146    1
   154   146   147    1
   155   148   147    2
   156   129   128   ar
   157   159   158    1
   158   124   123    1
   159   124   126   ar
   160   128   126   ar
   161   158   157    1
   162   154   157    1
   163   154   153    1
   164   154   155    1
   165   156   155    2
