@<TRIPOS>MOLECULE
tmp/6apwA00.pdb
 228 221 0 0 0
SMALL
GASTEIGER

@<TRIPOS>ATOM
      1  N         49.9090   12.2390   31.2800 N.3    92  SER92      -0.1202
      2  CA        49.3790   12.4430   29.9370 C.3    92  SER92       0.2020
      3  C         47.9870   11.8400   29.8500 C.2    92  SER92       0.2619
      4  O         47.7820   10.6920   30.2560 O.2    92  SER92      -0.2717
      5  CB        50.2930   11.8140   28.8810 C.3    92  SER92       0.2103
      6  OG        49.7150   11.9130   27.5900 O.3    92  SER92      -0.2182
      7  N         47.0330   12.6150   29.3250 N.am   93  THR93      -0.1938
      8  CA        45.7200   12.0520   29.0280 C.3    93  THR93       0.2028
      9  C         45.8260   10.9200   28.0150 C.2    93  THR93       0.2642
     10  O         45.0320    9.9720   28.0540 O.2    93  THR93      -0.2714
     11  CB        44.7750   13.1350   28.5010 C.3    93  THR93       0.1808
     12  OG1       45.3130   13.6840   27.2940 O.3    93  THR93      -0.2208
     13  CG2       44.6090   14.2550   29.5160 C.3    93  THR93       0.0379
     14  N         46.8040   10.9950   27.1090 N.am   94  GLN94      -0.1976
     15  CA        46.9820    9.9350   26.1230 C.3    94  GLN94       0.1601
     16  C         47.4730    8.6500   26.7760 C.2    94  GLN94       0.2287
     17  O         46.9840    7.5620   26.4550 O.2    94  GLN94      -0.2864
     18  CB        47.9500   10.3920   25.0340 C.3    94  GLN94       0.0394
     19  CG        47.8550    9.6050   23.7410 C.3    94  GLN94       0.0908
     20  CD        46.6640   10.0040   22.8820 C.2    94  GLN94       0.2608
     21  OE1       45.7950   10.7630   23.3120 O.2    94  GLN94      -0.2717
     22  NE2       46.6270    9.4970   21.6540 N.am   94  GLN94      -0.0878
     23  N         49.1130   18.7070   32.2480 N.3   115  GLN115     -0.1245
     24  CA        49.8250   17.4690   31.9700 C.3   115  GLN115      0.1566
     25  C         51.2780   17.6330   32.3850 C.2   115  GLN115      0.2260
     26  O         51.9080   18.6550   32.0940 O.2   115  GLN115     -0.2867
     27  CB        49.7380   17.0630   30.4910 C.3   115  GLN115      0.0367
     28  CG        48.4060   16.4630   30.0880 C.3   115  GLN115      0.0905
     29  CD        48.3040   16.2060   28.5980 C.2   115  GLN115      0.2608
     30  OE1       47.6740   15.2400   28.1670 O.2   115  GLN115     -0.2717
     31  NE2       48.9190   17.0740   27.8020 N.am  115  GLN115     -0.0878
     32  N         53.1250   15.8400   28.7450 N.3   118  GLY118     -0.1210
     33  CA        52.4120   15.8940   27.4820 C.3   118  GLY118      0.1956
     34  C         53.3470   15.6240   26.3180 C.2   118  GLY118      0.2612
     35  O         54.4700   16.1320   26.2650 O.2   118  GLY118     -0.2717
     36  N         52.8780   14.8030   25.3820 N.am  119  ARG119     -0.1965
     37  CA        53.6680   14.3980   24.2310 C.3   119  ARG119      0.1729
     38  C         52.8530   14.5620   22.9610 C.2   119  ARG119      0.2617
     39  O         51.6760   14.1870   22.9120 O.2   119  ARG119     -0.2715
     40  CB        54.1380   12.9460   24.3570 C.3   119  ARG119      0.0348
     41  CG        55.1680   12.7240   25.4450 C.3   119  ARG119      0.0492
     42  CD        56.4430   13.4890   25.1460 C.3   119  ARG119      0.2205
     43  NE        57.4330   13.3370   26.2050 N.pl3 119  ARG119     -0.0865
     44  CZ        57.5870   14.1910   27.2120 C.cat 119  ARG119      0.5346
     45  NH1       56.8070   15.2630   27.2980 N.pl3 119  ARG119      0.1354
     46  NH2       58.5190   13.9760   28.1310 N.pl3 119  ARG119      0.1354
     47  N         53.4830   15.1360   21.9400 N.am  120  GLY120     -0.1940
     48  CA        52.9100   15.2280   20.6190 C.3   120  GLY120      0.2014
     49  C         53.4470   14.1490   19.7040 C.2   120  GLY120      0.2638
     50  O         53.9130   13.0920   20.1450 O.2   120  GLY120     -0.2714
     51  N         53.3790   14.4190   18.4030 N.am  121  ARG121     -0.1977
     52  CA        53.9690   13.5240   17.4180 C.3   121  ARG121      0.1597
     53  C         55.4740   13.4240   17.6330 C.2   121  ARG121      0.2287
     54  O         56.1250   14.3690   18.0900 O.2   121  ARG121     -0.2864
     55  CB        53.6750   14.0180   15.9990 C.3   121  ARG121      0.0334
     56  CG        52.2000   14.0520   15.6430 C.3   121  ARG121      0.0492
     57  CD        51.9760   14.7190   14.2970 C.3   121  ARG121      0.2205
     58  NE        52.5190   13.9240   13.2010 N.pl3 121  ARG121     -0.0865
     59  CZ        52.8300   14.4120   12.0050 C.cat 121  ARG121      0.5346
     60  NH1       52.6480   15.6990   11.7480 N.pl3 121  ARG121      0.1354
     61  NH2       53.3200   13.6110   11.0670 N.pl3 121  ARG121      0.1354
     62  N         57.4840   14.5580   20.8790 N.3   124  ARG124     -0.1231
     63  CA        57.8230   15.9350   21.2060 C.3   124  ARG124      0.1694
     64  C         57.1650   16.3630   22.5130 C.2   124  ARG124      0.2592
     65  O         56.0770   15.9030   22.8680 O.2   124  ARG124     -0.2718
     66  CB        57.3750   16.8770   20.0960 C.3   124  ARG124      0.0321
     67  CG        58.1230   16.7330   18.7960 C.3   124  ARG124      0.0489
     68  CD        57.3370   17.4130   17.6990 C.3   124  ARG124      0.2205
     69  NE        58.0110   17.3560   16.4100 N.pl3 124  ARG124     -0.0865
     70  CZ        57.3750   17.2970   15.2460 C.cat 124  ARG124      0.5346
     71  NH1       56.0490   17.2800   15.2170 N.pl3 124  ARG124      0.1354
     72  NH2       58.0630   17.2500   14.1150 N.pl3 124  ARG124      0.1354
     73  N         57.8340   17.2640   23.2270 N.am  125  HIS125     -0.1962
     74  CA        57.2460   17.8280   24.4330 C.3   125  HIS125      0.1787
     75  C         56.0920   18.7480   24.0640 C.2   125  HIS125      0.2620
     76  O         56.2190   19.5960   23.1770 O.2   125  HIS125     -0.2715
     77  CB        58.2800   18.6040   25.2450 C.3   125  HIS125      0.0785
     78  CG        57.6690   19.6050   26.1770 C.ar  125  HIS125      0.0821
     79  ND1       57.0810   19.2430   27.3710 N.ar  125  HIS125     -0.2267
     80  CD2       57.5360   20.9500   26.0860 C.ar  125  HIS125      0.1154
     81  CE1       56.6220   20.3220   27.9790 C.ar  125  HIS125      0.1986
     82  NE2       56.8850   21.3710   27.2210 N.ar  125  HIS125     -0.2212
     83  N         54.9650   18.5810   24.7490 N.am  126  TRP126     -0.1974
     84  CA        53.7980   19.4340   24.5680 C.3   126  TRP126      0.1640
     85  C         53.5300   20.1520   25.8830 C.2   126  TRP126      0.2290
     86  O         53.1770   19.5150   26.8810 O.2   126  TRP126     -0.2864
     87  CB        52.5820   18.6210   24.1330 C.3   126  TRP126      0.0576
     88  CG        51.4170   19.4790   23.7990 C.ar  126  TRP126      0.0006
     89  CD1       50.4410   19.9070   24.6500 C.ar  126  TRP126      0.0946
     90  CD2       51.1090   20.0410   22.5190 C.ar  126  TRP126      0.0152
     91  NE1       49.5390   20.6930   23.9770 N.ar  126  TRP126     -0.2442
     92  CE2       49.9260   20.7910   22.6660 C.ar  126  TRP126      0.0810
     93  CE3       51.7160   19.9780   21.2610 C.ar  126  TRP126      0.0012
     94  CZ2       49.3390   21.4740   21.6040 C.ar  126  TRP126      0.0191
     95  CZ3       51.1310   20.6540   20.2090 C.ar  126  TRP126      0.0001
     96  CH2       49.9560   21.3940   20.3860 C.ar  126  TRP126      0.0015
     97  N         43.3950   19.8740   27.5370 N.3   135  TRP135     -0.1227
     98  CA        44.2120   18.6910   27.2860 C.3   135  TRP135      0.1737
     99  C         43.2960   17.4800   27.4190 C.2   135  TRP135      0.2595
    100  O         42.9390   17.0780   28.5310 O.2   135  TRP135     -0.2718
    101  CB        45.3960   18.6240   28.2470 C.3   135  TRP135      0.0564
    102  CG        45.9480   19.9730   28.6090 C.ar  135  TRP135      0.0003
    103  CD1       46.0280   20.5170   29.8570 C.ar  135  TRP135      0.0946
    104  CD2       46.4930   20.9500   27.7110 C.ar  135  TRP135      0.0152
    105  NE1       46.5890   21.7690   29.7940 N.ar  135  TRP135     -0.2442
    106  CE2       46.8830   22.0590   28.4890 C.ar  135  TRP135      0.0810
    107  CE3       46.6900   20.9950   26.3250 C.ar  135  TRP135      0.0012
    108  CZ2       47.4600   23.2000   27.9290 C.ar  135  TRP135      0.0191
    109  CZ3       47.2620   22.1300   25.7700 C.ar  135  TRP135      0.0001
    110  CH2       47.6400   23.2160   26.5710 C.ar  135  TRP135      0.0015
    111  N         42.9170   16.9040   26.2810 N.am  136  MET136     -0.1965
    112  CA        41.9000   15.8650   26.2330 C.3   136  MET136      0.1736
    113  C         42.3610   14.7130   25.3530 C.2   136  MET136      0.2617
    114  O         43.0180   14.9220   24.3290 O.2   136  MET136     -0.2715
    115  CB        40.5710   16.4310   25.7090 C.3   136  MET136      0.0427
    116  CG        39.4070   15.4580   25.7440 C.3   136  MET136      0.0599
    117  SD        37.8670   16.2130   25.1780 S.3   136  MET136     -0.1393
    118  CE        38.3140   16.6810   23.5090 C.3   136  MET136      0.0692
    119  N         42.0190   13.4980   25.7670 N.am  137  SER137     -0.1950
    120  CA        42.1870   12.3070   24.9500 C.3   137  SER137      0.1924
    121  C         40.8310   11.6410   24.7890 C.2   137  SER137      0.2314
    122  O         40.0800   11.5110   25.7570 O.2   137  SER137     -0.2863
    123  CB        43.1890   11.3370   25.5740 C.3   137  SER137      0.2116
    124  OG        44.5080   11.8140   25.3890 O.3   137  SER137     -0.2180
    125  N         47.9860   17.6190   11.2620 N.3   178  ASN178     -0.1225
    126  CA        47.8200   17.4860   12.7070 C.3   178  ASN178      0.1785
    127  C         47.8400   18.8030   13.4830 C.2   178  ASN178      0.2597
    128  O         48.0700   18.7800   14.6960 O.2   178  ASN178     -0.2718
    129  CB        48.9180   16.5830   13.2830 C.3   178  ASN178      0.1169
    130  CG        48.7910   15.1450   12.8320 C.2   178  ASN178      0.2627
    131  OD1       49.4540   14.7170   11.8850 O.2   178  ASN178     -0.2716
    132  ND2       47.9430   14.3830   13.5140 N.am  178  ASN178     -0.0877
    133  N         47.6120   19.9490   12.8430 N.am  179  ASP179     -0.1974
    134  CA        47.7400   21.2220   13.5390 C.3   179  ASP179      0.1709
    135  C         46.6680   22.1950   13.0670 C.2   179  ASP179      0.2293
    136  O         46.2100   22.1350   11.9250 O.2   179  ASP179     -0.2864
    137  CB        49.1330   21.8340   13.3310 C.3   179  ASP179      0.1436
    138  CG        50.2450   20.9830   13.9250 C.2   179  ASP179      0.3671
    139  OD1       50.6580   19.9980   13.2770 O.co2 179  ASP179     -0.2456
    140  OD2       50.7070   21.2980   15.0420 O.co2 179  ASP179     -0.2456
    141  N         49.8780   28.9110   16.0240 N.3   186  LYS186     -0.1245
    142  CA        49.2870   27.6020   16.2560 C.3   186  LYS186      0.1561
    143  C         48.4460   27.6310   17.5240 C.2   186  LYS186      0.2260
    144  O         48.9170   28.0340   18.5910 O.2   186  LYS186     -0.2867
    145  CB        50.3630   26.5270   16.3670 C.3   186  LYS186      0.0271
    146  CG        49.7830   25.1250   16.2840 C.3   186  LYS186      0.0035
    147  CD        50.8490   24.0630   16.4290 C.3   186  LYS186      0.0206
    148  CE        52.0250   24.4040   15.5480 C.3   186  LYS186      0.1093
    149  NZ        52.4990   23.1960   14.8360 N.3   186  LYS186     -0.1314
    150  N         47.1300   21.3290   18.5170 N.3   189  GLY189     -0.1210
    151  CA        47.7370   20.1580   17.9040 C.3   189  GLY189      0.1956
    152  C         46.9970   18.9260   18.3540 C.2   189  GLY189      0.2612
    153  O         46.5630   18.8280   19.5030 O.2   189  GLY189     -0.2717
    154  N         46.8250   17.9820   17.4310 N.am  190  PHE190     -0.1962
    155  CA        46.1090   16.7520   17.7260 C.3   190  PHE190      0.1771
    156  C         46.7980   15.6000   17.0150 C.2   190  PHE190      0.2619
    157  O         47.5500   15.7960   16.0590 O.2   190  PHE190     -0.2715
    158  CB        44.6330   16.8330   17.3050 C.3   190  PHE190      0.0574
    159  CG        44.4320   17.0600   15.8340 C.ar  190  PHE190     -0.0200
    160  CD1       44.5980   18.3240   15.2830 C.ar  190  PHE190     -0.0042
    161  CD2       44.0630   16.0170   14.9980 C.ar  190  PHE190     -0.0042
    162  CE1       44.4180   18.5380   13.9290 C.ar  190  PHE190     -0.0003
    163  CE2       43.8730   16.2330   13.6430 C.ar  190  PHE190     -0.0003
    164  CZ        44.0470   17.4950   13.1110 C.ar  190  PHE190     -0.0000
    165  N         46.5390   14.3880   17.4980 N.am  191  LEU191     -0.1977
    166  CA        47.0780   13.2060   16.8490 C.3   191  LEU191      0.1596
    167  C         46.1360   12.0360   17.0850 C.2   191  LEU191      0.2287
    168  O         45.5020   11.9260   18.1380 O.2   191  LEU191     -0.2864
    169  CB        48.4960   12.8810   17.3350 C.3   191  LEU191      0.0297
    170  CG        48.7100   12.0800   18.6180 C.3   191  LEU191      0.0022
    171  CD1       50.1570   11.6330   18.7040 C.3   191  LEU191      0.0001
    172  CD2       48.3360   12.8980   19.8360 C.3   191  LEU191      0.0001
    173  N         44.3150   12.3790   20.8080 N.3   207  GLY207     -0.1210
    174  CA        44.7750   13.3530   21.7790 C.3   207  GLY207      0.1956
    175  C         44.7050   14.7500   21.2040 C.2   207  GLY207      0.2612
    176  O         45.2580   15.0200   20.1360 O.2   207  GLY207     -0.2717
    177  N         44.0250   15.6430   21.9210 N.am  208  ILE208     -0.1965
    178  CA        43.7260   16.9860   21.4360 C.3   208  ILE208      0.1727
    179  C         44.2290   18.0000   22.4540 C.2   208  ILE208      0.2616
    180  O         43.7690   18.0120   23.6030 O.2   208  ILE208     -0.2715
    181  CB        42.2210   17.1790   21.1830 C.3   208  ILE208      0.0290
    182  CG1       41.7090   16.1450   20.1800 C.3   208  ILE208      0.0022
    183  CG2       41.9380   18.5880   20.7000 C.3   208  ILE208      0.0023
    184  CD1       40.2020   16.0950   20.0760 C.3   208  ILE208      0.0001
    185  N         45.1630   18.8490   22.0350 N.am  209  GLY209     -0.1955
    186  CA        45.6340   19.9430   22.8650 C.3   209  GLY209      0.1869
    187  C         45.2890   21.2920   22.2680 C.2   209  GLY209      0.2309
    188  O         45.6930   21.5960   21.1420 O.2   209  GLY209     -0.2863
    189  N         45.0550   25.5410   22.9960 N.3   211  ASN211     -0.1240
    190  CA        45.3820   26.7100   23.8070 C.3   211  ASN211      0.1653
    191  C         44.1200   27.5420   24.0030 C.2   211  ASN211      0.2266
    192  O         43.5900   28.1130   23.0440 O.2   211  ASN211     -0.2867
    193  CB        46.4780   27.5350   23.1400 C.3   211  ASN211      0.1155
    194  CG        47.8270   26.8490   23.1780 C.2   211  ASN211      0.2627
    195  OD1       48.0750   25.9900   24.0240 O.2   211  ASN211     -0.2716
    196  ND2       48.7090   27.2290   22.2620 N.am  211  ASN211     -0.0877
    197  N         58.8470   30.6620   20.7630 N.3   223  ILE223     -0.1245
    198  CA        57.6990   30.2950   19.9340 C.3   223  ILE223      0.1561
    199  C         56.6090   31.3550   19.9060 C.2   223  ILE223      0.2260
    200  O         55.6070   31.1740   19.1950 O.2   223  ILE223     -0.2867
    201  CB        57.0620   28.9770   20.4130 C.3   223  ILE223      0.0252
    202  CG1       56.3310   29.2040   21.7390 C.3   223  ILE223      0.0019
    203  CG2       58.1150   27.8900   20.5460 C.3   223  ILE223      0.0019
    204  CD1       55.8670   27.9350   22.4080 C.3   223  ILE223      0.0001
    205  N         54.6430   32.3740   16.7160 N.3   226  ARG226     -0.1231
    206  CA        53.8240   31.4190   15.9790 C.3   226  ARG226      0.1694
    207  C         52.9820   30.5650   16.9190 C.2   226  ARG226      0.2591
    208  O         52.6270   29.4310   16.5890 O.2   226  ARG226     -0.2718
    209  CB        54.6890   30.5330   15.0850 C.3   226  ARG226      0.0321
    210  CG        56.0330   30.1870   15.6850 C.3   226  ARG226      0.0489
    211  CD        56.7490   29.1340   14.8640 C.3   226  ARG226      0.2205
    212  NE        57.8190   28.5000   15.6250 N.pl3 226  ARG226     -0.0865
    213  CZ        57.7770   27.2460   16.0630 C.cat 226  ARG226      0.5346
    214  NH1       58.7950   26.7470   16.7500 N.pl3 226  ARG226      0.1354
    215  NH2       56.7170   26.4870   15.8080 N.pl3 226  ARG226      0.1354
    216  N         52.6610   31.0950   18.0950 N.am  227  ALA227     -0.1980
    217  CA        51.7560   30.4480   19.0330 C.3   227  ALA227      0.1597
    218  C         50.6550   31.4290   19.3990 C.2   227  ALA227      0.2287
    219  O         50.9120   32.6230   19.5820 O.2   227  ALA227     -0.2864
    220  CB        52.4880   29.9770   20.2960 C.3   227  ALA227      0.0319
    221  N         56.7440   22.2310    8.1850 N.3   321  ASP321     -0.1239
    222  CA        57.0320   23.5280    8.7770 C.3   321  ASP321      0.1674
    223  C         56.7460   24.6230    7.7560 C.2   321  ASP321      0.2266
    224  O         56.8230   24.3990    6.5450 O.2   321  ASP321     -0.2867
    225  CB        58.4890   23.6240    9.2400 C.3   321  ASP321      0.1410
    226  CG        58.7610   22.8130   10.4930 C.2   321  ASP321      0.3668
    227  OD1       57.8750   22.7610   11.3740 O.co2 321  ASP321     -0.2456
    228  OD2       59.8650   22.2370   10.6010 O.co2 321  ASP321     -0.2456
@<TRIPOS>BOND
     1   224   223    2
     2   223   222    1
     3   221   222    1
     4   222   225    1
     5   225   226    1
     6   226   228   ar
     7   226   227   ar
     8    61    59    1
     9   125   126    1
    10    60    59    1
    11   131   130    2
    12   136   135    2
    13    59    58    2
    14   126   129    1
    15   126   127    1
    16   130   129    1
    17   130   132   am
    18   133   127   am
    19   133   134    1
    20   135   134    1
    21   164   163   ar
    22   164   162   ar
    23    58    57    1
    24   139   138   ar
    25   137   134    1
    26   137   138    1
    27   127   128    2
    28   163   161   ar
    29   138   140   ar
    30   162   160   ar
    31    72    70    1
    32    57    56    1
    33   149   148    1
    34   211   212    1
    35   211   210    1
    36   161   159   ar
    37   209   210    1
    38   209   206    1
    39    71    70    1
    40    70    69    2
    41   160   159   ar
    42   148   147    1
    43   212   213    2
    44    56    55    1
    45   215   213    1
    46   159   158    1
    47   206   205    1
    48   206   207    1
    49    55    52    1
    50   141   142    1
    51   157   156    2
    52   213   214    1
    53   142   145    1
    54   142   143    1
    55   146   145    1
    56   146   147    1
    57    69    68    1
    58   208   207    2
    59   166   167    1
    60   166   169    1
    61   166   165    1
    62   207   216   am
    63   156   165   am
    64   156   155    1
    65   167   168    2
    66   158   155    1
    67   169   170    1
    68    52    53    1
    69    52    51    1
    70   154   155    1
    71   154   152   am
    72   143   144    2
    73    53    54    2
    74    68    67    1
    75   151   152    1
    76   151   150    1
    77   216   217    1
    78   152   153    2
    79    51    49   am
    80   170   171    1
    81   170   172    1
    82    67    66    1
    83   217   218    1
    84   217   220    1
    85   200   199    2
    86   218   219    2
    87    49    50    2
    88    49    48    1
    89   199   198    1
    90   198   201    1
    91   198   197    1
    92   184   182    1
    93    66    63    1
    94   176   175    2
    95   182   181    1
    96    95    96   ar
    97    95    93   ar
    98    96    94   ar
    99   201   203    1
   100   201   202    1
   101    48    47    1
   102   183   181    1
   103   173   174    1
   104    62    63    1
   105   188   187    2
   106   181   178    1
   107   175   174    1
   108   175   177   am
   109    63    64    1
   110    93    90   ar
   111   178   177    1
   112   178   179    1
   113    94    92   ar
   114    22    20   am
   115   202   204    1
   116    47    38   am
   117   185   179   am
   118   185   186    1
   119   196   194   am
   120   187   186    1
   121   179   180    2
   122    64    65    2
   123    64    73   am
   124    90    92   ar
   125    90    88   ar
   126    92    91   ar
   127    20    21    2
   128    20    19    1
   129    39    38    2
   130    38    37    1
   131   189   190    1
   132   192   191    2
   133   193   194    1
   134   193   190    1
   135    76    75    2
   136   194   195    2
   137    73    74    1
   138   118   117    1
   139    19    18    1
   140    88    87    1
   141    88    89   ar
   142   190   191    1
   143    91    89   ar
   144    75    74    1
   145    75    83   am
   146    87    84    1
   147    37    40    1
   148    37    36    1
   149   114   113    2
   150    40    41    1
   151    74    77    1
   152    84    83    1
   153    84    85    1
   154   121   120    1
   155   121   122    2
   156   120   123    1
   157   120   119    1
   158    18    15    1
   159    42    41    1
   160    42    43    1
   161   117   116    1
   162    77    78    1
   163   113   119   am
   164   113   112    1
   165    36    34   am
   166   124   123    1
   167   115   116    1
   168   115   112    1
   169   109   107   ar
   170   109   110   ar
   171    85    86    2
   172    80    78   ar
   173    80    82   ar
   174    15    16    1
   175    15    14    1
   176    78    79   ar
   177    43    44    2
   178   112   111    1
   179    35    34    2
   180   111    99   am
   181    34    33    1
   182   107   104   ar
   183    17    16    2
   184   110   108   ar
   185    14     9   am
   186    44    45    1
   187    44    46    1
   188    82    81   ar
   189    98    99    1
   190    98    97    1
   191    98   101    1
   192    12    11    1
   193    79    81   ar
   194    99   100    2
   195    33    32    1
   196     6     5    1
   197   104   106   ar
   198   104   102   ar
   199    31    29   am
   200   108   106   ar
   201     9    10    2
   202     9     8    1
   203    30    29    2
   204   101   102    1
   205   106   105   ar
   206    11     8    1
   207    11    13    1
   208    29    28    1
   209   102   103   ar
   210     5     2    1
   211     8     7    1
   212     7     3   am
   213   105   103   ar
   214     3     2    1
   215     3     4    2
   216     2     1    1
   217    28    27    1
   218    27    24    1
   219    24    23    1
   220    24    25    1
   221    26    25    2
