@<TRIPOS>MOLECULE
tmp/6apzA00.pdb
 153 143 0 0 0
SMALL
GASTEIGER

@<TRIPOS>ATOM
      1  N         27.0780   81.5730   61.4570 N.3   114  VAL114     -0.1245
      2  CA        28.0420   81.2650   60.4070 C.3   114  VAL114      0.1561
      3  C         27.5960   79.9720   59.7490 C.2   114  VAL114      0.2260
      4  O         27.3050   78.9870   60.4360 O.2   114  VAL114     -0.2867
      5  CB        29.4700   81.1180   60.9590 C.3   114  VAL114      0.0252
      6  CG1       30.4720   81.1400   59.8280 C.3   114  VAL114      0.0019
      7  CG2       29.7810   82.2370   61.9290 C.3   114  VAL114      0.0019
      8  N         36.6950   78.8750   56.0160 N.3   270  ASP270     -0.1225
      9  CA        37.1020   77.6480   56.6980 C.3   270  ASP270      0.1805
     10  C         36.0360   76.5600   56.7430 C.2   270  ASP270      0.2598
     11  O         36.3700   75.4040   57.0300 O.2   270  ASP270     -0.2718
     12  CB        37.5180   77.9750   58.1190 C.3   270  ASP270      0.1424
     13  CG        38.9290   78.4290   58.1950 C.2   270  ASP270      0.3668
     14  OD1       39.4510   78.5770   59.3200 O.co2 270  ASP270     -0.2456
     15  OD2       39.5250   78.6310   57.1200 O.co2 270  ASP270     -0.2456
     16  N         34.7700   76.8850   56.5000 N.am  271  SER271     -0.1952
     17  CA        33.7200   75.8840   56.6080 C.3   271  SER271      0.1924
     18  C         33.2760   75.3330   55.2540 C.2   271  SER271      0.2314
     19  O         32.2910   74.5880   55.2000 O.2   271  SER271     -0.2863
     20  CB        32.5240   76.4530   57.3830 C.3   271  SER271      0.2116
     21  OG        31.8100   77.4320   56.6390 O.3   271  SER271     -0.2180
     22  N         31.8430   85.9990   54.3940 N.3   325  ARG325     -0.1245
     23  CA        33.2510   85.8820   54.7520 C.3   325  ARG325      0.1563
     24  C         34.0290   85.4730   53.5040 C.2   325  ARG325      0.2260
     25  O         33.8660   84.3490   53.0010 O.2   325  ARG325     -0.2867
     26  CB        33.4840   84.8960   55.8890 C.3   325  ARG325      0.0307
     27  CG        34.9750   84.8270   56.2300 C.3   325  ARG325      0.0489
     28  CD        35.2660   84.2070   57.5940 C.3   325  ARG325      0.2205
     29  NE        34.8130   82.8270   57.6270 N.pl3 325  ARG325     -0.0865
     30  CZ        34.9840   81.9930   58.6440 C.cat 325  ARG325      0.5346
     31  NH1       35.6230   82.3810   59.7460 N.pl3 325  ARG325      0.1354
     32  NH2       34.5080   80.7640   58.5500 N.pl3 325  ARG325      0.1354
     33  N         38.3460   89.8920   61.6630 N.3   415  MET415     -0.1245
     34  CA        38.6410   88.7920   62.5710 C.3   415  MET415      0.1570
     35  C         39.9240   89.1120   63.3120 C.2   415  MET415      0.2261
     36  O         40.9100   89.5480   62.7100 O.2   415  MET415     -0.2867
     37  CB        38.8040   87.4690   61.8350 C.3   415  MET415      0.0387
     38  CG        37.6070   87.0600   61.0190 C.3   415  MET415      0.0595
     39  SD        36.1530   86.7350   62.0080 S.3   415  MET415     -0.1393
     40  CE        36.8010   85.5220   63.1740 C.3   415  MET415      0.0692
     41  N         42.2210   86.9830   64.8790 N.3   417  GLU417     -0.1245
     42  CA        42.4640   85.5570   64.9910 C.3   417  GLU417      0.1567
     43  C         43.8880   85.2020   64.5710 C.2   417  GLU417      0.2260
     44  O         44.1620   84.0300   64.2570 O.2   417  GLU417     -0.2867
     45  CB        41.4370   84.7850   64.1640 C.3   417  GLU417      0.0388
     46  CG        41.4690   85.0810   62.6720 C.3   417  GLU417      0.1160
     47  CD        40.4640   84.2260   61.8960 C.2   417  GLU417      0.3649
     48  OE1       40.2500   84.4700   60.6850 O.co2 417  GLU417     -0.2457
     49  OE2       39.8900   83.2870   62.4970 O.co2 417  GLU417     -0.2457
     50  N         38.4370   85.2550   66.7710 N.3   442  GLY442     -0.1210
     51  CA        38.3820   83.9080   66.2220 C.3   442  GLY442      0.1956
     52  C         39.3560   82.9970   66.9550 C.2   442  GLY442      0.2612
     53  O         40.4220   82.6580   66.4210 O.2   442  GLY442     -0.2717
     54  N         38.9900   82.5960   68.1830 N.am  443  PHE443     -0.1962
     55  CA        39.9430   81.9750   69.1020 C.3   443  PHE443      0.1771
     56  C         40.5270   80.6770   68.5510 C.2   443  PHE443      0.2619
     57  O         41.6450   80.2960   68.9120 O.2   443  PHE443     -0.2715
     58  CB        39.2680   81.7160   70.4550 C.3   443  PHE443      0.0574
     59  CG        38.3430   80.5130   70.4680 C.ar  443  PHE443     -0.0200
     60  CD1       38.7440   79.3190   71.0530 C.ar  443  PHE443     -0.0042
     61  CD2       37.0750   80.5840   69.9100 C.ar  443  PHE443     -0.0042
     62  CE1       37.9020   78.2210   71.0720 C.ar  443  PHE443     -0.0003
     63  CE2       36.2300   79.4980   69.9170 C.ar  443  PHE443     -0.0003
     64  CZ        36.6400   78.3110   70.5020 C.ar  443  PHE443     -0.0000
     65  N         39.7920   79.9650   67.7050 N.am  444  LEU444     -0.1963
     66  CA        40.3370   78.7140   67.2040 C.3   444  LEU444      0.1728
     67  C         41.5530   78.9790   66.3250 C.2   444  LEU444      0.2616
     68  O         42.6570   78.5120   66.6300 O.2   444  LEU444     -0.2715
     69  CB        39.2530   77.9280   66.4800 C.3   444  LEU444      0.0311
     70  CG        38.2160   77.5340   67.5290 C.3   444  LEU444      0.0022
     71  CD1       36.8570   77.1560   66.9360 C.3   444  LEU444      0.0001
     72  CD2       38.7500   76.4050   68.3430 C.3   444  LEU444      0.0001
     73  N         41.3820   79.7660   65.2480 N.am  445  ASP445     -0.1971
     74  CA        42.5450   80.2050   64.4740 C.3   445  ASP445      0.1709
     75  C         43.5890   80.8280   65.3970 C.2   445  ASP445      0.2293
     76  O         44.7810   80.5040   65.3140 O.2   445  ASP445     -0.2864
     77  CB        42.1400   81.2070   63.3750 C.3   445  ASP445      0.1436
     78  CG        41.8660   80.5390   62.0080 C.2   445  ASP445      0.3671
     79  OD1       40.8560   80.8850   61.3320 O.co2 445  ASP445     -0.2456
     80  OD2       42.6610   79.6780   61.5870 O.co2 445  ASP445     -0.2456
     81  N         33.5210   84.0920   69.9420 N.3   497  GLY497     -0.1210
     82  CA        33.6810   82.9410   69.0710 C.3   497  GLY497      0.1956
     83  C         32.6290   81.8440   69.1690 C.2   497  GLY497      0.2611
     84  O         31.5920   81.9680   69.8230 O.2   497  GLY497     -0.2717
     85  N         32.9390   80.7270   68.5160 N.am  498  MET498     -0.1979
     86  CA        31.9470   79.7440   68.0950 C.3   498  MET498      0.1605
     87  C         31.7620   78.6260   69.1190 C.2   498  MET498      0.2287
     88  O         32.7300   78.1400   69.7130 O.2   498  MET498     -0.2864
     89  CB        32.3500   79.1410   66.7420 C.3   498  MET498      0.0413
     90  CG        31.4830   77.9500   66.3240 C.3   498  MET498      0.0598
     91  SD        29.8340   78.4300   65.7760 S.3   498  MET498     -0.1393
     92  CE        30.1680   79.0340   64.1110 C.3   498  MET498      0.0692
     93  N         31.1650   74.9410   69.3740 N.3   500  THR500     -0.1218
     94  CA        31.3790   73.8200   68.4710 C.3   500  THR500      0.1862
     95  C         30.6120   72.5520   68.8540 C.2   500  THR500      0.2287
     96  O         30.5070   71.6390   68.0230 O.2   500  THR500     -0.2866
     97  CB        32.8640   73.4900   68.4220 C.3   500  THR500      0.1770
     98  OG1       33.3570   73.4030   69.7680 O.3   500  THR500     -0.2211
     99  CG2       33.6250   74.5700   67.6540 C.3   500  THR500      0.0375
    100  N         29.1240   83.7330   68.0930 N.3   524  TRP524     -0.1241
    101  CA        28.9210   82.8540   66.9430 C.3   524  TRP524      0.1605
    102  C         28.2190   81.5610   67.3370 C.2   524  TRP524      0.2264
    103  O         28.6100   80.8910   68.3010 O.2   524  TRP524     -0.2867
    104  CB        30.2580   82.5360   66.2530 C.3   524  TRP524      0.0550
    105  CG        30.7070   83.6240   65.2980 C.ar  524  TRP524      0.0003
    106  CD1       30.1490   84.8660   65.1510 C.ar  524  TRP524      0.0946
    107  CD2       31.7920   83.5620   64.3550 C.ar  524  TRP524      0.0152
    108  NE1       30.8240   85.5790   64.1890 N.ar  524  TRP524     -0.2442
    109  CE2       31.8310   84.8040   63.6810 C.ar  524  TRP524      0.0810
    110  CE3       32.7260   82.5750   64.0060 C.ar  524  TRP524      0.0012
    111  CZ2       32.7710   85.0860   62.6820 C.ar  524  TRP524      0.0191
    112  CZ3       33.6610   82.8600   63.0190 C.ar  524  TRP524      0.0001
    113  CH2       33.6760   84.1040   62.3710 C.ar  524  TRP524      0.0015
    114  N         26.3490   77.8780   65.4660 N.3   526  PRO526     -0.2116
    115  CA        26.4960   77.0740   64.2440 C.3   526  PRO526      0.1372
    116  C         25.1930   76.5730   63.6450 C.2   526  PRO526      0.2244
    117  O         25.2440   75.9070   62.6090 O.2   526  PRO526     -0.2868
    118  CB        27.3280   75.8960   64.7530 C.3   526  PRO526      0.0268
    119  CG        26.8380   75.7020   66.1580 C.3   526  PRO526      0.0207
    120  CD        26.3230   77.0260   66.6640 C.3   526  PRO526      0.0892
    121  N         32.9400   71.4070   56.4730 N.3   602  ALA602     -0.1245
    122  CA        32.5050   71.5130   57.8610 C.3   602  ALA602      0.1562
    123  C         31.7490   70.2430   58.2030 C.2   602  ALA602      0.2260
    124  O         30.6920   69.9820   57.6250 O.2   602  ALA602     -0.2867
    125  CB        31.6170   72.7360   58.0840 C.3   602  ALA602      0.0290
    126  N         31.5590   70.3140   65.8080 N.3   614  MET614     -0.1245
    127  CA        31.5380   70.9020   64.4750 C.3   614  MET614      0.1570
    128  C         32.9570   71.3450   64.1530 C.2   614  MET614      0.2261
    129  O         33.4690   72.3060   64.7390 O.2   614  MET614     -0.2867
    130  CB        30.5520   72.0670   64.3960 C.3   614  MET614      0.0387
    131  CG        30.4120   72.6860   62.9780 C.3   614  MET614      0.0595
    132  SD        29.7230   71.5500   61.7170 S.3   614  MET614     -0.1393
    133  CE        28.0280   71.3610   62.2910 C.3   614  MET614      0.0692
    134  N         35.9140   72.7470   61.5850 N.3   616  ASP616     -0.1239
    135  CA        36.3250   73.3590   60.3210 C.3   616  ASP616      0.1674
    136  C         37.8500   73.5240   60.2770 C.2   616  ASP616      0.2266
    137  O         38.5440   72.9620   61.1270 O.2   616  ASP616     -0.2867
    138  CB        35.5660   74.6680   60.0940 C.3   616  ASP616      0.1410
    139  CG        36.1380   75.8580   60.8660 C.2   616  ASP616      0.3668
    140  OD1       36.9980   75.6900   61.7680 O.co2 616  ASP616     -0.2456
    141  OD2       35.6730   76.9880   60.5620 O.co2 616  ASP616     -0.2456
    142  N         39.8660   75.6960   61.1800 N.3   618  ALA618     -0.1231
    143  CA        40.5340   76.2780   62.3380 C.3   618  ALA618      0.1694
    144  C         40.8010   75.2120   63.3880 C.2   618  ALA618      0.2592
    145  O         41.9130   75.1070   63.9170 O.2   618  ALA618     -0.2718
    146  CB        39.7050   77.4220   62.9190 C.3   618  ALA618      0.0304
    147  N         39.7900   74.3990   63.6940 N.am  619  THR619     -0.1953
    148  CA        39.9830   73.3340   64.6620 C.3   619  THR619      0.1897
    149  C         40.9730   72.3040   64.1410 C.2   619  THR619      0.2313
    150  O         41.7330   71.7330   64.9240 O.2   619  THR619     -0.2863
    151  CB        38.6340   72.6980   65.0160 C.3   619  THR619      0.1794
    152  OG1       38.1860   71.8720   63.9410 O.3   619  THR619     -0.2208
    153  CG2       37.5840   73.7710   65.2430 C.3   619  THR619      0.0378
@<TRIPOS>BOND
     1    25    24    2
     2    24    23    1
     3    22    23    1
     4    23    26    1
     5    19    18    2
     6    18    17    1
     7    26    27    1
     8     8     9    1
     9    27    28    1
    10   121   122    1
    11    16    17    1
    12    16    10   am
    13    17    20    1
    14    21    20    1
    15     9    10    1
    16     9    12    1
    17    10    11    2
    18    15    13   ar
    19    28    29    1
    20   124   123    2
    21    29    30    2
    22   122   125    1
    23   122   123    1
    24    12    13    1
    25    13    14   ar
    26    32    30    1
    27    30    31    1
    28     3     2    1
    29     3     4    2
    30     6     5    1
    31   138   135    1
    32   138   139    1
    33   136   135    1
    34   136   137    2
    35   135   134    1
    36     2     5    1
    37     2     1    1
    38   141   139   ar
    39    48    47   ar
    40   139   140   ar
    41     5     7    1
    42    38    37    1
    43    38    39    1
    44   142   143    1
    45    79    78   ar
    46    80    78   ar
    47    33    34    1
    48   132   133    1
    49   132   131    1
    50    37    34    1
    51    47    49   ar
    52    47    46    1
    53    39    40    1
    54    78    77    1
    55   143   146    1
    56   143   144    1
    57   113   111   ar
    58   113   112   ar
    59    34    35    1
    60   117   116    2
    61    46    45    1
    62   111   109   ar
    63    36    35    2
    64   131   130    1
    65   112   110   ar
    66    77    74    1
    67   144   147   am
    68   144   145    2
    69   116   115    1
    70   109   108   ar
    71   109   107   ar
    72   147   148    1
    73   152   151    1
    74   110   107   ar
    75    92    91    1
    76   149   148    1
    77   149   150    2
    78   128   127    1
    79   128   129    2
    80    45    42    1
    81   108   106   ar
    82   115   118    1
    83   115   114    1
    84    44    43    2
    85   107   105   ar
    86   130   127    1
    87    74    73    1
    88    74    75    1
    89   127   126    1
    90    43    42    1
    91   148   151    1
    92   118   119    1
    93    41    42    1
    94   151   153    1
    95   106   105   ar
    96    73    67   am
    97   105   104    1
    98    76    75    2
    99   114   120    1
   100    91    90    1
   101   119   120    1
   102    51    50    1
   103    51    52    1
   104   104   101    1
   105    90    89    1
   106    67    68    2
   107    67    66    1
   108    53    52    2
   109    69    66    1
   110    69    70    1
   111    89    86    1
   112    71    70    1
   113   101   102    1
   114   101   100    1
   115    52    54   am
   116    66    65    1
   117   102   103    2
   118    70    72    1
   119    99    97    1
   120    65    56   am
   121    96    95    2
   122    86    85    1
   123    86    87    1
   124    54    55    1
   125    97    94    1
   126    97    98    1
   127    94    95    1
   128    94    93    1
   129    85    83   am
   130    56    57    2
   131    56    55    1
   132    82    83    1
   133    82    81    1
   134    55    58    1
   135    87    88    2
   136    83    84    2
   137    61    63   ar
   138    61    59   ar
   139    63    64   ar
   140    58    59    1
   141    59    60   ar
   142    64    62   ar
   143    60    62   ar
