@<TRIPOS>MOLECULE
tmp/6apzA04.pdb
 72 65 0 0 0
SMALL
GASTEIGER

@<TRIPOS>ATOM
      1  N         42.0860   72.7580   31.1580 N.3     1  THR1       -0.1218
      2  CA        40.8500   73.5160   31.3650 C.3     1  THR1        0.1862
      3  C         40.7480   74.7440   30.4190 C.2     1  THR1        0.2287
      4  O         41.7090   75.5100   30.2270 O.2     1  THR1       -0.2866
      5  CB        40.7130   73.9530   32.8630 C.3     1  THR1        0.1770
      6  OG1       39.5400   74.7660   33.0420 O.3     1  THR1       -0.2211
      7  CG2       41.9540   74.6980   33.3360 C.3     1  THR1        0.0375
      8  N         39.8390   78.3000   28.9150 N.3     3  ARG3       -0.1245
      9  CA        39.9510   79.5920   29.5510 C.3     3  ARG3        0.1563
     10  C         39.6660   80.6870   28.5370 C.2     3  ARG3        0.2260
     11  O         39.7460   80.4830   27.3230 O.2     3  ARG3       -0.2867
     12  CB        41.3340   79.7650   30.1720 C.3     3  ARG3        0.0307
     13  CG        41.7190   78.6260   31.1050 C.3     3  ARG3        0.0489
     14  CD        43.0150   78.9190   31.8230 C.3     3  ARG3        0.2205
     15  NE        43.2240   77.9520   32.8880 N.pl3   3  ARG3       -0.0865
     16  CZ        42.7680   78.0910   34.1230 C.cat   3  ARG3        0.5346
     17  NH1       42.0950   79.1820   34.4660 N.pl3   3  ARG3        0.1354
     18  NH2       43.0000   77.1410   35.0120 N.pl3   3  ARG3        0.1354
     19  N         38.8790   80.7220   33.8200 N.3    12  ALA12      -0.1245
     20  CA        38.1830   79.4570   33.6240 C.3    12  ALA12       0.1562
     21  C         36.7890   79.7150   33.0770 C.2    12  ALA12       0.2260
     22  O         36.0720   80.5990   33.5680 O.2    12  ALA12      -0.2867
     23  CB        38.0990   78.6840   34.9390 C.3    12  ALA12       0.0290
     24  N         33.8580   78.2520   33.0620 N.3    14  VAL14      -0.1245
     25  CA        32.6680   78.1890   33.9120 C.3    14  VAL14       0.1561
     26  C         32.5440   79.4440   34.7730 C.2    14  VAL14       0.2260
     27  O         31.4280   79.9090   35.0570 O.2    14  VAL14      -0.2867
     28  CB        32.6720   76.9080   34.7720 C.3    14  VAL14       0.0252
     29  CG1       33.9080   76.8610   35.6540 C.3    14  VAL14       0.0019
     30  CG2       31.3540   76.7990   35.6030 C.3    14  VAL14       0.0019
     31  N         38.5960   74.8980   42.9970 N.3   276  ASP276     -0.1225
     32  CA        38.7580   75.2600   41.5960 C.3   276  ASP276      0.1805
     33  C         37.6250   76.1940   41.1920 C.2   276  ASP276      0.2598
     34  O         36.8650   76.6910   42.0300 O.2   276  ASP276     -0.2718
     35  CB        38.7970   74.0170   40.6960 C.3   276  ASP276      0.1424
     36  CG        37.7290   72.9990   41.0570 C.2   276  ASP276      0.3668
     37  OD1       36.6010   73.4340   41.3810 O.co2 276  ASP276     -0.2456
     38  OD2       38.0020   71.7670   40.9820 O.co2 276  ASP276     -0.2456
     39  N         37.5030   76.4250   39.8900 N.am  277  ALA277     -0.1966
     40  CA        36.4450   77.3080   39.4220 C.3   277  ALA277      0.1728
     41  C         35.0740   76.6670   39.6140 C.2   277  ALA277      0.2616
     42  O         34.1220   77.3470   40.0020 O.2   277  ALA277     -0.2715
     43  CB        36.6910   77.6820   37.9640 C.3   277  ALA277      0.0334
     44  N         34.9590   75.3580   39.3750 N.am  278  ALA278     -0.1977
     45  CA        33.6750   74.6920   39.5600 C.3   278  ALA278      0.1597
     46  C         33.1590   74.9030   40.9780 C.2   278  ALA278      0.2287
     47  O         31.9930   75.2640   41.1790 O.2   278  ALA278     -0.2864
     48  CB        33.7860   73.1960   39.2420 C.3   278  ALA278      0.0319
     49  N         43.2980   78.4460   40.7880 N.3   334  ASP334     -0.1225
     50  CA        43.4860   78.3890   39.3440 C.3   334  ASP334      0.1805
     51  C         42.2140   78.7050   38.5780 C.2   334  ASP334      0.2597
     52  O         42.2120   78.6010   37.3450 O.2   334  ASP334     -0.2718
     53  CB        44.0470   77.0190   38.9230 C.3   334  ASP334      0.1424
     54  CG        42.9890   75.9250   38.8790 C.2   334  ASP334      0.3668
     55  OD1       43.1850   74.9220   38.1460 O.co2 334  ASP334     -0.2456
     56  OD2       41.9650   76.0660   39.5780 O.co2 334  ASP334     -0.2456
     57  N         41.1320   79.0880   39.2660 N.am  335  ALA335     -0.1979
     58  CA        39.9890   79.6250   38.5420 C.3   335  ALA335      0.1597
     59  C         40.4250   80.7540   37.6180 C.2   335  ALA335      0.2287
     60  O         39.8370   80.9360   36.5470 O.2   335  ALA335     -0.2864
     61  CB        38.9020   80.1040   39.5110 C.3   335  ALA335      0.0319
     62  N         42.3300   68.5850   45.0720 N.3   699  ARG699     -0.1245
     63  CA        42.5470   68.5730   43.6240 C.3   699  ARG699      0.1563
     64  C         43.1150   67.2380   43.1610 C.2   699  ARG699      0.2260
     65  O         42.7380   66.7260   42.0940 O.2   699  ARG699     -0.2867
     66  CB        43.4740   69.7210   43.2250 C.3   699  ARG699      0.0307
     67  CG        42.8470   71.1080   43.4460 C.3   699  ARG699      0.0489
     68  CD        43.8760   72.2270   43.3820 C.3   699  ARG699      0.2205
     69  NE        44.4170   72.4020   42.0270 N.pl3 699  ARG699     -0.0865
     70  CZ        43.7650   72.9980   41.0240 C.cat 699  ARG699      0.5346
     71  NH1       42.5430   73.4940   41.2130 N.pl3 699  ARG699      0.1354
     72  NH2       44.3410   73.1090   39.8290 N.pl3 699  ARG699      0.1354
@<TRIPOS>BOND
     1    11    10    2
     2    10     9    1
     3     8     9    1
     4     9    12    1
     5    12    13    1
     6     4     3    2
     7     3     2    1
     8    13    14    1
     9     1     2    1
    10     2     5    1
    11    14    15    1
    12     5     6    1
    13     5     7    1
    14    15    16    2
    15    24    25    1
    16    21    22    2
    17    21    20    1
    18    20    19    1
    19    20    23    1
    20    25    28    1
    21    25    26    1
    22    16    17    1
    23    16    18    1
    24    28    30    1
    25    28    29    1
    26    26    27    2
    27    60    59    2
    28    52    51    2
    29    59    58    1
    30    43    40    1
    31    55    54   ar
    32    58    57    1
    33    58    61    1
    34    51    57   am
    35    51    50    1
    36    54    53    1
    37    54    56   ar
    38    53    50    1
    39    48    45    1
    40    50    49    1
    41    44    45    1
    42    44    41   am
    43    40    41    1
    44    40    39    1
    45    45    46    1
    46    41    42    2
    47    72    70    1
    48    39    33   am
    49    35    36    1
    50    35    32    1
    51    46    47    2
    52    38    36   ar
    53    70    71    1
    54    70    69    2
    55    36    37   ar
    56    33    32    1
    57    33    34    2
    58    32    31    1
    59    69    68    1
    60    65    64    2
    61    64    63    1
    62    66    67    1
    63    66    63    1
    64    68    67    1
    65    63    62    1
