@<TRIPOS>MOLECULE
tmp/6apzA02.pdb
 98 93 0 0 0
SMALL
GASTEIGER

@<TRIPOS>ATOM
      1  N         56.5110   84.9550   56.5670 N.3    57  ASP57      -0.1239
      2  CA        57.5750   83.9570   56.6530 C.3    57  ASP57       0.1674
      3  C         58.8690   84.5410   57.2210 C.2    57  ASP57       0.2266
      4  O         59.4800   83.9700   58.1330 O.2    57  ASP57      -0.2867
      5  CB        57.8210   83.3760   55.2670 C.3    57  ASP57       0.1410
      6  CG        56.5920   82.7350   54.6930 C.2    57  ASP57       0.3668
      7  OD1       55.6270   82.5520   55.4670 O.co2  57  ASP57      -0.2456
      8  OD2       56.5940   82.4170   53.4810 O.co2  57  ASP57      -0.2456
      9  N         58.3290   84.9780   60.9340 N.3    60  GLN60      -0.1231
     10  CA        58.2680   83.7130   61.6560 C.3    60  GLN60       0.1698
     11  C         59.6450   83.0660   61.7700 C.2    60  GLN60       0.2592
     12  O         59.9630   82.4430   62.7920 O.2    60  GLN60      -0.2718
     13  CB        57.2920   82.7700   60.9630 C.3    60  GLN60       0.0381
     14  CG        57.0870   81.4590   61.7030 C.3    60  GLN60       0.0905
     15  CD        56.4650   81.6670   63.0630 C.2    60  GLN60       0.2608
     16  OE1       55.2580   81.8820   63.1750 O.2    60  GLN60      -0.2717
     17  NE2       57.2820   81.6010   64.1090 N.am   60  GLN60      -0.0878
     18  N         60.4730   83.1960   60.7250 N.am   61  ALA61      -0.1980
     19  CA        61.7880   82.5590   60.7210 C.3    61  ALA61       0.1597
     20  C         62.7390   83.2400   61.6980 C.2    61  ALA61       0.2287
     21  O         63.5580   82.5640   62.3330 O.2    61  ALA61      -0.2864
     22  CB        62.3800   82.5650   59.3120 C.3    61  ALA61       0.0319
     23  N         61.4890   81.9710   65.0860 N.3    64  ASP64      -0.1239
     24  CA        62.0350   80.6170   65.1780 C.3    64  ASP64       0.1674
     25  C         63.4890   80.6290   65.6560 C.2    64  ASP64       0.2266
     26  O         63.8190   80.0390   66.6890 O.2    64  ASP64      -0.2867
     27  CB        61.9380   79.9180   63.8190 C.3    64  ASP64       0.1410
     28  CG        60.5380   79.4510   63.4940 C.2    64  ASP64       0.3668
     29  OD1       60.3610   78.8230   62.4390 O.co2  64  ASP64      -0.2456
     30  OD2       59.6100   79.7040   64.2770 O.co2  64  ASP64      -0.2456
     31  N         65.4070   79.2760   69.2920 N.3    68  ARG68      -0.1245
     32  CA        66.4640   78.2690   69.2600 C.3    68  ARG68       0.1563
     33  C         67.7830   78.7840   69.8290 C.2    68  ARG68       0.2260
     34  O         68.6510   77.9720   70.1600 O.2    68  ARG68      -0.2867
     35  CB        66.6980   77.7770   67.8280 C.3    68  ARG68       0.0307
     36  CG        65.5970   76.9050   67.2220 C.3    68  ARG68       0.0489
     37  CD        66.0360   76.2910   65.8590 C.3    68  ARG68       0.2205
     38  NE        66.3170   77.2960   64.8270 N.pl3  68  ARG68      -0.0865
     39  CZ        65.5100   77.5950   63.8070 C.cat  68  ARG68       0.5346
     40  NH1       64.3390   76.9770   63.6510 N.pl3  68  ARG68       0.1354
     41  NH2       65.8690   78.5300   62.9410 N.pl3  68  ARG68       0.1354
     42  N         51.7950   77.8510   66.3060 N.3   452  HIS452     -0.1241
     43  CA        52.7960   77.9010   65.2470 C.3   452  HIS452      0.1621
     44  C         53.8510   78.9600   65.5330 C.2   452  HIS452      0.2264
     45  O         55.0550   78.6960   65.4230 O.2   452  HIS452     -0.2867
     46  CB        52.1570   78.1430   63.8800 C.3   452  HIS452      0.0745
     47  CG        53.1040   77.8630   62.7540 C.ar  452  HIS452      0.0817
     48  ND1       53.2790   76.6010   62.2270 N.ar  452  HIS452     -0.2268
     49  CD2       53.9930   78.6590   62.1190 C.ar  452  HIS452      0.1154
     50  CE1       54.2160   76.6370   61.2990 C.ar  452  HIS452      0.1986
     51  NE2       54.6560   77.8770   61.2060 N.ar  452  HIS452     -0.2212
     52  N         58.9610   76.7670   68.0620 N.3   456  GLU456     -0.1245
     53  CA        60.3250   76.3960   68.4180 C.3   456  GLU456      0.1567
     54  C         60.6270   76.5240   69.9100 C.2   456  GLU456      0.2260
     55  O         61.6540   76.0010   70.3580 O.2   456  GLU456     -0.2867
     56  CB        61.3290   77.2460   67.6270 C.3   456  GLU456      0.0388
     57  CG        61.3660   76.9690   66.1480 C.3   456  GLU456      0.1160
     58  CD        61.8330   75.5560   65.8140 C.2   456  GLU456      0.3649
     59  OE1       60.9760   74.6670   65.6400 O.co2 456  GLU456     -0.2457
     60  OE2       63.0610   75.3270   65.7250 O.co2 456  GLU456     -0.2457
     61  N         54.9350   71.8200   60.8530 N.3   683  ALA683     -0.1231
     62  CA        55.7990   72.9280   61.2470 C.3   683  ALA683      0.1694
     63  C         56.2500   73.7610   60.0540 C.2   683  ALA683      0.2592
     64  O         56.7090   74.8910   60.2390 O.2   683  ALA683     -0.2718
     65  CB        57.0250   72.4080   61.9950 C.3   683  ALA683      0.0304
     66  N         56.1250   73.2380   58.8370 N.am  684  GLN684     -0.1966
     67  CA        56.5790   73.9500   57.6550 C.3   684  GLN684      0.1733
     68  C         55.4530   74.6200   56.9020 C.2   684  GLN684      0.2616
     69  O         55.7160   75.2350   55.8670 O.2   684  GLN684     -0.2715
     70  CB        57.3310   73.0060   56.7060 C.3   684  GLN684      0.0408
     71  CG        58.5280   72.3210   57.3460 C.3   684  GLN684      0.0908
     72  CD        59.5090   73.3180   57.9610 C.2   684  GLN684      0.2608
     73  OE1       60.1180   73.0380   58.9870 O.2   684  GLN684     -0.2717
     74  NE2       59.6870   74.4660   57.3200 N.am  684  GLN684     -0.0878
     75  N         54.1900   74.4890   57.3690 N.am  685  GLN685     -0.1964
     76  CA        53.1290   75.2460   56.7200 C.3   685  GLN685      0.1718
     77  C         53.2110   76.7110   57.1470 C.2   685  GLN685      0.2458
     78  O         53.4380   77.0000   58.3250 O.2   685  GLN685     -0.2730
     79  CB        51.7540   74.6950   57.0800 C.3   685  GLN685      0.0407
     80  CG        51.4890   73.2620   56.6700 C.3   685  GLN685      0.0908
     81  CD        52.1170   72.8980   55.3430 C.2   685  GLN685      0.2608
     82  OE1       51.7610   73.4520   54.3020 O.2   685  GLN685     -0.2717
     83  NE2       53.0660   71.9540   55.3720 N.am  685  GLN685     -0.0878
     84  N         53.0140   77.6530   56.2250 N.am  686  PRO686     -0.2716
     85  CA        53.0690   79.0730   56.6090 C.3   686  PRO686      0.1536
     86  C         52.0430   79.3610   57.6920 C.2   686  PRO686      0.2598
     87  O         50.8420   79.1510   57.5060 O.2   686  PRO686     -0.2715
     88  CB        52.7470   79.8040   55.3030 C.3   686  PRO686      0.0310
     89  CG        51.9410   78.8030   54.5030 C.3   686  PRO686      0.0237
     90  CD        52.5490   77.4660   54.8390 C.3   686  PRO686      0.0939
     91  N         52.5340   79.7930   58.8520 N.am  687  ASN687     -0.1973
     92  CA        51.6820   80.1070   60.0010 C.3   687  ASN687      0.1688
     93  C         50.7680   78.9470   60.3660 C.2   687  ASN687      0.2292
     94  O         49.6880   79.1530   60.9320 O.2   687  ASN687     -0.2864
     95  CB        50.8540   81.3790   59.7560 C.3   687  ASN687      0.1181
     96  CG        51.7190   82.5660   59.3130 C.2   687  ASN687      0.2629
     97  OD1       51.5540   83.0780   58.2100 O.2   687  ASN687     -0.2716
     98  ND2       52.6420   83.0010   60.1710 N.am  687  ASN687     -0.0877
@<TRIPOS>BOND
     1     8     6   ar
     2    82    81    2
     3    89    90    1
     4    89    88    1
     5     6     5    1
     6     6     7   ar
     7    90    84    1
     8     5     2    1
     9    88    85    1
    10    81    83   am
    11    81    80    1
    12    69    68    2
    13    84    85    1
    14    84    77   am
    15     1     2    1
    16    85    86    1
    17     2     3    1
    18    80    79    1
    19    70    71    1
    20    70    67    1
    21    76    79    1
    22    76    77    1
    23    76    75    1
    24    68    75   am
    25    68    67    1
    26    77    78    2
    27     3     4    2
    28    74    72   am
    29    71    72    1
    30    87    86    2
    31    67    66    1
    32    86    91   am
    33    72    73    2
    34    97    96    2
    35    66    63   am
    36    91    92    1
    37    22    19    1
    38    96    95    1
    39    96    98   am
    40    95    92    1
    41    92    93    1
    42    63    64    2
    43    63    62    1
    44    93    94    2
    45    19    18    1
    46    19    20    1
    47    18    11   am
    48    61    62    1
    49     9    10    1
    50    13    10    1
    51    13    14    1
    52    51    50   ar
    53    51    49   ar
    54    62    65    1
    55    50    48   ar
    56    10    11    1
    57    20    21    2
    58    14    15    1
    59    11    12    2
    60    49    47   ar
    61    48    47   ar
    62    29    28   ar
    63    47    46    1
    64    41    39    1
    65    15    16    2
    66    15    17   am
    67    28    27    1
    68    28    30   ar
    69    40    39    1
    70    39    38    2
    71    27    24    1
    72    46    43    1
    73    38    37    1
    74    23    24    1
    75    24    25    1
    76    43    44    1
    77    43    42    1
    78    45    44    2
    79    59    58   ar
    80    25    26    2
    81    60    58   ar
    82    58    57    1
    83    37    36    1
    84    57    56    1
    85    36    35    1
    86    56    53    1
    87    35    32    1
    88    52    53    1
    89    53    54    1
    90    32    31    1
    91    32    33    1
    92    33    34    2
    93    54    55    2
