@<TRIPOS>MOLECULE
tmp/6apzA03.pdb
 89 83 0 0 0
SMALL
GASTEIGER

@<TRIPOS>ATOM
      1  N         51.6110  101.4990   69.4050 N.3    90  GLU90      -0.1245
      2  CA        50.1840  101.7120   69.5770 C.3    90  GLU90       0.1567
      3  C         49.8320  103.1510   69.2090 C.2    90  GLU90       0.2260
      4  O         50.4600  104.0870   69.7190 O.2    90  GLU90      -0.2867
      5  CB        49.8030  101.4170   71.0220 C.3    90  GLU90       0.0388
      6  CG        48.3220  101.2640   71.2780 C.3    90  GLU90       0.1160
      7  CD        48.0520  100.8600   72.7070 C.2    90  GLU90       0.3649
      8  OE1       49.0540  100.6910   73.4400 O.co2  90  GLU90      -0.2457
      9  OE2       46.8630  100.7220   73.0970 O.co2  90  GLU90      -0.2457
     10  N         44.6070  107.5290   70.6950 N.3    93  ASP93      -0.1225
     11  CA        43.1910  107.1910   70.7530 C.3    93  ASP93       0.1805
     12  C         42.4430  107.7630   69.5530 C.2    93  ASP93       0.2597
     13  O         42.8610  108.7560   68.9450 O.2    93  ASP93      -0.2718
     14  CB        42.5820  107.7030   72.0570 C.3    93  ASP93       0.1424
     15  CG        42.9170  106.8140   73.2310 C.2    93  ASP93       0.3668
     16  OD1       43.0220  105.5860   73.0220 O.co2  93  ASP93      -0.2456
     17  OD2       43.0800  107.3370   74.3560 O.co2  93  ASP93      -0.2456
     18  N         41.3400  107.1050   69.1920 N.am   94  PHE94      -0.1976
     19  CA        40.5430  107.5400   68.0540 C.3    94  PHE94       0.1639
     20  C         39.1470  106.9470   68.1760 C.2    94  PHE94       0.2290
     21  O         38.8600  106.1610   69.0820 O.2    94  PHE94      -0.2864
     22  CB        41.1990  107.1410   66.7250 C.3    94  PHE94       0.0560
     23  CG        41.1770  105.6700   66.4700 C.ar   94  PHE94      -0.0200
     24  CD1       40.2140  105.1140   65.6310 C.ar   94  PHE94      -0.0042
     25  CD2       42.1020  104.8310   67.0890 C.ar   94  PHE94      -0.0042
     26  CE1       40.1690  103.7360   65.4070 C.ar   94  PHE94      -0.0003
     27  CE2       42.0730  103.4550   66.8620 C.ar   94  PHE94      -0.0003
     28  CZ        41.0950  102.9030   66.0270 C.ar   94  PHE94      -0.0000
     29  N         44.7270   97.7200   68.0830 N.3   426  LYS426     -0.1245
     30  CA        44.3260   99.1180   67.9630 C.3   426  LYS426      0.1561
     31  C         44.7190   99.6790   66.6060 C.2   426  LYS426      0.2260
     32  O         43.9060  100.3270   65.9310 O.2   426  LYS426     -0.2867
     33  CB        44.9490   99.9610   69.0770 C.3   426  LYS426      0.0271
     34  CG        44.5660  101.4650   69.0200 C.3   426  LYS426      0.0035
     35  CD        45.1700  102.2460   70.1950 C.3   426  LYS426      0.0206
     36  CE        44.4540  103.5750   70.4980 C.3   426  LYS426      0.1093
     37  NZ        44.7960  104.1130   71.8570 N.3   426  LYS426     -0.1314
     38  N         42.5050   98.3560   63.8830 N.3   429  ILE429     -0.1245
     39  CA        41.1830   98.9700   63.7860 C.3   429  ILE429      0.1561
     40  C         41.2820  100.3380   63.1270 C.2   429  ILE429      0.2260
     41  O         40.4670  100.6910   62.2610 O.2   429  ILE429     -0.2867
     42  CB        40.5380   99.0630   65.1800 C.3   429  ILE429      0.0252
     43  CG1       40.4000   97.6740   65.7950 C.3   429  ILE429      0.0019
     44  CG2       39.1890   99.7740   65.1160 C.3   429  ILE429      0.0019
     45  CD1       39.7170   97.7020   67.1220 C.3   429  ILE429      0.0001
     46  N         41.4260   92.0310   75.9610 N.3   478  HIS478     -0.1241
     47  CA        42.0920   93.0790   75.1920 C.3   478  HIS478      0.1621
     48  C         41.3130   93.4340   73.9280 C.2   478  HIS478      0.2264
     49  O         41.3270   94.5940   73.4940 O.2   478  HIS478     -0.2867
     50  CB        43.5090   92.6170   74.8620 C.3   478  HIS478      0.0745
     51  CG        44.2500   93.5250   73.9360 C.ar  478  HIS478      0.0817
     52  ND1       44.4270   93.2360   72.6000 N.ar  478  HIS478     -0.2268
     53  CD2       44.8940   94.6930   74.1590 C.ar  478  HIS478      0.1154
     54  CE1       45.1350   94.1980   72.0370 C.ar  478  HIS478      0.1986
     55  NE2       45.4330   95.0920   72.9610 N.ar  478  HIS478     -0.2212
     56  N         38.3920   95.7270   75.1080 N.3   481  ASP481     -0.1225
     57  CA        38.9090   97.0490   75.4450 C.3   481  ASP481      0.1805
     58  C         39.1840   97.8710   74.1930 C.2   481  ASP481      0.2597
     59  O         38.7830   99.0370   74.1020 O.2   481  ASP481     -0.2718
     60  CB        40.1850   96.9130   76.2740 C.3   481  ASP481      0.1424
     61  CG        39.9590   96.1770   77.5670 C.2   481  ASP481      0.3668
     62  OD1       38.7930   95.8370   77.8600 O.co2 481  ASP481     -0.2456
     63  OD2       40.9490   95.9310   78.2900 O.co2 481  ASP481     -0.2456
     64  N         39.8900   97.2820   73.2250 N.am  482  ALA482     -0.1979
     65  CA        40.1860   97.9900   71.9900 C.3   482  ALA482      0.1597
     66  C         38.9090   98.3320   71.2290 C.2   482  ALA482      0.2287
     67  O         38.7930   99.4190   70.6530 O.2   482  ALA482     -0.2864
     68  CB        41.1280   97.1580   71.1290 C.3   482  ALA482      0.0319
     69  N         37.1090  101.1790   73.1530 N.3   485  ALA485     -0.1231
     70  CA        37.8860  102.4130   73.1480 C.3   485  ALA485      0.1694
     71  C         37.9320  103.0620   71.7690 C.2   485  ALA485      0.2591
     72  O         38.2240  104.2580   71.6700 O.2   485  ALA485     -0.2718
     73  CB        39.3080  102.1530   73.6590 C.3   485  ALA485      0.0304
     74  N         37.6740  102.3110   70.7070 N.am  486  ALA486     -0.1980
     75  CA        37.5410  102.9060   69.3880 C.3   486  ALA486      0.1597
     76  C         36.1090  103.3260   69.1160 C.2   486  ALA486      0.2287
     77  O         35.7580  103.5950   67.9590 O.2   486  ALA486     -0.2864
     78  CB        38.0340  101.9350   68.3040 C.3   486  ALA486      0.0319
     79  N         41.6120   99.1140   80.8030 N.3   554  ARG554     -0.1245
     80  CA        42.6130   98.3980   80.0190 C.3   554  ARG554      0.1563
     81  C         43.0780   97.2400   80.8920 C.2   554  ARG554      0.2260
     82  O         43.8870   97.4020   81.8090 O.2   554  ARG554     -0.2867
     83  CB        43.7500   99.3010   79.5520 C.3   554  ARG554      0.0307
     84  CG        43.1910  100.5820   78.8870 C.3   554  ARG554      0.0489
     85  CD        44.2410  101.3340   78.0880 C.3   554  ARG554      0.2205
     86  NE        45.5950  100.9040   78.4320 N.pl3 554  ARG554     -0.0865
     87  CZ        46.4960  100.4200   77.5710 C.cat 554  ARG554      0.5346
     88  NH1       46.2200  100.2950   76.2730 N.pl3 554  ARG554      0.1354
     89  NH2       47.6990  100.0720   78.0120 N.pl3 554  ARG554      0.1354
@<TRIPOS>BOND
     1    41    40    2
     2    40    39    1
     3    39    38    1
     4    39    42    1
     5    44    42    1
     6    42    43    1
     7    26    24   ar
     8    26    28   ar
     9    24    23   ar
    10    43    45    1
    11    32    31    2
    12    28    27   ar
    13    23    22    1
    14    23    25   ar
    15    31    30    1
    16    22    19    1
    17    27    25   ar
    18    77    76    2
    19    30    29    1
    20    30    33    1
    21    19    20    1
    22    19    18    1
    23    20    21    2
    24    78    75    1
    25    13    12    2
    26    34    33    1
    27    34    35    1
    28    76    75    1
    29    18    12   am
    30     3     2    1
    31     3     4    2
    32    75    74    1
    33     1     2    1
    34    12    11    1
    35     2     5    1
    36    35    36    1
    37    36    37    1
    38    67    66    2
    39    10    11    1
    40    74    71   am
    41    11    14    1
    42     5     6    1
    43    68    65    1
    44    66    65    1
    45     6     7    1
    46    72    71    2
    47    71    70    1
    48    65    64    1
    49    54    52   ar
    50    54    55   ar
    51    14    15    1
    52    52    51   ar
    53     7     9   ar
    54     7     8   ar
    55    55    53   ar
    56    16    15   ar
    57    70    69    1
    58    70    73    1
    59    64    58   am
    60    15    17   ar
    61    49    48    2
    62    48    47    1
    63    51    53   ar
    64    51    50    1
    65    59    58    2
    66    58    57    1
    67    50    47    1
    68    56    57    1
    69    47    46    1
    70    57    60    1
    71    88    87    1
    72    60    61    1
    73    61    62   ar
    74    61    63   ar
    75    87    89    1
    76    87    86    2
    77    85    86    1
    78    85    84    1
    79    84    83    1
    80    83    80    1
    81    80    79    1
    82    80    81    1
    83    81    82    2
