@<TRIPOS>MOLECULE
tmp/6aq3B00.pdb
 184 173 0 0 0
SMALL
GASTEIGER

@<TRIPOS>ATOM
      1  N         23.6770  -20.4960   23.5770 N.3    13  LEU13      -0.1245
      2  CA        23.0630  -21.3480   24.5910 C.3    13  LEU13       0.1561
      3  C         24.0550  -21.6480   25.7130 C.2    13  LEU13       0.2260
      4  O         23.6990  -21.5960   26.8980 O.2    13  LEU13      -0.2867
      5  CB        22.5610  -22.6460   23.9550 C.3    13  LEU13       0.0270
      6  CG        22.0740  -23.7040   24.9510 C.3    13  LEU13       0.0019
      7  CD1       20.7480  -23.2660   25.6120 C.3    13  LEU13       0.0001
      8  CD2       21.9500  -25.0760   24.3080 C.3    13  LEU13       0.0001
      9  N         23.2920  -20.7840   29.6310 N.3    17  TYR17      -0.1241
     10  CA        23.3790  -21.8260   30.6540 C.3    17  TYR17       0.1605
     11  C         24.4650  -21.5310   31.6800 C.2    17  TYR17       0.2264
     12  O         24.2760  -21.7790   32.8740 O.2    17  TYR17      -0.2867
     13  CB        23.6480  -23.1760   30.0070 C.3    17  TYR17       0.0534
     14  CG        23.7100  -24.3040   31.0020 C.ar   17  TYR17      -0.0201
     15  CD1       22.5690  -24.7000   31.6850 C.ar   17  TYR17      -0.0009
     16  CD2       24.9090  -24.9890   31.2530 C.ar   17  TYR17      -0.0009
     17  CE1       22.6040  -25.7240   32.5890 C.ar   17  TYR17       0.0417
     18  CE2       24.9540  -26.0260   32.1720 C.ar   17  TYR17       0.0417
     19  CZ        23.7880  -26.3900   32.8330 C.ar   17  TYR17       0.1957
     20  OH        23.7740  -27.4120   33.7480 O.3    17  TYR17      -0.2866
     21  N         12.2390  -29.3180   30.9180 N.3    45  MET45      -0.1245
     22  CA        12.4970  -29.0020   29.5170 C.3    45  MET45       0.1570
     23  C         12.2580  -30.2150   28.6220 C.2    45  MET45       0.2261
     24  O         11.6880  -30.0820   27.5300 O.2    45  MET45      -0.2867
     25  CB        13.9190  -28.4750   29.3480 C.3    45  MET45       0.0387
     26  CG        14.0560  -27.0750   29.9040 C.3    45  MET45       0.0595
     27  SD        15.6850  -26.3200   29.8040 S.3    45  MET45      -0.1393
     28  CE        16.7200  -27.6300   29.2060 C.3    45  MET45       0.0692
     29  N          9.7920  -30.6860   25.3060 N.3    49  LEU49      -0.1231
     30  CA        10.4630  -30.7350   24.0060 C.3    49  LEU49       0.1693
     31  C         10.1630  -31.9690   23.1760 C.2    49  LEU49       0.2591
     32  O         10.3860  -31.9370   21.9630 O.2    49  LEU49      -0.2718
     33  CB        11.9810  -30.6970   24.1930 C.3    49  LEU49       0.0284
     34  CG        12.5660  -29.3140   24.3770 C.3    49  LEU49       0.0019
     35  CD1       14.0820  -29.4290   24.5180 C.3    49  LEU49       0.0001
     36  CD2       12.1490  -28.4160   23.2170 C.3    49  LEU49       0.0001
     37  N          9.7690  -33.0700   23.8130 N.am   50  ILE50      -0.1980
     38  CA         9.7470  -34.3710   23.1500 C.3    50  ILE50       0.1595
     39  C          8.8380  -34.3540   21.9250 C.2    50  ILE50       0.2287
     40  O          9.1310  -35.0060   20.9130 O.2    50  ILE50      -0.2864
     41  CB         9.3310  -35.4670   24.1540 C.3    50  ILE50       0.0276
     42  CG1        9.3590  -36.8490   23.4920 C.3    50  ILE50       0.0022
     43  CG2        7.9420  -35.1670   24.7230 C.3    50  ILE50       0.0022
     44  CD1       10.7500  -37.2740   23.0580 C.3    50  ILE50       0.0001
     45  N         10.4810  -32.6010   19.1730 N.3    53  PHE53      -0.1227
     46  CA        11.6060  -33.3940   18.7070 C.3    53  PHE53       0.1736
     47  C         11.1180  -34.5250   17.8100 C.2    53  PHE53       0.2595
     48  O         11.6780  -34.7530   16.7360 O.2    53  PHE53      -0.2718
     49  CB        12.4280  -33.9310   19.8730 C.3    53  PHE53       0.0547
     50  CG        13.4970  -34.9070   19.4510 C.ar   53  PHE53      -0.0202
     51  CD1       14.6970  -34.4470   18.9200 C.ar   53  PHE53      -0.0042
     52  CD2       13.2990  -36.2790   19.5640 C.ar   53  PHE53      -0.0042
     53  CE1       15.6890  -35.3280   18.5120 C.ar   53  PHE53      -0.0003
     54  CE2       14.2880  -37.1670   19.1560 C.ar   53  PHE53      -0.0003
     55  CZ        15.4930  -36.6830   18.6310 C.ar   53  PHE53      -0.0000
     56  N         10.0500  -35.2180   18.2040 N.am   54  MET54      -0.1979
     57  CA         9.5730  -36.3120   17.3620 C.3    54  MET54       0.1605
     58  C          9.1990  -35.8160   15.9720 C.2    54  MET54       0.2287
     59  O          9.5580  -36.4420   14.9730 O.2    54  MET54      -0.2864
     60  CB         8.3900  -37.0310   18.0080 C.3    54  MET54       0.0413
     61  CG         8.7150  -37.7250   19.3080 C.3    54  MET54       0.0598
     62  SD        10.0550  -38.9330   19.1770 S.3    54  MET54      -0.1393
     63  CE         9.6460  -39.7780   17.6430 C.3    54  MET54       0.0692
     64  N         10.3660  -44.1570   19.1010 N.3    64  CYS64      -0.1235
     65  CA        10.8070  -43.9860   20.4860 C.3    64  CYS64       0.1677
     66  C          9.9270  -44.7610   21.4410 C.2    64  CYS64       0.2270
     67  O          9.6670  -44.3150   22.5610 O.2    64  CYS64      -0.2867
     68  CB        10.8680  -42.5230   20.9230 C.3    64  CYS64       0.0956
     69  SG        12.2460  -41.5920   20.2830 S.3    64  CYS64      -0.0801
     70  N         15.9710  -45.9510   21.8730 N.3    70  THR70      -0.1218
     71  CA        16.1610  -44.5480   22.2090 C.3    70  THR70       0.1862
     72  C         17.6200  -44.1370   22.1430 C.2    70  THR70       0.2287
     73  O         17.9120  -42.9640   21.8800 O.2    70  THR70      -0.2866
     74  CB        15.5780  -44.2370   23.5940 C.3    70  THR70       0.1770
     75  OG1       16.3460  -44.8840   24.6110 O.3    70  THR70      -0.2211
     76  CG2       14.1290  -44.6990   23.6790 C.3    70  THR70       0.0375
     77  N         18.7040  -42.5780   18.8550 N.3    73  SER73      -0.1202
     78  CA        17.9620  -41.3440   18.6460 C.3    73  SER73       0.2020
     79  C         18.5700  -40.1980   19.4380 C.2    73  SER73       0.2618
     80  O         18.6670  -39.0670   18.9430 O.2    73  SER73      -0.2717
     81  CB        16.5110  -41.5620   19.0590 C.3    73  SER73       0.2103
     82  OG        15.9610  -42.5950   18.2800 O.3    73  SER73      -0.2182
     83  N         18.9800  -40.4740   20.6740 N.am   74  ILE74      -0.1979
     84  CA        19.5760  -39.4450   21.5120 C.3    74  ILE74       0.1595
     85  C         20.9930  -39.1330   21.0370 C.2    74  ILE74       0.2287
     86  O         21.3470  -37.9720   20.7910 O.2    74  ILE74      -0.2864
     87  CB        19.5510  -39.9000   22.9840 C.3    74  ILE74       0.0276
     88  CG1       18.0980  -40.0660   23.4660 C.3    74  ILE74       0.0022
     89  CG2       20.2870  -38.9030   23.8530 C.3    74  ILE74       0.0022
     90  CD1       17.9750  -40.8630   24.7560 C.3    74  ILE74       0.0001
     91  N         19.4110  -36.4590   18.5940 N.3    78  ALA78      -0.1231
     92  CA        19.2110  -35.4140   19.5930 C.3    78  ALA78       0.1694
     93  C         20.4930  -34.6420   19.8820 C.2    78  ALA78       0.2592
     94  O         20.4870  -33.4040   19.8710 O.2    78  ALA78      -0.2718
     95  CB        18.6460  -36.0070   20.8840 C.3    78  ALA78       0.0304
     96  N         21.6060  -35.3460   20.1500 N.am   79  PHE79      -0.1976
     97  CA        22.8480  -34.6340   20.4870 C.3    79  PHE79       0.1639
     98  C         23.3060  -33.7410   19.3450 C.2    79  PHE79       0.2290
     99  O         23.8490  -32.6560   19.5800 O.2    79  PHE79      -0.2864
    100  CB        23.9690  -35.5990   20.8770 C.3    79  PHE79       0.0560
    101  CG        24.0740  -35.8170   22.3500 C.ar   79  PHE79      -0.0200
    102  CD1       23.0030  -36.3220   23.0640 C.ar   79  PHE79      -0.0042
    103  CD2       25.2130  -35.4750   23.0310 C.ar   79  PHE79      -0.0042
    104  CE1       23.0850  -36.5100   24.4310 C.ar   79  PHE79      -0.0003
    105  CE2       25.3030  -35.6700   24.4110 C.ar   79  PHE79      -0.0003
    106  CZ        24.2300  -36.1770   25.1050 C.ar   79  PHE79      -0.0000
    107  N         20.5690  -30.5630   19.1230 N.3    82  PHE82      -0.1227
    108  CA        20.4990  -29.5420   20.1610 C.3    82  PHE82       0.1736
    109  C         21.8510  -28.9500   20.5090 C.2    82  PHE82       0.2595
    110  O         21.9290  -27.7490   20.8020 O.2    82  PHE82      -0.2718
    111  CB        19.8540  -30.1060   21.4330 C.3    82  PHE82       0.0547
    112  CG        18.4050  -30.4510   21.2780 C.ar   82  PHE82      -0.0202
    113  CD1       17.4730  -29.4640   20.9840 C.ar   82  PHE82      -0.0042
    114  CD2       17.9620  -31.7520   21.4690 C.ar   82  PHE82      -0.0042
    115  CE1       16.1210  -29.7760   20.8760 C.ar   82  PHE82      -0.0003
    116  CE2       16.6120  -32.0710   21.3540 C.ar   82  PHE82      -0.0003
    117  CZ        15.6920  -31.0810   21.0560 C.ar   82  PHE82      -0.0000
    118  N         22.9220  -29.7400   20.4400 N.am   83  LEU83      -0.1980
    119  CA        24.2420  -29.2650   20.8390 C.3    83  LEU83       0.1596
    120  C         25.2740  -29.2800   19.7250 C.2    83  LEU83       0.2287
    121  O         26.3750  -28.7710   19.9390 O.2    83  LEU83      -0.2864
    122  CB        24.7870  -30.1000   22.0050 C.3    83  LEU83       0.0297
    123  CG        24.0010  -30.0530   23.3150 C.3    83  LEU83       0.0022
    124  CD1       24.4930  -31.1500   24.2440 C.3    83  LEU83       0.0001
    125  CD2       24.0990  -28.6730   23.9890 C.3    83  LEU83       0.0001
    126  N         28.7850  -26.7330   26.0830 N.3   108  LEU108     -0.1245
    127  CA        28.4960  -26.1280   27.3750 C.3   108  LEU108      0.1561
    128  C         29.7550  -25.9690   28.2050 C.2   108  LEU108      0.2260
    129  O         29.7910  -25.1110   29.0900 O.2   108  LEU108     -0.2867
    130  CB        27.4610  -26.9360   28.1580 C.3   108  LEU108      0.0270
    131  CG        26.1160  -27.1920   27.4880 C.3   108  LEU108      0.0019
    132  CD1       25.2040  -27.9800   28.4420 C.3   108  LEU108      0.0001
    133  CD2       25.4970  -25.8590   27.0750 C.3   108  LEU108      0.0001
    134  N         21.9300  -30.8540   33.6930 N.3   128  ILE128     -0.1231
    135  CA        20.6730  -30.5650   33.0020 C.3   128  ILE128      0.1692
    136  C         20.4250  -31.5130   31.8270 C.2   128  ILE128      0.2591
    137  O         19.2760  -31.8690   31.5430 O.2   128  ILE128     -0.2718
    138  CB        20.6550  -29.0860   32.5520 C.3   128  ILE128      0.0266
    139  CG1       19.2520  -28.6820   32.0900 C.3   128  ILE128      0.0019
    140  CG2       21.6940  -28.8240   31.4500 C.3   128  ILE128      0.0020
    141  CD1       19.0310  -27.1510   32.0720 C.3   128  ILE128      0.0001
    142  N         21.4860  -31.9850   31.1680 N.am  129  ILE129     -0.1980
    143  CA        21.3060  -32.9060   30.0470 C.3   129  ILE129      0.1595
    144  C         20.6420  -34.1860   30.5220 C.2   129  ILE129      0.2287
    145  O         19.8310  -34.7790   29.8000 O.2   129  ILE129     -0.2864
    146  CB        22.6430  -33.2480   29.3530 C.3   129  ILE129      0.0276
    147  CG1       23.3760  -32.0280   28.7900 C.3   129  ILE129      0.0022
    148  CG2       22.3940  -34.2400   28.2300 C.3   129  ILE129      0.0022
    149  CD1       24.7280  -32.4250   28.0980 C.3   129  ILE129      0.0001
    150  N         16.8970  -33.5590   30.8550 N.3   132  VAL132     -0.1231
    151  CA        16.1890  -33.5050   29.5700 C.3   132  VAL132      0.1692
    152  C         15.9370  -34.9230   29.0600 C.2   132  VAL132      0.2591
    153  O         14.8220  -35.2630   28.6360 O.2   132  VAL132     -0.2718
    154  CB        16.9840  -32.6560   28.5550 C.3   132  VAL132      0.0266
    155  CG1       16.3370  -32.6550   27.2030 C.3   132  VAL132      0.0020
    156  CG2       17.1780  -31.2240   29.0530 C.3   132  VAL132      0.0020
    157  N         16.9460  -35.7930   29.1630 N.am  133  ILE133     -0.1980
    158  CA        16.7680  -37.1830   28.7600 C.3   133  ILE133      0.1595
    159  C         15.6830  -37.8450   29.5970 C.2   133  ILE133      0.2287
    160  O         14.7830  -38.4990   29.0750 O.2   133  ILE133     -0.2864
    161  CB        18.0890  -37.9520   28.8880 C.3   133  ILE133      0.0276
    162  CG1       19.0770  -37.5420   27.7980 C.3   133  ILE133      0.0022
    163  CG2       17.8370  -39.4540   28.8730 C.3   133  ILE133      0.0022
    164  CD1       20.4810  -38.1790   28.0570 C.3   133  ILE133      0.0001
    165  N         12.1310  -36.3590   28.6640 N.3   136  ALA136     -0.1231
    166  CA        11.6000  -36.7670   27.3610 C.3   136  ALA136      0.1694
    167  C         11.1530  -38.2220   27.3850 C.2   136  ALA136      0.2591
    168  O         10.0610  -38.5460   26.9120 O.2   136  ALA136     -0.2718
    169  CB        12.6350  -36.5490   26.2460 C.3   136  ALA136      0.0304
    170  N         11.9760  -39.1150   27.9490 N.am  137  LEU137     -0.1980
    171  CA        11.6190  -40.5330   27.9770 C.3   137  LEU137      0.1596
    172  C         10.4370  -40.8140   28.9180 C.2   137  LEU137      0.2287
    173  O          9.6810  -41.7680   28.6850 O.2   137  LEU137     -0.2864
    174  CB        12.8310  -41.3750   28.3830 C.3   137  LEU137      0.0297
    175  CG        14.0040  -41.4620   27.3870 C.3   137  LEU137      0.0022
    176  CD1       15.0750  -42.3500   27.9430 C.3   137  LEU137      0.0001
    177  CD2       13.5500  -42.0140   26.0460 C.3   137  LEU137      0.0001
    178  N          7.4000  -40.5820   26.8940 N.3   140  VAL140     -0.1245
    179  CA         7.0370  -41.7310   26.0760 C.3   140  VAL140      0.1561
    180  C          6.9990  -42.9800   26.9490 C.2   140  VAL140      0.2260
    181  O          7.1670  -44.0900   26.4560 O.2   140  VAL140     -0.2867
    182  CB         7.9740  -41.8810   24.8630 C.3   140  VAL140      0.0252
    183  CG1        7.7280  -40.6990   23.9060 C.3   140  VAL140      0.0019
    184  CG2        9.4690  -42.0200   25.2830 C.3   140  VAL140      0.0019
@<TRIPOS>BOND
     1    59    58    2
     2    58    57    1
     3    48    47    2
     4    57    60    1
     5    57    56    1
     6    63    62    1
     7    47    56   am
     8    47    46    1
     9    60    61    1
    10    82    81    1
    11    53    55   ar
    12    53    51   ar
    13    91    92    1
    14    55    54   ar
    15    78    77    1
    16    78    81    1
    17    78    79    1
    18    46    45    1
    19    46    49    1
    20    51    50   ar
    21    80    79    2
    22    64    65    1
    23   107   108    1
    24    54    52   ar
    25    62    61    1
    26    98    99    2
    27    98    97    1
    28    79    83   am
    29    50    52   ar
    30    50    49    1
    31    92    93    1
    32    92    95    1
    33   120   121    2
    34   120   119    1
    35    94    93    2
    36    93    96   am
    37    96    97    1
    38   108   109    1
    39   108   111    1
    40    69    68    1
    41   118   109   am
    42   118   119    1
    43    65    68    1
    44    65    66    1
    45    97   100    1
    46   109   110    2
    47    83    84    1
    48    86    85    2
    49   119   122    1
    50   115   113   ar
    51   115   117   ar
    52   100   101    1
    53    40    39    2
    54   113   112   ar
    55    85    84    1
    56   117   116   ar
    57   112   111    1
    58   112   114   ar
    59   116   114   ar
    60    66    67    2
    61    84    87    1
    62    70    71    1
    63    73    72    2
    64    39    38    1
    65    32    31    2
    66   122   123    1
    67    72    71    1
    68    71    74    1
    69   101   103   ar
    70   101   102   ar
    71    87    88    1
    72    87    89    1
    73   103   105   ar
    74    44    42    1
    75   102   104   ar
    76    38    37    1
    77    38    41    1
    78    31    37   am
    79    31    30    1
    80    36    34    1
    81   123   125    1
    82   123   124    1
    83    88    90    1
    84    42    41    1
    85     1     2    1
    86    74    76    1
    87    74    75    1
    88   183   182    1
    89     5     2    1
    90     5     6    1
    91    30    33    1
    92    30    29    1
    93    41    43    1
    94    33    34    1
    95     8     6    1
    96    34    35    1
    97   105   106   ar
    98   104   106   ar
    99     2     3    1
   100   182   184    1
   101   182   179    1
   102     6     7    1
   103     3     4    2
   104   177   175    1
   105   179   178    1
   106   179   180    1
   107   126   127    1
   108   169   166    1
   109   181   180    2
   110   168   167    2
   111   133   131    1
   112   155   154    1
   113   166   167    1
   114   166   165    1
   115   127   130    1
   116   127   128    1
   117   167   170   am
   118   175   176    1
   119   175   174    1
   120   131   130    1
   121   131   132    1
   122    24    23    2
   123   162   164    1
   124   162   161    1
   125   170   171    1
   126   171   174    1
   127   171   172    1
   128   149   147    1
   129   128   129    2
   130   148   146    1
   131   154   156    1
   132   154   151    1
   133    23    22    1
   134   153   152    2
   135   173   172    2
   136   158   161    1
   137   158   157    1
   138   158   159    1
   139   147   146    1
   140   163   161    1
   141   152   157   am
   142   152   151    1
   143   160   159    2
   144    28    27    1
   145    25    22    1
   146    25    26    1
   147   146   143    1
   148    22    21    1
   149   151   150    1
   150     9    10    1
   151   145   144    2
   152    27    26    1
   153    13    10    1
   154    13    14    1
   155   143   144    1
   156   143   142    1
   157    10    11    1
   158    14    16   ar
   159    14    15   ar
   160   142   136   am
   161    16    18   ar
   162   140   138    1
   163   137   136    2
   164    11    12    2
   165    15    17   ar
   166   136   135    1
   167   141   139    1
   168   139   138    1
   169    18    19   ar
   170   138   135    1
   171    17    19   ar
   172    19    20    1
   173   135   134    1
