@<TRIPOS>MOLECULE
tmp/6aq4A00.pdb
 226 218 0 0 0
SMALL
GASTEIGER

@<TRIPOS>ATOM
      1  N        -20.4860   14.7750  -15.6860 N.3    10  LEU10      -0.1231
      2  CA       -20.8560   15.8940  -14.8250 C.3    10  LEU10       0.1693
      3  C        -21.3450   17.1210  -15.6060 C.2    10  LEU10       0.2592
      4  O        -20.6260   17.6530  -16.4530 O.2    10  LEU10      -0.2718
      5  CB       -19.6670   16.2750  -13.9310 C.3    10  LEU10       0.0284
      6  CG       -19.8050   17.5300  -13.0750 C.3    10  LEU10       0.0019
      7  CD1      -20.8880   17.3590  -11.9920 C.3    10  LEU10       0.0001
      8  CD2      -18.4640   17.8540  -12.4350 C.3    10  LEU10       0.0001
      9  N        -22.5660   17.5670  -15.3080 N.am   11  PHE11      -0.1962
     10  CA       -23.0790   18.8380  -15.8230 C.3    11  PHE11       0.1771
     11  C        -22.3380   19.9970  -15.1750 C.2    11  PHE11       0.2620
     12  O        -22.0610   19.9760  -13.9720 O.2    11  PHE11      -0.2715
     13  CB       -24.5620   19.0130  -15.4960 C.3    11  PHE11       0.0574
     14  CG       -25.5090   18.4590  -16.5280 C.ar   11  PHE11      -0.0200
     15  CD1      -25.6320   19.0530  -17.7810 C.ar   11  PHE11      -0.0042
     16  CD2      -26.3350   17.3810  -16.2120 C.ar   11  PHE11      -0.0042
     17  CE1      -26.5240   18.5540  -18.7090 C.ar   11  PHE11      -0.0003
     18  CE2      -27.2180   16.8800  -17.1350 C.ar   11  PHE11      -0.0003
     19  CZ       -27.3170   17.4730  -18.3930 C.ar   11  PHE11      -0.0000
     20  N        -22.0350   21.0160  -15.9650 N.am   12  CYS12      -0.1954
     21  CA       -21.5340   22.2690  -15.4190 C.3    12  CYS12       0.1828
     22  C        -22.0610   23.4180  -16.2690 C.2    12  CYS12       0.2467
     23  O        -21.7700   23.4840  -17.4560 O.2    12  CYS12      -0.2730
     24  CB       -20.0140   22.2890  -15.4270 C.3    12  CYS12       0.0996
     25  SG       -19.3150   23.8210  -14.7470 S.3    12  CYS12      -0.0797
     26  N        -22.8420   24.3290  -15.6680 N.am   13  PRO13      -0.2726
     27  CA       -23.3530   25.4670  -16.4390 C.3    13  PRO13       0.1402
     28  C        -22.1930   26.2330  -17.0880 C.2    13  PRO13       0.2269
     29  O        -21.1870   26.5110  -16.4190 O.2    13  PRO13      -0.2865
     30  CB       -24.0460   26.3360  -15.3750 C.3    13  PRO13       0.0296
     31  CG       -24.2890   25.4270  -14.2140 C.3    13  PRO13       0.0237
     32  CD       -23.1640   24.4330  -14.2360 C.3    13  PRO13       0.0939
     33  N        -20.2060   29.5150  -15.9140 N.3    16  ARG16      -0.1245
     34  CA       -19.3070   29.4160  -14.7650 C.3    16  ARG16       0.1563
     35  C        -17.9210   28.9090  -15.1770 C.2    16  ARG16       0.2260
     36  O        -17.4590   27.8980  -14.6550 O.2    16  ARG16      -0.2867
     37  CB       -19.9090   28.4690  -13.7160 C.3    16  ARG16       0.0307
     38  CG       -21.0550   29.0560  -12.9040 C.3    16  ARG16       0.0489
     39  CD       -20.5140   29.8410  -11.7160 C.3    16  ARG16       0.2205
     40  NE       -21.5570   30.5280  -10.9580 N.pl3  16  ARG16      -0.0865
     41  CZ       -22.1490   30.0380   -9.8710 C.cat  16  ARG16       0.5346
     42  NH1      -21.8100   28.8440   -9.4020 N.pl3  16  ARG16       0.1354
     43  NH2      -23.0860   30.7460   -9.2540 N.pl3  16  ARG16       0.1354
     44  N        -15.2380   27.2270  -13.1020 N.3    19  ARG19      -0.1245
     45  CA       -15.4860   25.8670  -12.6140 C.3    19  ARG19       0.1563
     46  C        -15.0980   24.7600  -13.5940 C.2    19  ARG19       0.2260
     47  O        -15.0210   23.5870  -13.2110 O.2    19  ARG19      -0.2867
     48  CB       -16.9530   25.7050  -12.1910 C.3    19  ARG19       0.0307
     49  CG       -17.2810   26.4930  -10.9300 C.3    19  ARG19       0.0489
     50  CD       -18.6770   26.2310  -10.4260 C.3    19  ARG19       0.2205
     51  NE       -18.9370   26.9870   -9.2030 N.pl3  19  ARG19      -0.0865
     52  CZ       -19.9750   26.7670   -8.4010 C.cat  19  ARG19       0.5346
     53  NH1      -20.8380   25.8070   -8.6910 N.pl3  19  ARG19       0.1354
     54  NH2      -20.1440   27.4930   -7.3000 N.pl3  19  ARG19       0.1354
     55  N        -12.1510   22.3250  -12.7040 N.3    22  LYS22      -0.1231
     56  CA       -12.4600   21.4370  -11.5890 C.3    22  LYS22       0.1693
     57  C        -13.4190   20.3340  -12.0450 C.2    22  LYS22       0.2591
     58  O        -13.2820   19.1690  -11.6550 O.2    22  LYS22      -0.2718
     59  CB       -13.0490   22.2280  -10.4130 C.3    22  LYS22       0.0285
     60  CG       -12.1160   23.3170   -9.8690 C.3    22  LYS22       0.0035
     61  CD       -12.7040   24.0450   -8.6540 C.3    22  LYS22       0.0206
     62  CE       -13.8870   24.9390   -9.0260 C.3    22  LYS22       0.1093
     63  NZ       -14.3670   25.7690   -7.8760 N.3    22  LYS22      -0.1314
     64  N        -14.3860   20.6940  -12.8800 N.am   23  ALA23      -0.1980
     65  CA       -15.3120   19.6880  -13.3880 C.3    23  ALA23       0.1597
     66  C        -14.5710   18.6420  -14.2170 C.2    23  ALA23       0.2287
     67  O        -14.8150   17.4440  -14.0720 O.2    23  ALA23      -0.2864
     68  CB       -16.4210   20.3270  -14.1900 C.3    23  ALA23       0.0319
     69  N        -23.1140   23.1630  -20.0280 N.3    33  ASP33      -0.1239
     70  CA       -24.5300   23.3960  -20.2810 C.3    33  ASP33       0.1674
     71  C        -24.8430   24.8070  -20.7640 C.2    33  ASP33       0.2266
     72  O        -24.4730   25.7920  -20.1170 O.2    33  ASP33      -0.2867
     73  CB       -25.3530   23.0940  -19.0170 C.3    33  ASP33       0.1410
     74  CG       -26.8580   23.0740  -19.2850 C.2    33  ASP33       0.3668
     75  OD1      -27.2760   22.8710  -20.4550 O.co2  33  ASP33      -0.2456
     76  OD2      -27.6250   23.2440  -18.3120 O.co2  33  ASP33      -0.2456
     77  N        -28.1610   25.1860  -21.8220 N.3    35  GLU35      -0.1231
     78  CA       -29.6150   25.1800  -21.6670 C.3    35  GLU35       0.1699
     79  C        -30.0850   25.5350  -20.2380 C.2    35  GLU35       0.2592
     80  O        -29.7490   26.6030  -19.7230 O.2    35  GLU35      -0.2718
     81  CB       -30.2120   23.8430  -22.1400 C.3    35  GLU35       0.0402
     82  CG       -31.6640   23.9370  -22.6020 C.3    35  GLU35       0.1161
     83  CD       -32.5560   22.8350  -22.0290 C.2    35  GLU35       0.3649
     84  OE1      -32.2170   22.2660  -20.9660 O.co2  35  GLU35      -0.2457
     85  OE2      -33.5970   22.5340  -22.6500 O.co2  35  GLU35      -0.2457
     86  N        -30.8440   24.6380  -19.6000 N.am   36  ASP36      -0.1960
     87  CA       -31.5570   24.9680  -18.3480 C.3    36  ASP36       0.1840
     88  C        -30.7180   25.3230  -17.1080 C.2    36  ASP36       0.2622
     89  O        -31.2360   25.9110  -16.1650 O.2    36  ASP36      -0.2715
     90  CB       -32.5800   23.8820  -17.9810 C.3    36  ASP36       0.1450
     91  CG       -33.8290   23.9630  -18.8120 C.2    36  ASP36       0.3671
     92  OD1      -33.9980   24.9720  -19.5290 O.co2  36  ASP36      -0.2456
     93  OD2      -34.6520   23.0260  -18.7390 O.co2  36  ASP36      -0.2456
     94  N        -29.4400   24.9600  -17.1040 N.am   37  GLY37      -0.1954
     95  CA       -28.5600   25.3250  -16.0090 C.3    37  GLY37       0.1869
     96  C        -28.1720   26.7890  -16.0590 C.2    37  GLY37       0.2309
     97  O        -27.5780   27.3080  -15.1170 O.2    37  GLY37      -0.2863
     98  N        -24.3040   20.7200  -23.9870 N.3    63  ARG63      -0.1245
     99  CA       -25.7490   20.7290  -24.1240 C.3    63  ARG63       0.1563
    100  C        -26.2180   22.0590  -24.6900 C.2    63  ARG63       0.2260
    101  O        -26.0950   23.1120  -24.0350 O.2    63  ARG63      -0.2867
    102  CB       -26.4810   20.4060  -22.8250 C.3    63  ARG63       0.0307
    103  CG       -27.9990   20.3920  -23.0210 C.3    63  ARG63       0.0489
    104  CD       -28.7120   19.7690  -21.8370 C.3    63  ARG63       0.2205
    105  NE       -28.7780   20.6760  -20.6900 N.pl3  63  ARG63      -0.0865
    106  CZ       -29.6120   20.5080  -19.6720 C.cat  63  ARG63       0.5346
    107  NH1      -30.4380   19.4630  -19.6720 N.pl3  63  ARG63       0.1354
    108  NH2      -29.6170   21.3750  -18.6630 N.pl3  63  ARG63       0.1354
    109  N        -31.4320   13.9020  -25.4230 N.3   109  LEU109     -0.1245
    110  CA       -32.0070   13.9030  -24.0820 C.3   109  LEU109      0.1561
    111  C        -33.5240   13.9220  -24.1920 C.2   109  LEU109      0.2260
    112  O        -34.1310   14.9460  -24.5190 O.2   109  LEU109     -0.2867
    113  CB       -31.4530   15.0760  -23.2470 C.3   109  LEU109      0.0270
    114  CG       -32.1690   15.4540  -21.9530 C.3   109  LEU109      0.0019
    115  CD1      -32.1810   14.2770  -20.9600 C.3   109  LEU109      0.0001
    116  CD2      -31.5380   16.6980  -21.3030 C.3   109  LEU109      0.0001
    117  N        -37.1340   13.9040  -22.7200 N.3   111  GLU111     -0.1245
    118  CA       -37.6330   14.4610  -21.4760 C.3   111  GLU111      0.1567
    119  C        -38.9950   15.1260  -21.6680 C.2   111  GLU111      0.2260
    120  O        -39.3420   16.0860  -20.9530 O.2   111  GLU111     -0.2867
    121  CB       -36.6130   15.4690  -20.9170 C.3   111  GLU111      0.0388
    122  CG       -36.2600   16.5750  -21.8990 C.3   111  GLU111      0.1160
    123  CD       -35.2450   17.5190  -21.3190 C.2   111  GLU111      0.3649
    124  OE1      -35.0700   17.4470  -20.1040 O.co2 111  GLU111     -0.2457
    125  OE2      -34.5990   18.2870  -22.0610 O.co2 111  GLU111     -0.2457
    126  N        -30.3320    9.9240  -23.3630 N.3   131  MET131     -0.1230
    127  CA       -30.4890   10.2130  -21.9390 C.3   131  MET131      0.1702
    128  C        -31.9630   10.5220  -21.7170 C.2   131  MET131      0.2592
    129  O        -32.6600   10.8960  -22.6640 O.2   131  MET131     -0.2718
    130  CB       -29.6360   11.4110  -21.5450 C.3   131  MET131      0.0401
    131  CG       -29.7100   11.7950  -20.0580 C.3   131  MET131      0.0596
    132  SD       -28.5810   13.1650  -19.7160 S.3   131  MET131     -0.1393
    133  CE       -28.9300   13.4440  -17.9630 C.3   131  MET131      0.0692
    134  N        -32.4250   10.3640  -20.4770 N.am  132  TRP132     -0.1962
    135  CA       -33.7770   10.7630  -20.1170 C.3   132  TRP132      0.1771
    136  C        -33.7630   11.7820  -18.9790 C.2   132  TRP132      0.2620
    137  O        -32.8280   11.8430  -18.1930 O.2   132  TRP132     -0.2715
    138  CB       -34.6460    9.5530  -19.7710 C.3   132  TRP132      0.0590
    139  CG       -34.3340    8.9460  -18.4200 C.ar  132  TRP132      0.0006
    140  CD1      -33.2350    8.1980  -18.0770 C.ar  132  TRP132      0.0946
    141  CD2      -35.1430    9.0290  -17.2480 C.ar  132  TRP132      0.0152
    142  NE1      -33.3120    7.8240  -16.7460 N.ar  132  TRP132     -0.2442
    143  CE2      -34.4790    8.3130  -16.2240 C.ar  132  TRP132      0.0810
    144  CE3      -36.3650    9.6330  -16.9620 C.ar  132  TRP132      0.0012
    145  CZ2      -35.0010    8.1980  -14.9330 C.ar  132  TRP132      0.0191
    146  CZ3      -36.8840    9.5080  -15.6770 C.ar  132  TRP132      0.0001
    147  CH2      -36.2010    8.7960  -14.6860 C.ar  132  TRP132      0.0015
    148  N        -34.7840   12.6250  -18.9480 N.am  133  GLY133     -0.1940
    149  CA       -34.8270   13.7340  -18.0140 C.3   133  GLY133      0.2014
    150  C        -36.1680   13.7050  -17.2970 C.2   133  GLY133      0.2639
    151  O        -37.2050   13.9660  -17.9080 O.2   133  GLY133     -0.2714
    152  N        -36.1470   13.3780  -16.0060 N.am  134  ALA134     -0.1963
    153  CA       -37.3780   13.1340  -15.2620 C.3   134  ALA134      0.1728
    154  C        -38.1220   14.4330  -15.0260 C.2   134  ALA134      0.2616
    155  O        -39.3430   14.4560  -14.9840 O.2   134  ALA134     -0.2715
    156  CB       -37.0660   12.4650  -13.9230 C.3   134  ALA134      0.0334
    157  N        -37.3780   15.5250  -14.8980 N.am  135  GLU135     -0.1963
    158  CA       -37.9850   16.7610  -14.4210 C.3   135  GLU135      0.1733
    159  C        -38.7340   17.5190  -15.5030 C.2   135  GLU135      0.2616
    160  O        -39.8760   17.9110  -15.2900 O.2   135  GLU135     -0.2715
    161  CB       -36.9400   17.6360  -13.7240 C.3   135  GLU135      0.0429
    162  CG       -36.1710   16.8820  -12.6260 C.3   135  GLU135      0.1163
    163  CD       -37.0870   16.2700  -11.5480 C.2   135  GLU135      0.3649
    164  OE1      -38.0860   16.9100  -11.1480 O.co2 135  GLU135     -0.2457
    165  OE2      -36.7980   15.1440  -11.0980 O.co2 135  GLU135     -0.2457
    166  N        -38.1170   17.7210  -16.6710 N.am  136  ASP136     -0.1971
    167  CA       -38.8870   18.2500  -17.7940 C.3   136  ASP136      0.1709
    168  C        -40.0080   17.2980  -18.2210 C.2   136  ASP136      0.2293
    169  O        -41.0620   17.7500  -18.6540 O.2   136  ASP136     -0.2864
    170  CB       -38.0050   18.6380  -18.9900 C.3   136  ASP136      0.1436
    171  CG       -37.6260   20.1020  -18.9610 C.2   136  ASP136      0.3671
    172  OD1      -38.5200   20.9500  -18.7580 O.co2 136  ASP136     -0.2456
    173  OD2      -36.4360   20.4120  -19.1110 O.co2 136  ASP136     -0.2456
    174  N        -30.5610    9.2580  -15.4640 N.3   178  ALA178     -0.1231
    175  CA       -30.9000   10.6100  -15.0200 C.3   178  ALA178      0.1694
    176  C        -30.1310   11.0920  -13.7900 C.2   178  ALA178      0.2591
    177  O        -29.6850   10.2930  -12.9660 O.2   178  ALA178     -0.2718
    178  CB       -32.3800   10.7000  -14.7540 C.3   178  ALA178      0.0304
    179  N        -30.0050   12.4140  -13.6760 N.am  179  VAL179     -0.1980
    180  CA       -29.3080   13.0430  -12.5650 C.3   179  VAL179      0.1595
    181  C        -30.0420   12.7700  -11.2480 C.2   179  VAL179      0.2287
    182  O        -31.2580   12.5240  -11.2330 O.2   179  VAL179     -0.2864
    183  CB       -29.1450   14.5630  -12.7860 C.3   179  VAL179      0.0276
    184  CG1      -28.3130   14.8370  -14.0560 C.3   179  VAL179      0.0022
    185  CG2      -30.5040   15.2420  -12.8720 C.3   179  VAL179      0.0022
    186  N        -30.8740   14.6630   -8.0460 N.3   181  LEU181     -0.1245
    187  CA       -30.9290   16.0740   -7.6770 C.3   181  LEU181      0.1561
    188  C        -30.5870   16.3550   -6.2190 C.2   181  LEU181      0.2260
    189  O        -30.1890   17.4680   -5.8830 O.2   181  LEU181     -0.2867
    190  CB       -32.3080   16.6580   -8.0080 C.3   181  LEU181      0.0270
    191  CG       -32.6850   16.6140   -9.4970 C.3   181  LEU181      0.0019
    192  CD1      -34.0290   17.2590   -9.7270 C.3   181  LEU181      0.0001
    193  CD2      -31.6240   17.2630  -10.3770 C.3   181  LEU181      0.0001
    194  N        -28.2670   16.3450   -3.6260 N.3   183  ILE183     -0.1245
    195  CA       -26.8120   16.2740   -3.7450 C.3   183  ILE183      0.1561
    196  C        -26.1770   15.4270   -2.6490 C.2   183  ILE183      0.2260
    197  O        -25.3160   14.5890   -2.9260 O.2   183  ILE183     -0.2867
    198  CB       -26.1720   17.6740   -3.7430 C.3   183  ILE183      0.0252
    199  CG1      -26.6910   18.4930   -4.9290 C.3   183  ILE183      0.0019
    200  CG2      -24.6380   17.5670   -3.7550 C.3   183  ILE183      0.0019
    201  CD1      -26.4520   19.9850   -4.7960 C.3   183  ILE183      0.0001
    202  N        -24.7650   16.0730  -11.0850 N.3   207  ILE207     -0.1231
    203  CA       -24.8920   17.5260  -11.0300 C.3   207  ILE207      0.1692
    204  C        -23.9570   18.1680   -9.9970 C.2   207  ILE207      0.2592
    205  O        -24.0070   19.3760   -9.7680 O.2   207  ILE207     -0.2718
    206  CB       -26.3700   17.9830  -10.8040 C.3   207  ILE207      0.0266
    207  CG1      -27.0870   17.1090   -9.7640 C.3   207  ILE207      0.0019
    208  CG2      -27.1480   17.9390  -12.1220 C.3   207  ILE207      0.0020
    209  CD1      -26.6330   17.2940   -8.3430 C.3   207  ILE207      0.0001
    210  N        -23.0890   17.3620   -9.3940 N.am  208  HIS208     -0.1962
    211  CA       -22.1320   17.8660   -8.4130 C.3   208  HIS208      0.1772
    212  C        -20.9150   16.9380   -8.3720 C.2   208  HIS208      0.2462
    213  O        -21.0740   15.7170   -8.3920 O.2   208  HIS208     -0.2730
    214  CB       -22.8010   17.9640   -7.0300 C.3   208  HIS208      0.0785
    215  CG       -22.0150   18.7510   -6.0250 C.ar  208  HIS208      0.0821
    216  ND1      -20.7920   18.3350   -5.5450 N.ar  208  HIS208     -0.2267
    217  CD2      -22.2810   19.9280   -5.4090 C.ar  208  HIS208      0.1154
    218  CE1      -20.3350   19.2250   -4.6810 C.ar  208  HIS208      0.1986
    219  NE2      -21.2180   20.2010   -4.5810 N.ar  208  HIS208     -0.2212
    220  N        -19.6960   17.5110   -8.3240 N.am  209  PRO209     -0.2727
    221  CA       -18.4380   16.7500   -8.2760 C.3   209  PRO209      0.1402
    222  C        -18.4500   15.6410   -7.2140 C.2   209  PRO209      0.2269
    223  O        -17.8900   14.5690   -7.4510 O.2   209  PRO209     -0.2865
    224  CB       -17.4040   17.8090   -7.8760 C.3   209  PRO209      0.0296
    225  CG       -17.9660   19.0830   -8.3370 C.3   209  PRO209      0.0237
    226  CD       -19.4620   18.9620   -8.2190 C.3   209  PRO209      0.0939
@<TRIPOS>BOND
     1   109   110    1
     2   100    99    1
     3   100   101    2
     4   112   111    2
     5   111   110    1
     6    99    98    1
     7    99   102    1
     8   110   113    1
     9   126   127    1
    10   113   114    1
    11   103   102    1
    12   103   104    1
    13   117   118    1
    14   129   128    2
    15    85    83   ar
    16    82    81    1
    17    82    83    1
    18    81    78    1
    19   125   123   ar
    20    83    84   ar
    21   114   116    1
    22   114   115    1
    23   127   128    1
    24   127   130    1
    25   122   123    1
    26   122   121    1
    27   104   105    1
    28    77    78    1
    29   128   134   am
    30   119   118    1
    31   119   120    2
    32    78    79    1
    33   130   131    1
    34   118   121    1
    35   123   124   ar
    36    71    70    1
    37    71    72    2
    38   105   106    2
    39   134   135    1
    40    75    74   ar
    41    70    69    1
    42    70    73    1
    43    79    80    2
    44    79    86   am
    45   135   138    1
    46   135   136    1
    47   131   132    1
    48   138   139    1
    49   132   133    1
    50   107   106    1
    51   106   108    1
    52    86    87    1
    53    92    91   ar
    54    74    73    1
    55    74    76   ar
    56   173   171   ar
    57   170   171    1
    58   170   167    1
    59   136   148   am
    60   136   137    2
    61   171   172   ar
    62   148   149    1
    63    91    93   ar
    64    91    90    1
    65    17    19   ar
    66    17    15   ar
    67   169   168    2
    68   139   140   ar
    69   139   141   ar
    70    19    18   ar
    71    87    90    1
    72    87    88    1
    73   168   167    1
    74   140   142   ar
    75   149   150    1
    76   151   150    2
    77   167   166    1
    78    15    14   ar
    79    23    22    2
    80   150   152   am
    81   141   144   ar
    82   141   143   ar
    83    18    16   ar
    84    88    94   am
    85    88    89    2
    86    94    95    1
    87    28    27    1
    88    28    29    2
    89   144   146   ar
    90   142   143   ar
    91   166   159   am
    92    14    16   ar
    93    14    13    1
    94     4     3    2
    95    27    26    1
    96    27    30    1
    97    22    26   am
    98    22    21    1
    99   143   145   ar
   100    96    95    1
   101    96    97    2
   102   152   153    1
   103    20    21    1
   104    20    11   am
   105    33    34    1
   106    10    13    1
   107    10     9    1
   108    10    11    1
   109     1     2    1
   110   146   147   ar
   111    26    32    1
   112     3     9   am
   113     3     2    1
   114   159   160    2
   115   159   158    1
   116   174   175    1
   117    24    21    1
   118    24    25    1
   119    30    31    1
   120   153   154    1
   121   153   156    1
   122    35    34    1
   123    35    36    2
   124    11    12    2
   125   154   155    2
   126   154   157   am
   127   175   178    1
   128   175   176    1
   129   145   147   ar
   130   157   158    1
   131     2     5    1
   132    34    37    1
   133   158   161    1
   134    32    31    1
   135    66    67    2
   136    66    65    1
   137    68    65    1
   138   184   183    1
   139     5     6    1
   140   176   179   am
   141   176   177    2
   142   161   162    1
   143    37    38    1
   144   179   180    1
   145    46    47    2
   146    46    45    1
   147    65    64    1
   148    44    45    1
   149     6     8    1
   150     6     7    1
   151    38    39    1
   152    64    57   am
   153   185   183    1
   154   183   180    1
   155    55    56    1
   156   162   163    1
   157    45    48    1
   158   180   181    1
   159    48    49    1
   160   208   206    1
   161    57    58    2
   162    57    56    1
   163    39    40    1
   164    56    59    1
   165   163   164   ar
   166   163   165   ar
   167   181   182    2
   168   202   203    1
   169   203   206    1
   170   203   204    1
   171    40    41    2
   172    49    50    1
   173   206   207    1
   174    50    51    1
   175    59    60    1
   176   193   191    1
   177   204   205    2
   178   204   210   am
   179    41    42    1
   180    41    43    1
   181    60    61    1
   182   207   209    1
   183   192   191    1
   184   191   190    1
   185   210   211    1
   186    51    52    2
   187    62    61    1
   188    62    63    1
   189    53    52    1
   190   211   212    1
   191   211   214    1
   192    52    54    1
   193   213   212    2
   194   212   220   am
   195   225   226    1
   196   225   224    1
   197   220   221    1
   198   220   226    1
   199   221   224    1
   200   221   222    1
   201   186   187    1
   202   190   187    1
   203   187   188    1
   204   223   222    2
   205   214   215    1
   206   188   189    2
   207   215   216   ar
   208   215   217   ar
   209   216   218   ar
   210   217   219   ar
   211   199   201    1
   212   199   198    1
   213   218   219   ar
   214   200   198    1
   215   195   198    1
   216   195   194    1
   217   195   196    1
   218   197   196    2
