@<TRIPOS>MOLECULE
tmp/6aq5A00.pdb
 112 110 0 0 0
SMALL
GASTEIGER

@<TRIPOS>ATOM
      1  N        -34.9220   63.6340  -20.6370 N.3    85  PRO85      -0.2102
      2  CA       -34.0400   62.6900  -19.9440 C.3    85  PRO85       0.1504
      3  C        -34.7830   61.4420  -19.4760 C.2    85  PRO85       0.2575
      4  O        -35.9720   61.3000  -19.7550 O.2    85  PRO85      -0.2718
      5  CB       -33.5390   63.5020  -18.7520 C.3    85  PRO85       0.0282
      6  CG       -34.6770   64.4170  -18.4470 C.3    85  PRO85       0.0208
      7  CD       -35.2860   64.7740  -19.7790 C.3    85  PRO85       0.0893
      8  N        -34.0810   60.5530  -18.7790 N.am   86  LEU86      -0.1980
      9  CA       -34.7110   59.3490  -18.2660 C.3    86  LEU86       0.1596
     10  C        -35.8160   59.7140  -17.2720 C.2    86  LEU86       0.2287
     11  O        -35.7100   60.7110  -16.5520 O.2    86  LEU86      -0.2864
     12  CB       -33.6750   58.4510  -17.5940 C.3    86  LEU86       0.0297
     13  CG       -32.5480   57.9070  -18.4770 C.3    86  LEU86       0.0022
     14  CD1      -31.5820   57.0770  -17.6480 C.3    86  LEU86       0.0001
     15  CD2      -33.1000   57.0850  -19.6320 C.3    86  LEU86       0.0001
     16  N        -38.2580   59.3320  -13.8530 N.3    88  ALA88      -0.1231
     17  CA       -37.9390   59.2200  -12.4320 C.3    88  ALA88       0.1694
     18  C        -39.1340   59.7230  -11.6290 C.2    88  ALA88       0.2592
     19  O        -39.9050   60.5460  -12.1280 O.2    88  ALA88      -0.2718
     20  CB       -36.6800   60.0310  -12.0890 C.3    88  ALA88       0.0304
     21  N        -39.2910   59.2400  -10.3900 N.am   89  ASP89      -0.1974
     22  CA       -38.4210   58.2580   -9.7400 C.3    89  ASP89       0.1709
     23  C        -39.1780   56.9830   -9.3540 C.2    89  ASP89       0.2293
     24  O        -38.5690   55.9190   -9.2200 O.2    89  ASP89      -0.2864
     25  CB       -37.7660   58.8600   -8.4880 C.3    89  ASP89       0.1436
     26  CG       -36.4250   59.5090   -8.7790 C.2    89  ASP89       0.3671
     27  OD1      -36.3780   60.7490   -8.9090 O.co2  89  ASP89      -0.2456
     28  OD2      -35.4150   58.7800   -8.8840 O.co2  89  ASP89      -0.2456
     29  N        -36.9650   62.3500   -4.8400 N.3   106  TYR106     -0.1227
     30  CA       -36.1260   61.7330   -5.8770 C.3   106  TYR106      0.1736
     31  C        -36.0880   60.2230   -5.6070 C.2   106  TYR106      0.2596
     32  O        -37.1310   59.6420   -5.2890 O.2   106  TYR106     -0.2718
     33  CB       -34.7650   62.4300   -5.9290 C.3   106  TYR106      0.0548
     34  CG       -34.8270   63.9430   -5.9920 C.ar  106  TYR106     -0.0200
     35  CD1      -33.8550   64.7260   -5.3660 C.ar  106  TYR106     -0.0009
     36  CD2      -35.8510   64.5980   -6.6730 C.ar  106  TYR106     -0.0009
     37  CE1      -33.9060   66.1320   -5.4130 C.ar  106  TYR106      0.0417
     38  CE2      -35.9100   66.0030   -6.7190 C.ar  106  TYR106      0.0417
     39  CZ       -34.9360   66.7560   -6.0880 C.ar  106  TYR106      0.1957
     40  OH       -34.9850   68.1310   -6.1350 O.3   106  TYR106     -0.2866
     41  N        -34.9220   59.5730   -5.7050 N.am  107  GLY107     -0.1942
     42  CA       -34.8390   58.1290   -5.5580 C.3   107  GLY107      0.2014
     43  C        -35.1050   57.6170   -4.1650 C.2   107  GLY107      0.2638
     44  O        -35.1360   56.3960   -3.9730 O.2   107  GLY107     -0.2714
     45  N        -35.2740   58.5060   -3.1950 N.am  108  TYR108     -0.1973
     46  CA       -35.7090   58.1050   -1.8660 C.3   108  TYR108      0.1639
     47  C        -37.2270   58.0370   -1.7600 C.2   108  TYR108      0.2290
     48  O        -37.7490   57.6680   -0.7020 O.2   108  TYR108     -0.2864
     49  CB       -35.1290   59.0570   -0.8100 C.3   108  TYR108      0.0560
     50  CG       -33.6430   59.2850   -0.9920 C.ar  108  TYR108     -0.0198
     51  CD1      -32.7340   58.2570   -0.7770 C.ar  108  TYR108     -0.0009
     52  CD2      -33.1530   60.5160   -1.4130 C.ar  108  TYR108     -0.0009
     53  CE1      -31.3770   58.4490   -0.9680 C.ar  108  TYR108      0.0417
     54  CE2      -31.7950   60.7210   -1.6030 C.ar  108  TYR108      0.0417
     55  CZ       -30.9120   59.6850   -1.3770 C.ar  108  TYR108      0.1957
     56  OH       -29.5620   59.8790   -1.5640 O.3   108  TYR108     -0.2866
     57  N        -36.2770   54.6860  -11.8230 N.3   131  PHE131     -0.1241
     58  CA       -34.9750   55.2650  -12.1330 C.3   131  PHE131      0.1605
     59  C        -33.8840   54.5010  -11.3990 C.2   131  PHE131      0.2264
     60  O        -33.9960   54.2530  -10.1950 O.2   131  PHE131     -0.2867
     61  CB       -34.9150   56.7530  -11.7630 C.3   131  PHE131      0.0534
     62  CG       -33.5950   57.3990  -12.0890 C.ar  131  PHE131     -0.0203
     63  CD1      -33.3960   58.0160  -13.3120 C.ar  131  PHE131     -0.0042
     64  CD2      -32.5470   57.3720  -11.1790 C.ar  131  PHE131     -0.0042
     65  CE1      -32.1760   58.6040  -13.6200 C.ar  131  PHE131     -0.0003
     66  CE2      -31.3230   57.9540  -11.4820 C.ar  131  PHE131     -0.0003
     67  CZ       -31.1380   58.5710  -12.7000 C.ar  131  PHE131     -0.0000
     68  N        -30.8730   54.4120   -9.5490 N.3   133  ASN133     -0.1240
     69  CA       -29.9320   55.1470   -8.7190 C.3   133  ASN133      0.1653
     70  C        -28.6900   54.2930   -8.4740 C.2   133  ASN133      0.2266
     71  O        -28.6770   53.1000   -8.7760 O.2   133  ASN133     -0.2867
     72  CB       -30.6130   55.5350   -7.4090 C.3   133  ASN133      0.1155
     73  CG       -31.6970   56.5830   -7.5940 C.2   133  ASN133      0.2627
     74  OD1      -31.4240   57.7840   -7.6320 O.2   133  ASN133     -0.2716
     75  ND2      -32.9360   56.1330   -7.6830 N.am  133  ASN133     -0.0877
     76  N        -27.6100   52.9060   -5.9200 N.3   135  TRP135     -0.1241
     77  CA       -27.9120   51.7910   -5.0300 C.3   135  TRP135      0.1605
     78  C        -28.8890   50.7840   -5.6320 C.2   135  TRP135      0.2264
     79  O        -29.2660   49.8290   -4.9460 O.2   135  TRP135     -0.2867
     80  CB       -28.4790   52.3240   -3.7120 C.3   135  TRP135      0.0550
     81  CG       -29.6310   53.2690   -3.9030 C.ar  135  TRP135      0.0003
     82  CD1      -30.9430   52.9370   -4.0920 C.ar  135  TRP135      0.0946
     83  CD2      -29.5740   54.7030   -3.9230 C.ar  135  TRP135      0.0152
     84  NE1      -31.7030   54.0740   -4.2330 N.ar  135  TRP135     -0.2442
     85  CE2      -30.8890   55.1700   -4.1280 C.ar  135  TRP135      0.0810
     86  CE3      -28.5400   55.6350   -3.7900 C.ar  135  TRP135      0.0012
     87  CZ2      -31.1960   56.5310   -4.2020 C.ar  135  TRP135      0.0191
     88  CZ3      -28.8460   56.9860   -3.8650 C.ar  135  TRP135      0.0001
     89  CH2      -30.1630   57.4200   -4.0700 C.ar  135  TRP135      0.0015
     90  N        -38.2670   63.3840  -10.6170 N.3   217  GLY217     -0.1210
     91  CA       -36.8270   63.5240  -10.5500 C.3   217  GLY217      0.1956
     92  C        -36.3280   64.9290  -10.2590 C.2   217  GLY217      0.2612
     93  O        -37.0860   65.8720  -10.0230 O.2   217  GLY217     -0.2717
     94  N        -35.0010   65.0590  -10.3040 N.am  218  ALA218     -0.1965
     95  CA       -34.2930   66.2400   -9.8250 C.3   218  ALA218      0.1728
     96  C        -33.7700   67.1320  -10.9450 C.2   218  ALA218      0.2616
     97  O        -32.9940   68.0530  -10.6730 O.2   218  ALA218     -0.2715
     98  CB       -33.1360   65.8220   -8.9140 C.3   218  ALA218      0.0334
     99  N        -34.1560   66.8770  -12.1910 N.am  219  GLN219     -0.1977
    100  CA       -33.8660   67.7870  -13.2880 C.3   219  GLN219      0.1601
    101  C        -35.0820   67.8510  -14.1990 C.2   219  GLN219      0.2287
    102  O        -35.9640   66.9890  -14.1510 O.2   219  GLN219     -0.2864
    103  CB       -32.6170   67.3700  -14.0750 C.3   219  GLN219      0.0394
    104  CG       -32.7150   66.0210  -14.7450 C.3   219  GLN219      0.0908
    105  CD       -31.4560   65.6650  -15.5050 C.2   219  GLN219      0.2608
    106  OE1      -31.4060   65.7730  -16.7310 O.2   219  GLN219     -0.2717
    107  NE2      -30.4280   65.2360  -14.7810 N.am  219  GLN219     -0.0878
    108  N        -37.3940   65.0510  -15.9720 N.3   222  ALA222     -0.1245
    109  CA       -37.1540   63.7300  -15.3900 C.3   222  ALA222      0.1562
    110  C        -38.3610   63.3890  -14.5190 C.2   222  ALA222      0.2260
    111  O        -38.3260   63.4250  -13.2870 O.2   222  ALA222     -0.2867
    112  CB       -35.8530   63.7030  -14.6020 C.3   222  ALA222      0.0290
@<TRIPOS>BOND
     1     1     2    1
     2     1     7    1
     3     2     3    1
     4     2     5    1
     5     7     6    1
     6     4     3    2
     7    15    13    1
     8     3     8   am
     9     8     9    1
    10     5     6    1
    11    13    14    1
    12    13    12    1
    13     9    12    1
    14     9    10    1
    15    10    11    2
    16   106   105    2
    17   108   109    1
    18   105   107   am
    19   105   104    1
    20   109   112    1
    21   109   110    1
    22   104   103    1
    23   110   111    2
    24   101   102    2
    25   101   100    1
    26   103   100    1
    27    16    17    1
    28    65    63   ar
    29    65    67   ar
    30    63    62   ar
    31   100    99    1
    32    67    66   ar
    33    17    20    1
    34    17    18    1
    35    99    96   am
    36    58    57    1
    37    58    61    1
    38    58    59    1
    39    19    18    2
    40    62    61    1
    41    62    64   ar
    42    18    21   am
    43    66    64   ar
    44    59    60    2
    45    96    97    2
    46    96    95    1
    47    90    91    1
    48    91    92    1
    49    21    22    1
    50    94    92   am
    51    94    95    1
    52    92    93    2
    53    95    98    1
    54    22    23    1
    55    22    25    1
    56    68    69    1
    57    23    24    2
    58    27    26   ar
    59    28    26   ar
    60    26    25    1
    61    71    70    2
    62    69    70    1
    63    69    72    1
    64    75    73   am
    65    74    73    2
    66    73    72    1
    67    38    36   ar
    68    38    39   ar
    69    36    34   ar
    70    40    39    1
    71    39    37   ar
    72    34    33    1
    73    34    35   ar
    74    33    30    1
    75    76    77    1
    76    30    31    1
    77    30    29    1
    78    41    31   am
    79    41    42    1
    80    78    77    1
    81    78    79    2
    82    31    32    2
    83    42    43    1
    84    37    35   ar
    85    77    80    1
    86    84    85   ar
    87    84    82   ar
    88    87    85   ar
    89    87    89   ar
    90    43    44    2
    91    43    45   am
    92    85    83   ar
    93    82    81   ar
    94    89    88   ar
    95    83    81   ar
    96    83    86   ar
    97    81    80    1
    98    88    86   ar
    99    45    46    1
   100    46    47    1
   101    46    49    1
   102    47    48    2
   103    54    52   ar
   104    54    55   ar
   105    56    55    1
   106    52    50   ar
   107    55    53   ar
   108    50    49    1
   109    50    51   ar
   110    53    51   ar
