@<TRIPOS>MOLECULE
tmp/6aq5A01.pdb
 74 71 0 0 0
SMALL
GASTEIGER

@<TRIPOS>ATOM
      1  N        -43.4380   54.0050   11.1660 N.3    97  PRO97      -0.2116
      2  CA       -43.9000   54.7310   12.3530 C.3    97  PRO97       0.1372
      3  C        -45.0330   55.6860   12.0170 C.2    97  PRO97       0.2244
      4  O        -45.0930   56.2580   10.9270 O.2    97  PRO97      -0.2868
      5  CB       -42.6490   55.4860   12.8150 C.3    97  PRO97       0.0268
      6  CG       -41.5030   54.6940   12.2570 C.3    97  PRO97       0.0207
      7  CD       -41.9930   54.1800   10.9360 C.3    97  PRO97       0.0892
      8  N        -45.7050   60.1750   10.5930 N.3   100  SER100     -0.1202
      9  CA       -44.5470   60.4900    9.7680 C.3   100  SER100      0.2020
     10  C        -44.8900   61.5620    8.7400 C.2   100  SER100      0.2619
     11  O        -46.0410   61.7130    8.3200 O.2   100  SER100     -0.2717
     12  CB       -44.0190   59.2390    9.0600 C.3   100  SER100      0.2103
     13  OG       -44.8910   58.8220    8.0230 O.3   100  SER100     -0.2182
     14  N        -43.8730   62.3140    8.3480 N.am  101  LYS101     -0.1966
     15  CA       -43.9560   63.3430    7.3280 C.3   101  LYS101      0.1713
     16  C        -43.1360   62.9270    6.1120 C.2   101  LYS101      0.2458
     17  O        -42.3140   62.0080    6.1950 O.2   101  LYS101     -0.2730
     18  CB       -43.4430   64.6810    7.8780 C.3   101  LYS101      0.0311
     19  CG       -44.1000   65.1020    9.1850 C.3   101  LYS101      0.0038
     20  CD       -45.5460   65.5300    8.9800 C.3   101  LYS101      0.0206
     21  CE       -45.6270   66.8220    8.1820 C.3   101  LYS101      0.1093
     22  NZ       -47.0050   67.3910    8.1670 N.3   101  LYS101     -0.1314
     23  N        -43.3510   63.5590    4.9570 N.am  102  PRO102     -0.2716
     24  CA       -42.5530   63.2080    3.7740 C.3   102  PRO102      0.1536
     25  C        -41.0610   63.3560    4.0400 C.2   102  PRO102      0.2598
     26  O        -40.6030   64.3680    4.5750 O.2   102  PRO102     -0.2715
     27  CB       -43.0410   64.2010    2.7140 C.3   102  PRO102      0.0310
     28  CG       -44.4400   64.5020    3.1170 C.3   102  PRO102      0.0237
     29  CD       -44.4380   64.4980    4.6210 C.3   102  PRO102      0.0939
     30  N        -40.3050   62.3250    3.6730 N.am  103  ALA103     -0.1978
     31  CA       -38.8560   62.3600    3.8100 C.3   103  ALA103      0.1597
     32  C        -38.2390   62.9960    2.5720 C.2   103  ALA103      0.2287
     33  O        -38.7910   63.9540    2.0230 O.2   103  ALA103     -0.2864
     34  CB       -38.3010   60.9540    4.0350 C.3   103  ALA103      0.0319
     35  N        -39.7660   58.4530    1.3120 N.3   111  VAL111     -0.1245
     36  CA       -39.9020   57.5630    2.4590 C.3   111  VAL111      0.1561
     37  C        -38.6180   57.5400    3.2840 C.2   111  VAL111      0.2260
     38  O        -38.6640   57.4320    4.5160 O.2   111  VAL111     -0.2867
     39  CB       -40.2890   56.1480    1.9930 C.3   111  VAL111      0.0252
     40  CG1      -40.3420   55.1850    3.1600 C.3   111  VAL111      0.0019
     41  CG2      -41.6260   56.1820    1.2670 C.3   111  VAL111      0.0019
     42  N        -34.3880   59.0540    3.9680 N.3   113  ASN113     -0.1240
     43  CA       -33.5910   60.2750    3.9800 C.3   113  ASN113      0.1653
     44  C        -32.2520   60.1270    3.2730 C.2   113  ASN113      0.2266
     45  O        -31.6750   61.1340    2.8480 O.2   113  ASN113     -0.2867
     46  CB       -33.3610   60.7390    5.4250 C.3   113  ASN113      0.1155
     47  CG       -34.6130   61.3180    6.0490 C.2   113  ASN113      0.2627
     48  OD1      -35.4660   61.8630    5.3500 O.2   113  ASN113     -0.2716
     49  ND2      -34.7320   61.2140    7.3660 N.am  113  ASN113     -0.0877
     50  N        -33.3040   52.3080   12.4850 N.3   120  SER120     -0.1202
     51  CA       -34.0990   53.3840   13.0610 C.3   120  SER120      0.2020
     52  C        -35.2010   53.8720   12.1290 C.2   120  SER120      0.2618
     53  O        -36.0910   54.6010   12.5830 O.2   120  SER120     -0.2717
     54  CB       -33.1900   54.5520   13.4530 C.3   120  SER120      0.2103
     55  OG       -32.3760   54.9540   12.3650 O.3   120  SER120     -0.2182
     56  N        -35.1630   53.5010   10.8460 N.am  121  TYR121     -0.1975
     57  CA       -36.2680   53.8300    9.9500 C.3   121  TYR121      0.1639
     58  C        -37.5550   53.1580   10.3960 C.2   121  TYR121      0.2290
     59  O        -38.6260   53.7760   10.3730 O.2   121  TYR121     -0.2864
     60  CB       -35.9340   53.4050    8.5240 C.3   121  TYR121      0.0560
     61  CG       -35.1600   54.4230    7.7370 C.ar  121  TYR121     -0.0198
     62  CD1      -35.6110   55.7310    7.6170 C.ar  121  TYR121     -0.0009
     63  CD2      -33.9710   54.0800    7.1240 C.ar  121  TYR121     -0.0009
     64  CE1      -34.9000   56.6700    6.8920 C.ar  121  TYR121      0.0417
     65  CE2      -33.2620   54.9990    6.4010 C.ar  121  TYR121      0.0417
     66  CZ       -33.7210   56.2990    6.2900 C.ar  121  TYR121      0.1957
     67  OH       -33.0010   57.2240    5.5690 O.3   121  TYR121     -0.2866
     68  N        -39.2170   50.9570    8.8250 N.3   123  THR123     -0.1218
     69  CA       -40.0710   51.0910    7.6530 C.3   123  THR123      0.1862
     70  C        -39.9430   49.8630    6.7650 C.2   123  THR123      0.2287
     71  O        -38.8300   49.4450    6.4250 O.2   123  THR123     -0.2866
     72  CB       -39.7260   52.3510    6.8480 C.3   123  THR123      0.1770
     73  OG1      -40.0380   53.5150    7.6230 O.3   123  THR123     -0.2211
     74  CG2      -40.5220   52.3900    5.5470 C.3   123  THR123      0.0375
@<TRIPOS>BOND
     1    41    39    1
     2    35    36    1
     3    39    36    1
     4    39    40    1
     5    33    32    2
     6    36    37    1
     7    32    31    1
     8    27    28    1
     9    27    24    1
    10    45    44    2
    11    28    29    1
    12    44    43    1
    13    37    38    2
    14    30    31    1
    15    30    25   am
    16    24    25    1
    17    24    23    1
    18    31    34    1
    19    42    43    1
    20    43    46    1
    21    25    26    2
    22    29    23    1
    23    23    16   am
    24    48    47    2
    25    46    47    1
    26    74    72    1
    27    67    66    1
    28    47    49   am
    29    16    17    2
    30    16    15    1
    31    66    65   ar
    32    66    64   ar
    33    65    63   ar
    34    71    70    2
    35    70    69    1
    36    72    73    1
    37    72    69    1
    38    64    62   ar
    39    63    61   ar
    40    15    18    1
    41    15    14    1
    42    62    61   ar
    43    69    68    1
    44    61    60    1
    45    18    19    1
    46    13    12    1
    47    22    21    1
    48    21    20    1
    49    11    10    2
    50    14    10   am
    51    60    57    1
    52    10     9    1
    53    20    19    1
    54    12     9    1
    55     9     8    1
    56    57    58    1
    57    57    56    1
    58    59    58    2
    59    56    52   am
    60     4     3    2
    61     7     1    1
    62     7     6    1
    63     1     2    1
    64     3     2    1
    65    52    53    2
    66    52    51    1
    67     6     5    1
    68     2     5    1
    69    55    54    1
    70    50    51    1
    71    51    54    1
