@<TRIPOS>MOLECULE
tmp/6aqeB01.pdb
 171 161 0 0 0
SMALL
GASTEIGER

@<TRIPOS>ATOM
      1  N         89.4960   46.0910   23.3100 N.3    64  ALA64      -0.1231
      2  CA        89.1950   45.0560   24.2770 C.3    64  ALA64       0.1694
      3  C         88.7130   43.7840   23.6140 C.2    64  ALA64       0.2592
      4  O         88.3590   43.7920   22.4740 O.2    64  ALA64      -0.2718
      5  CB        88.1270   45.5210   25.2200 C.3    64  ALA64       0.0304
      6  N         88.6380   42.7150   24.3790 N.am   65  ARG65      -0.1966
      7  CA        88.2010   41.4580   23.8010 C.3    65  ARG65       0.1729
      8  C         86.6890   41.3390   23.6640 C.2    65  ARG65       0.2616
      9  O         85.9680   42.1910   24.0730 O.2    65  ARG65      -0.2715
     10  CB        88.8600   40.2410   24.4300 C.3    65  ARG65       0.0348
     11  CG        88.6480   40.0590   25.8740 C.3    65  ARG65       0.0492
     12  CD        89.9740   40.2200   26.6000 C.3    65  ARG65       0.2205
     13  NE        90.7300   39.0220   26.7130 N.pl3  65  ARG65      -0.0865
     14  CZ        91.9120   38.9290   27.2990 C.cat  65  ARG65       0.5346
     15  NH1       92.5000   39.9600   27.8560 N.pl3  65  ARG65       0.1354
     16  NH2       92.4920   37.7800   27.3390 N.pl3  65  ARG65       0.1354
     17  N         86.2440   40.2640   23.0410 N.am   66  ASP66      -0.1957
     18  CA        84.8410   40.1120   22.7610 C.3    66  ASP66       0.1840
     19  C         84.0280   40.0560   24.0280 C.2    66  ASP66       0.2621
     20  O         84.4340   39.4580   24.9800 O.2    66  ASP66      -0.2715
     21  CB        84.5780   38.9310   21.8480 C.3    66  ASP66       0.1450
     22  CG        83.1990   38.9790   21.1630 C.2    66  ASP66       0.3671
     23  OD1       82.6000   40.0400   20.9780 O.co2  66  ASP66      -0.2456
     24  OD2       82.7600   37.9000   20.7980 O.co2  66  ASP66      -0.2456
     25  N         82.8960   40.7270   23.9620 N.am   67  ALA67      -0.1977
     26  CA        81.9030   40.9050   24.9990 C.3    67  ALA67       0.1597
     27  C         82.3610   41.7850   26.1500 C.2    67  ALA67       0.2287
     28  O         81.6960   41.8740   27.1250 O.2    67  ALA67      -0.2864
     29  CB        81.2900   39.5910   25.4850 C.3    67  ALA67       0.0319
     30  N         82.6350   47.1430   24.3530 N.3    70  LYS70      -0.1245
     31  CA        82.9760   48.2490   23.4450 C.3    70  LYS70       0.1561
     32  C         81.7180   48.8690   22.8710 C.2    70  LYS70       0.2260
     33  O         81.5180   50.0910   22.9310 O.2    70  LYS70      -0.2867
     34  CB        83.8910   47.7730   22.2880 C.3    70  LYS70       0.0271
     35  CG        85.2920   47.2740   22.8230 C.3    70  LYS70       0.0035
     36  CD        86.1700   46.8090   21.6110 C.3    70  LYS70       0.0206
     37  CE        85.6090   45.5960   20.8330 C.3    70  LYS70       0.1093
     38  NZ        85.6060   44.2950   21.6630 N.3    70  LYS70      -0.1314
     39  N         86.8380   49.1400   13.3690 N.3    91  PHE91      -0.1227
     40  CA        87.8480   48.5490   12.4970 C.3    91  PHE91       0.1736
     41  C         87.6340   47.0380   12.4910 C.2    91  PHE91       0.2595
     42  O         87.6000   46.3990   13.5570 O.2    91  PHE91      -0.2718
     43  CB        89.2450   48.9270   12.9620 C.3    91  PHE91       0.0547
     44  CG        89.6370   50.2900   12.5270 C.ar   91  PHE91      -0.0202
     45  CD1       89.9240   50.5410   11.1700 C.ar   91  PHE91      -0.0042
     46  CD2       89.7010   51.3380   13.4490 C.ar   91  PHE91      -0.0042
     47  CE1       90.2630   51.7940   10.7370 C.ar   91  PHE91      -0.0003
     48  CE2       90.0470   52.6460   12.9780 C.ar   91  PHE91      -0.0003
     49  CZ        90.3260   52.8420   11.6180 C.ar   91  PHE91      -0.0000
     50  N         87.4480   46.4960   11.3230 N.am   92  LYS92      -0.1966
     51  CA        87.3020   45.0600   11.1720 C.3    92  LYS92       0.1728
     52  C         88.5000   44.4620   10.4400 C.2    92  LYS92       0.2616
     53  O         89.5360   45.1030   10.2630 O.2    92  LYS92      -0.2715
     54  CB        85.9810   44.7870   10.4660 C.3    92  LYS92       0.0311
     55  CG        84.8390   45.4090   11.3000 C.3    92  LYS92       0.0038
     56  CD        83.4620   45.1480   10.7140 C.3    92  LYS92       0.0206
     57  CE        82.4650   45.9160   11.5990 C.3    92  LYS92       0.1093
     58  NZ        81.1310   45.2910   11.6510 N.3    92  LYS92      -0.1314
     59  N         88.3700   43.1980   10.0180 N.am   93  GLN93      -0.1964
     60  CA        89.5150   42.5830    9.3600 C.3    93  GLN93       0.1718
     61  C         89.9350   43.4080    8.1320 C.2    93  GLN93       0.2458
     62  O         89.0710   43.8420    7.3500 O.2    93  GLN93      -0.2730
     63  CB        89.1810   41.1620    8.9040 C.3    93  GLN93       0.0407
     64  CG        88.8240   40.2340   10.0550 C.3    93  GLN93       0.0908
     65  CD        87.3150   40.2240   10.4350 C.2    93  GLN93       0.2608
     66  OE1       86.5520   41.1940   10.2220 O.2    93  GLN93      -0.2717
     67  NE2       86.8970   39.1080   11.0240 N.am   93  GLN93      -0.0878
     68  N         91.2380   43.6480    7.9430 N.am   94  PRO94      -0.2727
     69  CA        91.6930   44.4780    6.8040 C.3    94  PRO94       0.1402
     70  C         91.2650   43.8730    5.4860 C.2    94  PRO94       0.2269
     71  O         91.3570   42.6650    5.2760 O.2    94  PRO94      -0.2865
     72  CB        93.2230   44.4770    6.9380 C.3    94  PRO94       0.0296
     73  CG        93.4570   44.3950    8.4530 C.3    94  PRO94       0.0237
     74  CD        92.3080   43.4270    8.9480 C.3    94  PRO94       0.0939
     75  N         95.0920   52.7350    6.8240 N.3   106  ARG106     -0.1245
     76  CA        93.6510   52.8290    7.0290 C.3   106  ARG106      0.1563
     77  C         93.2850   53.4950    8.3530 C.2   106  ARG106      0.2260
     78  O         92.1520   54.0100    8.4780 O.2   106  ARG106     -0.2867
     79  CB        92.9970   51.4340    6.9910 C.3   106  ARG106      0.0307
     80  CG        93.3290   50.5750    8.3410 C.3   106  ARG106      0.0489
     81  CD        92.6880   49.2100    8.1200 C.3   106  ARG106      0.2205
     82  NE        92.7210   48.4020    9.3640 N.pl3 106  ARG106     -0.0865
     83  CZ        91.7730   47.5270    9.7180 C.cat 106  ARG106      0.5346
     84  NH1       90.7140   47.2900    8.9710 N.pl3 106  ARG106      0.1354
     85  NH2       91.8890   46.9250   10.8670 N.pl3 106  ARG106      0.1354
     86  N         87.9830   49.2270   18.2480 N.3   122  ARG122     -0.1245
     87  CA        89.2050   48.6000   17.7200 C.3   122  ARG122      0.1563
     88  C         90.0300   49.6110   16.9230 C.2   122  ARG122      0.2260
     89  O         89.5600   50.7190   16.6460 O.2   122  ARG122     -0.2867
     90  CB        88.8990   47.3720   16.8410 C.3   122  ARG122      0.0307
     91  CG        87.9850   46.4040   17.5100 C.3   122  ARG122      0.0489
     92  CD        87.6170   45.1780   16.6470 C.3   122  ARG122      0.2205
     93  NE        86.2800   44.8430   17.0570 N.pl3 122  ARG122     -0.0865
     94  CZ        85.1850   45.4070   16.5740 C.cat 122  ARG122      0.5346
     95  NH1       85.2320   46.2530   15.5510 N.pl3 122  ARG122      0.1354
     96  NH2       84.0420   45.0990   17.1110 N.pl3 122  ARG122      0.1354
     97  N         95.0440   46.4800   16.9720 N.3   126  GLU126     -0.1231
     98  CA        94.7120   45.1690   16.4620 C.3   126  GLU126      0.1699
     99  C         95.9060   44.5630   15.7200 C.2   126  GLU126      0.2592
    100  O         96.0890   43.4030   15.7610 O.2   126  GLU126     -0.2718
    101  CB        93.5190   45.2070   15.5170 C.3   126  GLU126      0.0402
    102  CG        92.1760   45.4750   16.1860 C.3   126  GLU126      0.1161
    103  CD        91.5330   44.2830   16.8640 C.2   126  GLU126      0.3649
    104  OE1       91.8220   43.1630   16.4970 O.co2 126  GLU126     -0.2457
    105  OE2       90.7540   44.4970   17.7690 O.co2 126  GLU126     -0.2457
    106  N         96.6920   45.4030   15.0610 N.am  127  ASP127     -0.1974
    107  CA        97.8380   44.9550   14.3000 C.3   127  ASP127      0.1709
    108  C         98.9840   44.4530   15.1820 C.2   127  ASP127      0.2293
    109  O         99.9830   43.9370   14.6220 O.2   127  ASP127     -0.2864
    110  CB        98.2910   46.1030   13.3690 C.3   127  ASP127      0.1436
    111  CG        97.2300   46.4020   12.3100 C.2   127  ASP127      0.3671
    112  OD1       97.0530   45.4870   11.5050 O.co2 127  ASP127     -0.2456
    113  OD2       96.5590   47.4460   12.4600 O.co2 127  ASP127     -0.2456
    114  N         95.7510   40.3810   17.8620 N.3   130  VAL130     -0.1231
    115  CA        95.3880   39.1170   17.2250 C.3   130  VAL130      0.1692
    116  C         96.4700   38.6490   16.2650 C.2   130  VAL130      0.2592
    117  O         96.7060   37.4360   16.1330 O.2   130  VAL130     -0.2718
    118  CB        94.0040   39.2530   16.5160 C.3   130  VAL130      0.0266
    119  CG1       94.0090   40.2190   15.3420 C.3   130  VAL130      0.0020
    120  CG2       93.5160   37.9380   16.0730 C.3   130  VAL130      0.0020
    121  N         97.1540   39.5920   15.5880 N.am  131  THR131     -0.1953
    122  CA        98.1760   39.1900   14.6140 C.3   131  THR131      0.1897
    123  C         99.3420   38.4700   15.3010 C.2   131  THR131      0.2313
    124  O        100.0270   37.6530   14.6630 O.2   131  THR131     -0.2863
    125  CB        98.7320   40.4190   13.9100 C.3   131  THR131      0.1794
    126  OG1       99.2710   41.2750   14.9220 O.3   131  THR131     -0.2208
    127  CG2       97.5840   41.1620   13.1660 C.3   131  THR131      0.0378
    128  N        100.9210   35.6560   12.9620 N.3   136  MET136     -0.1245
    129  CA       101.0900   36.3220   11.6830 C.3   136  MET136      0.1570
    130  C        102.2690   37.2950   11.6800 C.2   136  MET136      0.2261
    131  O        102.8110   37.5780   10.6070 O.2   136  MET136     -0.2867
    132  CB        99.8170   37.0550   11.2990 C.3   136  MET136      0.0387
    133  CG        98.7070   36.0800   10.9370 C.3   136  MET136      0.0595
    134  SD        97.1110   36.6880   11.4170 S.3   136  MET136     -0.1393
    135  CE        96.9000   38.1010   10.3470 C.3   136  MET136      0.0692
    136  N         74.4560   35.3400   24.5640 N.3   182  ARG182     -0.1245
    137  CA        74.2420   35.4120   23.1100 C.3   182  ARG182      0.1563
    138  C         73.6920   34.0930   22.5780 C.2   182  ARG182      0.2260
    139  O         72.8430   34.0780   21.6790 O.2   182  ARG182     -0.2867
    140  CB        75.5340   35.7280   22.3730 C.3   182  ARG182      0.0307
    141  CG        76.1520   37.0630   22.6710 C.3   182  ARG182      0.0489
    142  CD        77.3930   37.2180   21.8030 C.3   182  ARG182      0.2205
    143  NE        78.0570   38.4740   22.1310 N.pl3 182  ARG182     -0.0865
    144  CZ        79.2820   38.7790   21.7050 C.cat 182  ARG182      0.5346
    145  NH1       79.9750   37.9110   20.9390 N.pl3 182  ARG182      0.1354
    146  NH2       79.8130   39.9100   22.0800 N.pl3 182  ARG182      0.1354
    147  N         75.6700   37.1850   16.2800 N.3   191  LYS191     -0.1245
    148  CA        76.9590   37.7470   16.6510 C.3   191  LYS191      0.1561
    149  C         77.7410   36.8110   17.5510 C.2   191  LYS191      0.2260
    150  O         78.6140   37.2620   18.2940 O.2   191  LYS191     -0.2867
    151  CB        76.7910   39.1230   17.3070 C.3   191  LYS191      0.0271
    152  CG        75.9020   39.1170   18.5160 C.3   191  LYS191      0.0035
    153  CD        75.3370   40.4830   18.6990 C.3   191  LYS191      0.0206
    154  CE        75.8540   41.1480   19.8680 C.3   191  LYS191      0.1093
    155  NZ        75.5440   42.6250   19.7810 N.3   191  LYS191     -0.1314
    156  N         85.3260   31.8040   17.2380 N.3   196  ASP196     -0.1239
    157  CA        85.9950   32.7890   18.1070 C.3   196  ASP196      0.1674
    158  C         86.3540   32.2820   19.5140 C.2   196  ASP196      0.2266
    159  O         87.1530   32.9320   20.1680 O.2   196  ASP196     -0.2867
    160  CB        85.1280   34.0450   18.2650 C.3   196  ASP196      0.1410
    161  CG        85.1490   34.9370   17.0160 C.2   196  ASP196      0.3668
    162  OD1       85.8020   34.5600   16.0140 O.co2 196  ASP196     -0.2456
    163  OD2       84.4470   35.9670   17.0180 O.co2 196  ASP196     -0.2456
    164  N         89.8100   32.2190   20.7690 N.3   199  ASP199     -0.1239
    165  CA        90.4440   33.3730   21.3990 C.3   199  ASP199      0.1674
    166  C         90.4150   33.2570   22.9180 C.2   199  ASP199      0.2266
    167  O         91.3550   33.6890   23.6070 O.2   199  ASP199     -0.2867
    168  CB        89.7260   34.6620   20.9810 C.3   199  ASP199      0.1410
    169  CG        89.8750   34.9700   19.4950 C.2   199  ASP199      0.3668
    170  OD1       90.8770   34.5190   18.8830 O.co2 199  ASP199     -0.2456
    171  OD2       88.9510   35.6330   18.9450 O.co2 199  ASP199     -0.2456
@<TRIPOS>BOND
     1    71    70    2
     2    70    69    1
     3    69    72    1
     4    69    68    1
     5    75    76    1
     6    72    73    1
     7    79    76    1
     8    79    80    1
     9    76    77    1
    10    62    61    2
    11    68    61   am
    12    68    74    1
    13    81    80    1
    14    81    82    1
    15    61    60    1
    16    77    78    2
    17    73    74    1
    18    63    60    1
    19    63    64    1
    20    84    83    1
    21    60    59    1
    22    82    83    2
    23    83    85    1
    24    59    52   am
    25    64    65    1
    26    66    65    2
    27    53    52    2
    28   135   134    1
    29    65    67   am
    30    52    51    1
    31    54    51    1
    32    54    55    1
    33   131   130    2
    34    56    55    1
    35    56    57    1
    36    47    45   ar
    37    47    49   ar
    38   133   132    1
    39   133   134    1
    40    45    44   ar
    41    51    50    1
    42   132   129    1
    43    50    41   am
    44   112   111   ar
    45    57    58    1
    46    49    48   ar
    47   130   129    1
    48   129   128    1
    49   111   113   ar
    50   111   110    1
    51    41    40    1
    52    41    42    2
    53    40    43    1
    54    40    39    1
    55    44    43    1
    56    44    46   ar
    57    48    46   ar
    58   127   125    1
    59   110   107    1
    60   125   122    1
    61   125   126    1
    62   107   106    1
    63   107   108    1
    64   122   123    1
    65   122   121    1
    66   109   108    2
    67   124   123    2
    68   106    99   am
    69   119   118    1
    70   101   102    1
    71   101    98    1
    72    95    94    1
    73   121   116   am
    74    99   100    2
    75    99    98    1
    76   162   161   ar
    77   120   118    1
    78   117   116    2
    79   102   103    1
    80   116   115    1
    81   147   148    1
    82    98    97    1
    83   104   103   ar
    84   118   115    1
    85    94    93    2
    86    94    96    1
    87    89    88    2
    88    92    93    1
    89    92    91    1
    90   148   151    1
    91   148   149    1
    92    90    91    1
    93    90    87    1
    94   103   105   ar
    95    88    87    1
    96   161   163   ar
    97   161   160    1
    98   115   114    1
    99   156   157    1
   100   151   152    1
   101   149   150    2
   102    87    86    1
   103   157   160    1
   104   157   158    1
   105   152   153    1
   106   153   154    1
   107   170   169   ar
   108   171   169   ar
   109   169   168    1
   110   158   159    2
   111   155   154    1
   112   164   165    1
   113    24    22   ar
   114    37    36    1
   115    37    38    1
   116   145   144    1
   117    23    22   ar
   118   168   165    1
   119    22    21    1
   120   165   166    1
   121    36    35    1
   122   139   138    2
   123   144   146    1
   124   144   143    2
   125   142   143    1
   126   142   141    1
   127    21    18    1
   128    34    35    1
   129    34    31    1
   130   140   141    1
   131   140   137    1
   132     4     3    2
   133   138   137    1
   134    18    17    1
   135    18    19    1
   136    32    33    2
   137    32    31    1
   138   166   167    2
   139    17     8   am
   140   137   136    1
   141     1     2    1
   142    31    30    1
   143     3     2    1
   144     3     6   am
   145     8     7    1
   146     8     9    2
   147     7     6    1
   148     7    10    1
   149    25    19   am
   150    25    26    1
   151    19    20    2
   152     2     5    1
   153    10    11    1
   154    26    29    1
   155    26    27    1
   156    11    12    1
   157    27    28    2
   158    12    13    1
   159    13    14    2
   160    14    16    1
   161    14    15    1
