@<TRIPOS>MOLECULE
tmp/6aqeB02.pdb
 140 134 0 0 0
SMALL
GASTEIGER

@<TRIPOS>ATOM
      1  N         88.6380   42.7150   24.3790 N.3    65  ARG65      -0.1231
      2  CA        88.2010   41.4580   23.8010 C.3    65  ARG65       0.1694
      3  C         86.6890   41.3390   23.6640 C.2    65  ARG65       0.2592
      4  O         85.9680   42.1910   24.0730 O.2    65  ARG65      -0.2718
      5  CB        88.8600   40.2410   24.4300 C.3    65  ARG65       0.0321
      6  CG        88.6480   40.0590   25.8740 C.3    65  ARG65       0.0489
      7  CD        89.9740   40.2200   26.6000 C.3    65  ARG65       0.2205
      8  NE        90.7300   39.0220   26.7130 N.pl3  65  ARG65      -0.0865
      9  CZ        91.9120   38.9290   27.2990 C.cat  65  ARG65       0.5346
     10  NH1       92.5000   39.9600   27.8560 N.pl3  65  ARG65       0.1354
     11  NH2       92.4920   37.7800   27.3390 N.pl3  65  ARG65       0.1354
     12  N         86.2440   40.2640   23.0410 N.am   66  ASP66      -0.1960
     13  CA        84.8410   40.1120   22.7610 C.3    66  ASP66       0.1840
     14  C         84.0280   40.0560   24.0280 C.2    66  ASP66       0.2622
     15  O         84.4340   39.4580   24.9800 O.2    66  ASP66      -0.2715
     16  CB        84.5780   38.9310   21.8480 C.3    66  ASP66       0.1450
     17  CG        83.1990   38.9790   21.1630 C.2    66  ASP66       0.3671
     18  OD1       82.6000   40.0400   20.9780 O.co2  66  ASP66      -0.2456
     19  OD2       82.7600   37.9000   20.7980 O.co2  66  ASP66      -0.2456
     20  N         82.8960   40.7270   23.9620 N.am   67  ALA67      -0.1963
     21  CA        81.9030   40.9050   24.9990 C.3    67  ALA67       0.1728
     22  C         82.3610   41.7850   26.1500 C.2    67  ALA67       0.2616
     23  O         81.6960   41.8740   27.1250 O.2    67  ALA67      -0.2715
     24  CB        81.2900   39.5910   25.4850 C.3    67  ALA67       0.0334
     25  N         83.4800   42.4720   25.9900 N.am   68  ALA68      -0.1963
     26  CA        84.0020   43.3280   27.0780 C.3    68  ALA68       0.1728
     27  C         83.2420   44.6480   27.2320 C.2    68  ALA68       0.2617
     28  O         83.4130   45.3280   28.2540 O.2    68  ALA68      -0.2715
     29  CB        85.5050   43.6190   26.8450 C.3    68  ALA68       0.0334
     30  N         82.3930   45.0180   26.2750 N.am   69  GLY69      -0.1940
     31  CA        81.5930   46.2250   26.4180 C.3    69  GLY69       0.2014
     32  C         81.8470   47.3640   25.4220 C.2    69  GLY69       0.2639
     33  O         81.3280   48.4690   25.6380 O.2    69  GLY69      -0.2714
     34  N         82.6350   47.1430   24.3530 N.am   70  LYS70      -0.1963
     35  CA        82.9760   48.2490   23.4450 C.3    70  LYS70       0.1728
     36  C         81.7180   48.8690   22.8710 C.2    70  LYS70       0.2616
     37  O         81.5180   50.0910   22.9310 O.2    70  LYS70      -0.2715
     38  CB        83.8910   47.7730   22.2880 C.3    70  LYS70       0.0311
     39  CG        85.2920   47.2740   22.8230 C.3    70  LYS70       0.0038
     40  CD        86.1700   46.8090   21.6110 C.3    70  LYS70       0.0206
     41  CE        85.6090   45.5960   20.8330 C.3    70  LYS70       0.1093
     42  NZ        85.6060   44.2950   21.6630 N.3    70  LYS70      -0.1314
     43  N         80.8590   48.0190   22.3310 N.am   71  ASP71      -0.1957
     44  CA        79.5920   48.4410   21.7300 C.3    71  ASP71       0.1840
     45  C         78.7380   49.2190   22.7350 C.2    71  ASP71       0.2622
     46  O         78.2210   50.3000   22.4230 O.2    71  ASP71      -0.2715
     47  CB        78.8680   47.1690   21.2550 C.3    71  ASP71       0.1450
     48  CG        77.5270   47.4450   20.5800 C.2    71  ASP71       0.3671
     49  OD1       77.5510   47.9190   19.4240 O.co2  71  ASP71      -0.2456
     50  OD2       76.4740   47.1330   21.1830 O.co2  71  ASP71      -0.2456
     51  N         78.5770   48.6650   23.9460 N.am   72  GLY72      -0.1954
     52  CA        77.7280   49.2880   24.9510 C.3    72  GLY72       0.1869
     53  C         78.2980   50.6140   25.4100 C.2    72  GLY72       0.2309
     54  O         77.5460   51.5610   25.6650 O.2    72  GLY72      -0.2863
     55  N         77.4840   53.1400   22.7670 N.3    75  LYS75      -0.1245
     56  CA        76.0610   53.5170   22.8360 C.3    75  LYS75       0.1561
     57  C         75.7810   54.4600   23.9920 C.2    75  LYS75       0.2260
     58  O         75.0440   55.4640   23.8460 O.2    75  LYS75      -0.2867
     59  CB        75.1630   52.2900   22.9800 C.3    75  LYS75       0.0271
     60  CG        75.3480   51.3420   21.8130 C.3    75  LYS75       0.0035
     61  CD        74.1430   50.4190   21.5710 C.3    75  LYS75       0.0206
     62  CE        74.2750   49.1420   22.3540 C.3    75  LYS75       0.1093
     63  NZ        72.9900   48.4280   22.3760 N.3    75  LYS75      -0.1314
     64  N         84.4770   51.4700   13.3080 N.3    90  SER90      -0.1217
     65  CA        84.6330   50.1220   13.8350 C.3    90  SER90       0.1889
     66  C         85.6130   49.3910   12.9060 C.2    90  SER90       0.2288
     67  O         85.2710   49.0890   11.7570 O.2    90  SER90      -0.2866
     68  CB        83.2690   49.4280   13.8480 C.3    90  SER90       0.2089
     69  OG        83.2980   48.2330   14.6090 O.3    90  SER90      -0.2183
     70  N         87.4480   46.4960   11.3230 N.3    92  LYS92      -0.1245
     71  CA        87.3020   45.0600   11.1720 C.3    92  LYS92       0.1561
     72  C         88.5000   44.4620   10.4400 C.2    92  LYS92       0.2260
     73  O         89.5360   45.1030   10.2630 O.2    92  LYS92      -0.2867
     74  CB        85.9810   44.7870   10.4660 C.3    92  LYS92       0.0271
     75  CG        84.8390   45.4090   11.3000 C.3    92  LYS92       0.0035
     76  CD        83.4620   45.1480   10.7140 C.3    92  LYS92       0.0206
     77  CE        82.4650   45.9160   11.5990 C.3    92  LYS92       0.1093
     78  NZ        81.1310   45.2910   11.6510 N.3    92  LYS92      -0.1314
     79  N         86.4580   51.9620   17.5350 N.3   121  ASN121     -0.1225
     80  CA        86.0410   50.6980   18.1350 C.3   121  ASN121      0.1785
     81  C         86.9540   49.6610   17.4930 C.2   121  ASN121      0.2597
     82  O         86.7550   49.3110   16.3250 O.2   121  ASN121     -0.2718
     83  CB        84.5660   50.4040   17.8500 C.3   121  ASN121      0.1169
     84  CG        84.0920   49.1190   18.5800 C.2   121  ASN121      0.2627
     85  OD1       84.9270   48.3040   18.9510 O.2   121  ASN121     -0.2716
     86  ND2       82.8130   48.9790   18.8280 N.am  121  ASN121     -0.0877
     87  N         87.9830   49.2270   18.2480 N.am  122  ARG122     -0.1979
     88  CA        89.2050   48.6000   17.7200 C.3   122  ARG122      0.1597
     89  C         90.0300   49.6110   16.9230 C.2   122  ARG122      0.2287
     90  O         89.5600   50.7190   16.6460 O.2   122  ARG122     -0.2864
     91  CB        88.8990   47.3720   16.8410 C.3   122  ARG122      0.0334
     92  CG        87.9850   46.4040   17.5100 C.3   122  ARG122      0.0492
     93  CD        87.6170   45.1780   16.6470 C.3   122  ARG122      0.2205
     94  NE        86.2800   44.8430   17.0570 N.pl3 122  ARG122     -0.0865
     95  CZ        85.1850   45.4070   16.5740 C.cat 122  ARG122      0.5346
     96  NH1       85.2320   46.2530   15.5510 N.pl3 122  ARG122      0.1354
     97  NH2       84.0420   45.0990   17.1110 N.pl3 122  ARG122      0.1354
     98  N         74.4560   35.3400   24.5640 N.3   182  ARG182     -0.1245
     99  CA        74.2420   35.4120   23.1100 C.3   182  ARG182      0.1563
    100  C         73.6920   34.0930   22.5780 C.2   182  ARG182      0.2260
    101  O         72.8430   34.0780   21.6790 O.2   182  ARG182     -0.2867
    102  CB        75.5340   35.7280   22.3730 C.3   182  ARG182      0.0307
    103  CG        76.1520   37.0630   22.6710 C.3   182  ARG182      0.0489
    104  CD        77.3930   37.2180   21.8030 C.3   182  ARG182      0.2205
    105  NE        78.0570   38.4740   22.1310 N.pl3 182  ARG182     -0.0865
    106  CZ        79.2820   38.7790   21.7050 C.cat 182  ARG182      0.5346
    107  NH1       79.9750   37.9110   20.9390 N.pl3 182  ARG182      0.1354
    108  NH2       79.8130   39.9100   22.0800 N.pl3 182  ARG182      0.1354
    109  N         70.4580   36.9170   19.1820 N.3   188  LYS188     -0.1245
    110  CA        71.8840   37.2300   19.2990 C.3   188  LYS188      0.1561
    111  C         72.7790   36.1610   18.6900 C.2   188  LYS188      0.2260
    112  O         74.0170   36.3480   18.6740 O.2   188  LYS188     -0.2867
    113  CB        72.2810   37.4350   20.7710 C.3   188  LYS188      0.0271
    114  CG        71.5170   38.5660   21.4820 C.3   188  LYS188      0.0035
    115  CD        71.7960   39.9050   20.8290 C.3   188  LYS188      0.0206
    116  CE        70.8990   41.0410   21.3950 C.3   188  LYS188      0.1093
    117  NZ        71.2540   42.3720   20.8220 N.3   188  LYS188     -0.1314
    118  N         73.4200   35.6250   15.7710 N.3   190  TRP190     -0.1227
    119  CA        74.1520   36.1490   14.6250 C.3   190  TRP190      0.1737
    120  C         75.4860   36.7720   15.0290 C.2   190  TRP190      0.2595
    121  O         76.3910   36.8620   14.1940 O.2   190  TRP190     -0.2718
    122  CB        73.2760   37.1840   13.8630 C.3   190  TRP190      0.0564
    123  CG        73.0730   38.4520   14.6830 C.ar  190  TRP190      0.0003
    124  CD1       72.0860   38.6840   15.6390 C.ar  190  TRP190      0.0946
    125  CD2       73.9020   39.6260   14.6860 C.ar  190  TRP190      0.0152
    126  NE1       72.2600   39.9050   16.1990 N.ar  190  TRP190     -0.2442
    127  CE2       73.3610   40.5160   15.6410 C.ar  190  TRP190      0.0810
    128  CE3       75.0240   40.0220   13.9500 C.ar  190  TRP190      0.0012
    129  CZ2       73.8880   41.7710   15.8620 C.ar  190  TRP190      0.0191
    130  CZ3       75.5750   41.2700   14.1920 C.ar  190  TRP190      0.0001
    131  CH2       75.0020   42.1390   15.1510 C.ar  190  TRP190      0.0015
    132  N         75.6700   37.1850   16.2800 N.am  191  LYS191     -0.1980
    133  CA        76.9590   37.7470   16.6510 C.3   191  LYS191      0.1596
    134  C         77.7410   36.8110   17.5510 C.2   191  LYS191      0.2287
    135  O         78.6140   37.2620   18.2940 O.2   191  LYS191     -0.2864
    136  CB        76.7910   39.1230   17.3070 C.3   191  LYS191      0.0298
    137  CG        75.9020   39.1170   18.5160 C.3   191  LYS191      0.0038
    138  CD        75.3370   40.4830   18.6990 C.3   191  LYS191      0.0206
    139  CE        75.8540   41.1480   19.8680 C.3   191  LYS191      0.1093
    140  NZ        75.5440   42.6250   19.7810 N.3   191  LYS191     -0.1314
@<TRIPOS>BOND
     1    73    72    2
     2    72    71    1
     3    74    71    1
     4    74    75    1
     5    76    75    1
     6    76    77    1
     7    71    70    1
     8    77    78    1
     9    67    66    2
    10    66    65    1
    11    64    65    1
    12    65    68    1
    13    68    69    1
    14   122   119    1
    15   122   123    1
    16   128   130   ar
    17   128   125   ar
    18   130   131   ar
    19   121   120    2
    20   119   120    1
    21   119   118    1
    22   123   125   ar
    23   123   124   ar
    24   125   127   ar
    25   120   132   am
    26   131   129   ar
    27    96    95    1
    28   124   126   ar
    29   127   129   ar
    30   127   126   ar
    31   132   133    1
    32    82    81    2
    33    95    94    2
    34    95    97    1
    35    90    89    2
    36    93    94    1
    37    93    92    1
    38   133   136    1
    39   133   134    1
    40    91    92    1
    41    91    88    1
    42    89    88    1
    43   136   137    1
    44    81    80    1
    45    81    87   am
    46    79    80    1
    47   134   135    2
    48    88    87    1
    49    83    80    1
    50    83    84    1
    51   137   138    1
    52    84    86   am
    53    84    85    2
    54   112   111    2
    55   111   110    1
    56   138   139    1
    57   109   110    1
    58   110   113    1
    59    49    48   ar
    60   140   139    1
    61    48    50   ar
    62    48    47    1
    63   113   114    1
    64    19    17   ar
    65   117   116    1
    66   115   116    1
    67   115   114    1
    68    41    40    1
    69    41    42    1
    70   107   106    1
    71    18    17   ar
    72    17    16    1
    73    47    44    1
    74    61    60    1
    75    61    62    1
    76    40    39    1
    77   101   100    2
    78   106   108    1
    79   106   105    2
    80    44    43    1
    81    44    45    1
    82   104   105    1
    83   104   103    1
    84    60    59    1
    85    16    13    1
    86    38    39    1
    87    38    35    1
    88    43    36   am
    89    62    63    1
    90   102   103    1
    91   102    99    1
    92    46    45    2
    93   100    99    1
    94    45    51   am
    95    13    12    1
    96    13    14    1
    97    55    56    1
    98    56    59    1
    99    56    57    1
   100    36    37    2
   101    36    35    1
   102    12     3   am
   103    99    98    1
   104    35    34    1
   105     3     2    1
   106     3     4    2
   107     2     1    1
   108     2     5    1
   109    58    57    2
   110    51    52    1
   111    20    14   am
   112    20    21    1
   113    14    15    2
   114    34    32   am
   115     5     6    1
   116    52    53    1
   117    21    24    1
   118    21    22    1
   119    53    54    2
   120    32    33    2
   121    32    31    1
   122     6     7    1
   123    25    22   am
   124    25    26    1
   125    22    23    2
   126    30    31    1
   127    30    27   am
   128     7     8    1
   129     8     9    2
   130    29    26    1
   131    26    27    1
   132    27    28    2
   133     9    11    1
   134     9    10    1
