@<TRIPOS>MOLECULE
tmp/6aqgB05.pdb
 88 85 0 0 0
SMALL
GASTEIGER

@<TRIPOS>ATOM
      1  N        -18.4440   32.9180  -66.9000 N.3   313  GLU313     -0.1245
      2  CA       -19.5670   33.8450  -66.9560 C.3   313  GLU313      0.1567
      3  C        -20.7500   33.2740  -66.1870 C.2   313  GLU313      0.2260
      4  O        -20.9930   32.0690  -66.2220 O.2   313  GLU313     -0.2867
      5  CB       -19.9630   34.1190  -68.4070 C.3   313  GLU313      0.0388
      6  CG       -18.8900   34.8860  -69.1450 C.3   313  GLU313      0.1160
      7  CD       -18.9040   34.6210  -70.6240 C.2   313  GLU313      0.3649
      8  OE1      -17.8030   34.5890  -71.2140 O.co2 313  GLU313     -0.2457
      9  OE2      -20.0060   34.4300  -71.1900 O.co2 313  GLU313     -0.2457
     10  N        -24.1290   33.5830  -66.4610 N.3   315  TYR315     -0.1227
     11  CA       -25.2700   33.0220  -67.1680 C.3   315  TYR315      0.1736
     12  C        -24.8970   31.7400  -67.9030 C.2   315  TYR315      0.2596
     13  O        -25.6360   30.7510  -67.8410 O.2   315  TYR315     -0.2718
     14  CB       -25.8350   34.0560  -68.1460 C.3   315  TYR315      0.0548
     15  CG       -26.8050   35.0520  -67.5160 C.ar  315  TYR315     -0.0200
     16  CD1      -26.3540   36.2320  -66.9150 C.ar  315  TYR315     -0.0009
     17  CD2      -28.1760   34.8060  -67.5250 C.ar  315  TYR315     -0.0009
     18  CE1      -27.2640   37.1390  -66.3510 C.ar  315  TYR315      0.0417
     19  CE2      -29.0750   35.6970  -67.0000 C.ar  315  TYR315      0.0417
     20  CZ       -28.6200   36.8670  -66.4010 C.ar  315  TYR315      0.1957
     21  OH       -29.5400   37.7480  -65.8610 O.3   315  TYR315     -0.2866
     22  N        -23.7510   31.7280  -68.5970 N.am  316  SER316     -0.1952
     23  CA       -23.3600   30.5500  -69.3640 C.3   316  SER316      0.1924
     24  C        -22.9630   29.3940  -68.4520 C.2   316  SER316      0.2314
     25  O        -23.2710   28.2320  -68.7390 O.2   316  SER316     -0.2863
     26  CB       -22.2200   30.9030  -70.3190 C.3   316  SER316      0.2116
     27  OG       -21.6730   29.7380  -70.9040 O.3   316  SER316     -0.2180
     28  N        -30.3030   26.8010  -71.3310 N.3   325  GLN325     -0.1231
     29  CA       -29.7510   28.1450  -71.4320 C.3   325  GLN325      0.1698
     30  C        -30.6230   29.1290  -70.6620 C.2   325  GLN325      0.2592
     31  O        -31.8250   29.2570  -70.9380 O.2   325  GLN325     -0.2718
     32  CB       -29.5930   28.6200  -72.8690 C.3   325  GLN325      0.0381
     33  CG       -28.6960   29.9170  -72.9150 C.3   325  GLN325      0.0905
     34  CD       -28.6400   30.5730  -74.3000 C.2   325  GLN325      0.2608
     35  OE1      -29.6740   30.8960  -74.8910 O.2   325  GLN325     -0.2717
     36  NE2      -27.4310   30.7500  -74.8300 N.am  325  GLN325     -0.0878
     37  N        -30.0010   29.8030  -69.6890 N.am  326  ILE326     -0.1966
     38  CA       -30.5770   30.9260  -68.9570 C.3   326  ILE326      0.1727
     39  C        -30.0210   32.2160  -69.5510 C.2   326  ILE326      0.2617
     40  O        -28.8030   32.3530  -69.7440 O.2   326  ILE326     -0.2715
     41  CB       -30.2450   30.8290  -67.4550 C.3   326  ILE326      0.0290
     42  CG1      -30.5680   29.4300  -66.9180 C.3   326  ILE326      0.0022
     43  CG2      -30.9790   31.9070  -66.6800 C.3   326  ILE326      0.0023
     44  CD1      -32.0040   28.9880  -67.1550 C.3   326  ILE326      0.0001
     45  N        -30.9020   33.1540  -69.8530 N.am  327  THR327     -0.1937
     46  CA       -30.5480   34.4450  -70.4250 C.3   327  THR327      0.2013
     47  C        -31.2170   35.5560  -69.6350 C.2   327  THR327      0.2484
     48  O        -32.1230   35.3090  -68.8310 O.2   327  THR327     -0.2729
     49  CB       -31.0030   34.5320  -71.8880 C.3   327  THR327      0.1807
     50  OG1      -32.4200   34.7150  -71.8970 O.3   327  THR327     -0.2208
     51  CG2      -30.6310   33.2570  -72.6570 C.3   327  THR327      0.0379
     52  N        -30.8230   36.8110  -69.8680 N.am  328  PRO328     -0.2726
     53  CA       -31.5310   37.9220  -69.2140 C.3   328  PRO328      0.1402
     54  C        -33.0250   37.9550  -69.4970 C.2   328  PRO328      0.2269
     55  O        -33.7340   38.6920  -68.8020 O.2   328  PRO328     -0.2865
     56  CB       -30.8230   39.1650  -69.7770 C.3   328  PRO328      0.0296
     57  CG       -29.4080   38.6750  -70.0180 C.3   328  PRO328      0.0237
     58  CD       -29.6230   37.2860  -70.5900 C.3   328  PRO328      0.0939
     59  N        -19.8960   39.0450  -65.3100 N.3   377  ASP377     -0.1239
     60  CA       -21.0660   39.4460  -66.0920 C.3   377  ASP377      0.1674
     61  C        -22.3550   39.1130  -65.3530 C.2   377  ASP377      0.2266
     62  O        -22.9640   38.0610  -65.5780 O.2   377  ASP377     -0.2867
     63  CB       -21.0360   38.8090  -67.5000 C.3   377  ASP377      0.1410
     64  CG       -19.8160   39.2490  -68.3170 C.2   377  ASP377      0.3668
     65  OD1      -19.1280   40.2060  -67.8990 O.co2 377  ASP377     -0.2456
     66  OD2      -19.5120   38.6240  -69.3600 O.co2 377  ASP377     -0.2456
     67  N        -23.1590   42.8810  -74.4220 N.3   392  ILE392     -0.1231
     68  CA       -24.1910   41.9070  -74.0760 C.3   392  ILE392      0.1678
     69  C        -25.3130   42.6320  -73.3360 C.2   392  ILE392      0.2434
     70  O        -25.0750   43.1540  -72.2350 O.2   392  ILE392     -0.2733
     71  CB       -23.6170   40.7620  -73.2270 C.3   392  ILE392      0.0265
     72  CG1      -22.4450   40.1000  -73.9600 C.3   392  ILE392      0.0019
     73  CG2      -24.7060   39.7390  -72.9230 C.3   392  ILE392      0.0020
     74  CD1      -21.6390   39.1490  -73.1110 C.3   392  ILE392      0.0001
     75  N        -26.5340   42.6790  -73.8820 N.am  393  PRO393     -0.2729
     76  CA       -27.6370   43.3450  -73.1730 C.3   393  PRO393      0.1401
     77  C        -27.9830   42.6360  -71.8660 C.2   393  PRO393      0.2269
     78  O        -27.9310   41.4100  -71.7620 O.2   393  PRO393     -0.2865
     79  CB       -28.8060   43.2720  -74.1760 C.3   393  PRO393      0.0296
     80  CG       -28.1680   43.0590  -75.5200 C.3   393  PRO393      0.0237
     81  CD       -26.9440   42.2010  -75.2160 C.3   393  PRO393      0.0939
     82  N        -26.5800   42.5510  -68.8490 N.3   395  VAL395     -0.1245
     83  CA       -25.5880   42.2230  -67.8300 C.3   395  VAL395      0.1561
     84  C        -24.6120   43.3850  -67.6710 C.2   395  VAL395      0.2260
     85  O        -24.5160   44.2800  -68.5200 O.2   395  VAL395     -0.2867
     86  CB       -24.8250   40.8970  -68.1190 C.3   395  VAL395      0.0252
     87  CG1      -25.8050   39.7660  -68.4370 C.3   395  VAL395      0.0019
     88  CG2      -23.8060   41.0730  -69.2190 C.3   395  VAL395      0.0019
@<TRIPOS>BOND
     1    80    81    1
     2    80    79    1
     3    81    75    1
     4    35    34    2
     5    36    34   am
     6    67    68    1
     7    34    33    1
     8    79    76    1
     9    68    69    1
    10    68    71    1
    11    72    71    1
    12    72    74    1
    13    75    69   am
    14    75    76    1
    15    69    70    2
    16    71    73    1
    17    76    77    1
    18    33    32    1
    19    32    29    1
    20    51    49    1
    21    50    49    1
    22    49    46    1
    23    77    78    2
    24    29    28    1
    25    29    30    1
    26     8     7   ar
    27     9     7   ar
    28    31    30    2
    29    27    26    1
    30    30    37   am
    31     7     6    1
    32    58    57    1
    33    58    52    1
    34    46    45    1
    35    46    47    1
    36    26    23    1
    37    57    56    1
    38    52    47   am
    39    52    53    1
    40    45    39   am
    41    56    53    1
    42    40    39    2
    43    37    38    1
    44    47    48    2
    45    39    38    1
    46    54    53    1
    47    54    55    2
    48    23    22    1
    49    23    24    1
    50    66    64   ar
    51    88    86    1
    52     6     5    1
    53    38    41    1
    54    82    83    1
    55    25    24    2
    56    22    12   am
    57    85    84    2
    58    87    86    1
    59     5     2    1
    60    64    65   ar
    61    64    63    1
    62    14    15    1
    63    14    11    1
    64    86    83    1
    65    12    13    2
    66    12    11    1
    67    83    84    1
    68    17    15   ar
    69    17    19   ar
    70    15    16   ar
    71    63    60    1
    72    41    42    1
    73    41    43    1
    74    11    10    1
    75    44    42    1
    76    19    20   ar
    77     2     1    1
    78     2     3    1
    79    16    18   ar
    80    20    18   ar
    81    20    21    1
    82     4     3    2
    83    60    61    1
    84    60    59    1
    85    62    61    2
