@<TRIPOS>MOLECULE
tmp/6aqgA04.pdb
 96 93 0 0 0
SMALL
GASTEIGER

@<TRIPOS>ATOM
      1  N          9.3270  -21.9140  -24.7050 N.3    59  VAL59      -0.1231
      2  CA        10.7020  -21.7100  -24.2690 C.3    59  VAL59       0.1692
      3  C         11.6750  -22.7440  -24.8340 C.2    59  VAL59       0.2592
      4  O         12.8910  -22.5050  -24.7860 O.2    59  VAL59      -0.2718
      5  CB        10.8070  -21.6580  -22.7290 C.3    59  VAL59       0.0266
      6  CG1       10.0990  -20.4070  -22.1910 C.3    59  VAL59       0.0020
      7  CG2       10.2350  -22.9230  -22.0930 C.3    59  VAL59       0.0020
      8  N         11.1860  -23.8670  -25.3680 N.am   60  PHE60      -0.1976
      9  CA        11.9940  -24.8940  -26.0180 C.3    60  PHE60       0.1639
     10  C         11.1770  -25.5140  -27.1410 C.2    60  PHE60       0.2290
     11  O          9.9490  -25.5720  -27.0670 O.2    60  PHE60      -0.2864
     12  CB        12.4280  -26.0110  -25.0530 C.3    60  PHE60       0.0560
     13  CG        13.7550  -25.7730  -24.4040 C.ar   60  PHE60      -0.0200
     14  CD1       14.9150  -26.3010  -24.9590 C.ar   60  PHE60      -0.0042
     15  CD2       13.8460  -25.0300  -23.2310 C.ar   60  PHE60      -0.0042
     16  CE1       16.1460  -26.0850  -24.3620 C.ar   60  PHE60      -0.0003
     17  CE2       15.0710  -24.8070  -22.6250 C.ar   60  PHE60      -0.0003
     18  CZ        16.2240  -25.3330  -23.1910 C.ar   60  PHE60      -0.0000
     19  N          5.8190  -22.5010  -20.9330 N.3    73  GLN73      -0.1245
     20  CA         6.0770  -22.0160  -19.5840 C.3    73  GLN73       0.1566
     21  C          5.0170  -20.9830  -19.2470 C.2    73  GLN73       0.2260
     22  O          4.8990  -19.9700  -19.9430 O.2    73  GLN73      -0.2867
     23  CB         7.4850  -21.4170  -19.4720 C.3    73  GLN73       0.0367
     24  CG         7.8160  -20.8180  -18.1100 C.3    73  GLN73       0.0905
     25  CD         9.2430  -20.2710  -18.0290 C.2    73  GLN73       0.2608
     26  OE1       10.2150  -21.0160  -18.1720 O.2    73  GLN73      -0.2717
     27  NE2        9.3680  -18.9630  -17.8060 N.am   73  GLN73      -0.0878
     28  N          6.0970  -25.4900  -16.2480 N.3    79  GLN79      -0.1245
     29  CA         6.3100  -25.9320  -17.6140 C.3    79  GLN79       0.1566
     30  C          5.4920  -27.1790  -17.9130 C.2    79  GLN79       0.2260
     31  O          5.2300  -28.0000  -17.0340 O.2    79  GLN79      -0.2867
     32  CB         7.7900  -26.1920  -17.8790 C.3    79  GLN79       0.0367
     33  CG         8.5980  -24.9120  -17.8690 C.3    79  GLN79       0.0905
     34  CD        10.0800  -25.1750  -18.0040 C.2    79  GLN79       0.2608
     35  OE1       10.5170  -26.3280  -18.0510 O.2    79  GLN79      -0.2717
     36  NE2       10.8630  -24.1100  -18.0680 N.am   79  GLN79      -0.0878
     37  N         10.6170  -19.1960  -30.5100 N.3   103  ILE103     -0.1245
     38  CA        10.8770  -19.1200  -29.0740 C.3   103  ILE103      0.1561
     39  C         10.4850  -17.7420  -28.5610 C.2   103  ILE103      0.2260
     40  O         10.8470  -16.7110  -29.1470 O.2   103  ILE103     -0.2867
     41  CB        12.3530  -19.4220  -28.7760 C.3   103  ILE103      0.0252
     42  CG1       12.7280  -20.8410  -29.2260 C.3   103  ILE103      0.0019
     43  CG2       12.6570  -19.1930  -27.2940 C.3   103  ILE103      0.0019
     44  CD1       11.9380  -21.9420  -28.5410 C.3   103  ILE103      0.0001
     45  N         13.9080  -14.1710  -26.5980 N.3   138  LEU138     -0.1231
     46  CA        14.3830  -14.2340  -25.2280 C.3   138  LEU138      0.1678
     47  C         15.8910  -14.4900  -25.1980 C.2   138  LEU138      0.2434
     48  O         16.4470  -15.0760  -26.1250 O.2   138  LEU138     -0.2733
     49  CB        13.6640  -15.3430  -24.4650 C.3   138  LEU138      0.0284
     50  CG        12.1570  -15.1660  -24.3090 C.3   138  LEU138      0.0019
     51  CD1       11.5440  -16.4640  -23.8600 C.3   138  LEU138      0.0001
     52  CD2       11.8230  -14.0130  -23.3390 C.3   138  LEU138      0.0001
     53  N         16.5760  -14.0450  -24.1480 N.am  139  PRO139     -0.2718
     54  CA        17.9650  -14.4720  -23.9420 C.3   139  PRO139      0.1535
     55  C         18.0300  -15.9920  -23.8530 C.2   139  PRO139      0.2598
     56  O         17.1240  -16.6310  -23.3140 O.2   139  PRO139     -0.2715
     57  CB        18.3430  -13.8190  -22.6060 C.3   139  PRO139      0.0310
     58  CG        17.3600  -12.7040  -22.4290 C.3   139  PRO139      0.0237
     59  CD        16.0930  -13.1710  -23.0710 C.3   139  PRO139      0.0939
     60  N         19.1040  -16.5700  -24.4050 N.am  140  VAL140     -0.1964
     61  CA        19.2650  -18.0230  -24.3700 C.3   140  VAL140      0.1727
     62  C         19.3350  -18.5320  -22.9330 C.2   140  VAL140      0.2616
     63  O         18.7950  -19.6000  -22.6280 O.2   140  VAL140     -0.2715
     64  CB        20.4910  -18.4590  -25.2050 C.3   140  VAL140      0.0290
     65  CG1       21.8030  -17.9320  -24.6150 C.3   140  VAL140      0.0023
     66  CG2       20.5300  -19.9740  -25.3370 C.3   140  VAL140      0.0023
     67  N         19.9360  -17.7610  -22.0190 N.am  141  ALA141     -0.1963
     68  CA        19.9500  -18.1020  -20.5990 C.3   141  ALA141      0.1728
     69  C         20.1040  -16.8330  -19.7630 C.2   141  ALA141      0.2616
     70  O         20.6730  -15.8340  -20.2150 O.2   141  ALA141     -0.2715
     71  CB        21.0800  -19.0920  -20.2750 C.3   141  ALA141      0.0334
     72  N         19.6280  -16.8910  -18.5110 N.am  142  HIS142     -0.1973
     73  CA        19.6570  -15.6790  -17.6960 C.3   142  HIS142      0.1656
     74  C         21.0830  -15.2410  -17.3850 C.2   142  HIS142      0.2291
     75  O         21.3140  -14.0490  -17.1700 O.2   142  HIS142     -0.2864
     76  CB        18.8330  -15.8560  -16.4080 C.3   142  HIS142      0.0771
     77  CG        19.4720  -16.7180  -15.3620 C.ar  142  HIS142      0.0820
     78  ND1       19.0950  -18.0290  -15.1450 N.ar  142  HIS142     -0.2267
     79  CD2       20.4320  -16.4460  -14.4450 C.ar  142  HIS142      0.1154
     80  CE1       19.8030  -18.5290  -14.1490 C.ar  142  HIS142      0.1986
     81  NE2       20.6170  -17.5880  -13.7020 N.ar  142  HIS142     -0.2212
     82  N         11.0310  -13.7010  -16.7720 N.3   159  ILE159     -0.1231
     83  CA        10.7360  -14.8560  -17.6230 C.3   159  ILE159      0.1692
     84  C         11.8830  -15.8600  -17.5880 C.2   159  ILE159      0.2591
     85  O         11.6580  -17.0740  -17.5570 O.2   159  ILE159     -0.2718
     86  CB        10.4400  -14.4080  -19.0690 C.3   159  ILE159      0.0266
     87  CG1        9.1310  -13.6290  -19.1560 C.3   159  ILE159      0.0019
     88  CG2       10.4140  -15.6120  -20.0150 C.3   159  ILE159      0.0020
     89  CD1        9.0850  -12.6850  -20.3320 C.3   159  ILE159      0.0001
     90  N         13.1330  -15.3910  -17.5860 N.am  160  VAL160     -0.1980
     91  CA        14.2480  -16.3160  -17.7700 C.3   160  VAL160      0.1595
     92  C         14.9910  -16.6940  -16.4900 C.2   160  VAL160      0.2287
     93  O         15.7530  -17.6700  -16.5100 O.2   160  VAL160     -0.2864
     94  CB        15.2500  -15.7700  -18.8060 C.3   160  VAL160      0.0276
     95  CG1       14.5610  -15.5900  -20.1520 C.3   160  VAL160      0.0022
     96  CG2       15.8650  -14.4720  -18.3190 C.3   160  VAL160      0.0022
@<TRIPOS>BOND
     1    37    38    1
     2    42    41    1
     3    42    44    1
     4    40    39    2
     5    38    41    1
     6    38    39    1
     7    41    43    1
     8    10    11    2
     9    10     9    1
    10    45    46    1
    11    48    47    2
    12     9     8    1
    13     9    12    1
    14     8     3   am
    15    66    64    1
    16    46    47    1
    17    46    49    1
    18    64    65    1
    19    64    61    1
    20    47    53   am
    21    12    13    1
    22    14    13   ar
    23    14    16   ar
    24     3     4    2
    25     3     2    1
    26     1     2    1
    27    49    50    1
    28    60    61    1
    29    60    55   am
    30    13    15   ar
    31    61    62    1
    32    16    18   ar
    33    50    51    1
    34    50    52    1
    35     2     5    1
    36    53    54    1
    37    53    59    1
    38    54    55    1
    39    54    57    1
    40    55    56    2
    41    15    17   ar
    42    18    17   ar
    43    59    58    1
    44    62    63    2
    45    62    67   am
    46     5     6    1
    47     5     7    1
    48    57    58    1
    49    67    68    1
    50    19    20    1
    51    68    71    1
    52    68    69    1
    53    89    87    1
    54    70    69    2
    55    95    94    1
    56    88    86    1
    57    22    21    2
    58    69    72   am
    59    20    23    1
    60    20    21    1
    61    23    24    1
    62    87    86    1
    63    86    83    1
    64    94    96    1
    65    94    91    1
    66    72    73    1
    67    26    25    2
    68    24    25    1
    69    36    34   am
    70    35    34    2
    71    25    27   am
    72    34    33    1
    73    30    29    1
    74    30    31    2
    75    32    33    1
    76    32    29    1
    77    91    90    1
    78    91    92    1
    79    73    74    1
    80    73    76    1
    81    83    84    1
    82    83    82    1
    83    29    28    1
    84    84    90   am
    85    84    85    2
    86    74    75    2
    87    93    92    2
    88    76    77    1
    89    77    78   ar
    90    77    79   ar
    91    78    80   ar
    92    79    81   ar
    93    80    81   ar
