@<TRIPOS>MOLECULE
tmp/6aqgC01.pdb
 106 97 0 0 0
SMALL
GASTEIGER

@<TRIPOS>ATOM
      1  N        -10.9100   55.2250  -22.1620 N.3   203  GLY203     -0.1210
      2  CA        -9.6230   55.6810  -22.6500 C.3   203  GLY203      0.1956
      3  C         -9.5240   57.1730  -22.8690 C.2   203  GLY203      0.2611
      4  O         -8.4770   57.6470  -23.3290 O.2   203  GLY203     -0.2717
      5  N        -10.5710   57.9220  -22.5380 N.am  204  ALA204     -0.1979
      6  CA       -10.6110   59.3730  -22.6530 C.3   204  ALA204      0.1597
      7  C        -11.8370   59.8450  -21.8890 C.2   204  ALA204      0.2287
      8  O        -12.7060   59.0500  -21.5260 O.2   204  ALA204     -0.2864
      9  CB       -10.6680   59.8260  -24.1150 C.3   204  ALA204      0.0319
     10  N        -11.2650   56.4760  -28.0460 N.3   225  ALA225     -0.1245
     11  CA        -9.8220   56.3020  -27.9520 C.3   225  ALA225      0.1562
     12  C         -9.5270   54.8070  -27.9710 C.2   225  ALA225      0.2260
     13  O        -10.3150   54.0260  -27.4340 O.2   225  ALA225     -0.2867
     14  CB        -9.2690   56.9460  -26.6650 C.3   225  ALA225      0.0290
     15  N         -7.0440   53.4270  -26.3510 N.3   227  GLU227     -0.1245
     16  CA        -6.0750   53.2390  -25.2670 C.3   227  GLU227      0.1567
     17  C         -6.2660   51.9360  -24.4830 C.2   227  GLU227      0.2260
     18  O         -5.3050   51.2040  -24.2410 O.2   227  GLU227     -0.2867
     19  CB        -6.1520   54.4360  -24.3140 C.3   227  GLU227      0.0388
     20  CG        -5.4120   54.2190  -22.9960 C.3   227  GLU227      0.1160
     21  CD        -4.9520   55.5270  -22.3880 C.2   227  GLU227      0.3649
     22  OE1       -5.2310   56.5880  -22.9930 O.co2 227  GLU227     -0.2457
     23  OE2       -4.3110   55.4980  -21.3200 O.co2 227  GLU227     -0.2457
     24  N        -15.9860   61.4390  -31.1090 N.3   249  ARG249     -0.1245
     25  CA       -16.3680   62.1290  -29.8820 C.3   249  ARG249      0.1563
     26  C        -17.5820   62.9850  -30.1800 C.2   249  ARG249      0.2260
     27  O        -17.5240   63.8830  -31.0250 O.2   249  ARG249     -0.2867
     28  CB       -15.2040   62.9560  -29.3260 C.3   249  ARG249      0.0307
     29  CG       -14.0250   62.0460  -29.0200 C.3   249  ARG249      0.0489
     30  CD       -12.8870   62.7020  -28.2930 C.3   249  ARG249      0.2205
     31  NE       -11.8250   61.7130  -28.1290 N.pl3 249  ARG249     -0.0865
     32  CZ       -10.6760   61.9480  -27.5060 C.cat 249  ARG249      0.5346
     33  NH1      -10.4310   63.1430  -26.9830 N.pl3 249  ARG249      0.1354
     34  NH2       -9.7720   60.9890  -27.4190 N.pl3 249  ARG249      0.1354
     35  N         -6.3350   59.9400  -35.0290 N.3   263  MET263     -0.1245
     36  CA        -5.4240   60.0370  -33.9070 C.3   263  MET263      0.1570
     37  C         -4.3490   58.9700  -34.0290 C.2   263  MET263      0.2261
     38  O         -4.5690   57.8970  -34.6050 O.2   263  MET263     -0.2867
     39  CB        -6.1660   59.8950  -32.5740 C.3   263  MET263      0.0387
     40  CG        -5.3390   60.3340  -31.3830 C.3   263  MET263      0.0595
     41  SD        -6.3260   60.7400  -29.9420 S.3   263  MET263     -0.1393
     42  CE        -6.8100   59.1090  -29.3290 C.3   263  MET263      0.0692
     43  N         -1.9820   56.7980  -31.4240 N.3   265  GLU265     -0.1245
     44  CA        -1.5970   56.3690  -30.0910 C.3   265  GLU265      0.1567
     45  C         -0.5000   55.3220  -30.2190 C.2   265  GLU265      0.2260
     46  O         -0.5750   54.4400  -31.0880 O.2   265  GLU265     -0.2867
     47  CB        -2.7760   55.8000  -29.3000 C.3   265  GLU265      0.0388
     48  CG        -3.7060   56.8650  -28.6760 C.3   265  GLU265      0.1160
     49  CD        -4.5580   56.3050  -27.5330 C.2   265  GLU265      0.3649
     50  OE1       -4.1570   55.2660  -26.9630 O.co2 265  GLU265     -0.2457
     51  OE2       -5.6140   56.8930  -27.1980 O.co2 265  GLU265     -0.2457
     52  N          2.4390   52.8530  -27.7500 N.3   267  TYR267     -0.1241
     53  CA         2.7810   52.2870  -26.4480 C.3   267  TYR267      0.1605
     54  C          4.1360   51.6020  -26.5550 C.2   267  TYR267      0.2264
     55  O          4.4270   50.9280  -27.5450 O.2   267  TYR267     -0.2867
     56  CB         1.6650   51.3380  -25.9400 C.3   267  TYR267      0.0534
     57  CG         0.4660   52.1690  -25.5750 C.ar  267  TYR267     -0.0201
     58  CD1       -0.4790   52.5090  -26.5390 C.ar  267  TYR267     -0.0009
     59  CD2        0.3380   52.7200  -24.3020 C.ar  267  TYR267     -0.0009
     60  CE1       -1.5410   53.3300  -26.2490 C.ar  267  TYR267      0.0417
     61  CE2       -0.7360   53.5540  -23.9860 C.ar  267  TYR267      0.0417
     62  CZ        -1.6750   53.8570  -24.9740 C.ar  267  TYR267      0.1957
     63  OH        -2.7480   54.6870  -24.7070 O.3   267  TYR267     -0.2866
     64  N          0.2780   64.2150  -26.1030 N.3   412  THR412     -0.1218
     65  CA         0.3620   63.9420  -24.6770 C.3   412  THR412      0.1862
     66  C          1.0110   62.5770  -24.4750 C.2   412  THR412      0.2287
     67  O          0.8960   61.6900  -25.3260 O.2   412  THR412     -0.2866
     68  CB        -1.0240   63.9990  -24.0120 C.3   412  THR412      0.1770
     69  OG1       -0.8890   63.8650  -22.5890 O.3   412  THR412     -0.2211
     70  CG2       -1.9110   62.8870  -24.5240 C.3   412  THR412      0.0375
     71  N          2.1700   59.5660  -21.2310 N.3   414  TYR414     -0.1241
     72  CA         2.1250   59.1140  -19.8440 C.3   414  TYR414      0.1605
     73  C          3.2330   58.1110  -19.5590 C.2   414  TYR414      0.2264
     74  O          3.6300   57.3380  -20.4320 O.2   414  TYR414     -0.2867
     75  CB         0.8130   58.3830  -19.4590 C.3   414  TYR414      0.0534
     76  CG        -0.5110   59.0380  -19.7450 C.ar  414  TYR414     -0.0201
     77  CD1       -0.6180   60.3920  -20.0550 C.ar  414  TYR414     -0.0009
     78  CD2       -1.6730   58.2830  -19.6970 C.ar  414  TYR414     -0.0009
     79  CE1       -1.8510   60.9660  -20.3280 C.ar  414  TYR414      0.0417
     80  CE2       -2.9030   58.8440  -19.9600 C.ar  414  TYR414      0.0417
     81  CZ        -2.9900   60.1860  -20.2740 C.ar  414  TYR414      0.1957
     82  OH        -4.2290   60.7270  -20.5360 O.3   414  TYR414     -0.2866
     83  N          2.6220   54.9630  -17.9190 N.3   416  GLU416     -0.1245
     84  CA         1.3160   54.3300  -17.7650 C.3   416  GLU416      0.1567
     85  C          1.1270   53.7090  -16.3800 C.2   416  GLU416      0.2260
     86  O          2.0560   53.1430  -15.7890 O.2   416  GLU416     -0.2867
     87  CB         1.1080   53.2710  -18.8490 C.3   416  GLU416      0.0388
     88  CG         1.2060   53.8290  -20.2770 C.3   416  GLU416      0.1160
     89  CD         0.1760   54.9330  -20.5780 C.2   416  GLU416      0.3649
     90  OE1        0.4220   55.7090  -21.5120 O.co2 416  GLU416     -0.2457
     91  OE2       -0.8810   55.0230  -19.9040 O.co2 416  GLU416     -0.2457
     92  N          2.8200   55.5320  -22.9940 N.3   461  GLY461     -0.1210
     93  CA         1.9740   55.7460  -24.1500 C.3   461  GLY461      0.1956
     94  C          1.9080   57.2170  -24.5200 C.2   461  GLY461      0.2613
     95  O          2.0970   58.0890  -23.6700 O.2   461  GLY461     -0.2717
     96  N          1.6590   57.4860  -25.8060 N.am  462  THR462     -0.1938
     97  CA         1.4260   58.8320  -26.3120 C.3   462  THR462      0.2028
     98  C          0.1580   58.8530  -27.1500 C.2   462  THR462      0.2642
     99  O         -0.2840   57.8310  -27.6780 O.2   462  THR462     -0.2714
    100  CB         2.5720   59.3700  -27.1880 C.3   462  THR462      0.1808
    101  OG1        2.6410   58.6210  -28.4070 O.3   462  THR462     -0.2208
    102  CG2        3.8920   59.2880  -26.4820 C.3   462  THR462      0.0379
    103  N         -0.4180   60.0450  -27.2660 N.am  463  GLY463     -0.1954
    104  CA        -1.5330   60.2970  -28.1550 C.3   463  GLY463      0.1869
    105  C         -1.3100   61.5850  -28.9250 C.2   463  GLY463      0.2309
    106  O         -0.7790   62.5530  -28.3690 O.2   463  GLY463     -0.2863
@<TRIPOS>BOND
     1    35    36    1
     2    38    37    2
     3    37    36    1
     4    36    39    1
     5    39    40    1
     6    43    44    1
     7    40    41    1
     8    24    25    1
     9    46    45    2
    10    27    26    2
    11    45    44    1
    12    26    25    1
    13    44    47    1
    14    41    42    1
    15    25    28    1
    16    28    29    1
    17    47    48    1
    18    29    30    1
    19   105   106    2
    20   105   104    1
    21    48    49    1
    22   101   100    1
    23    30    31    1
    24   104   103    1
    25    31    32    2
    26    10    11    1
    27    12    11    1
    28    12    13    2
    29    11    14    1
    30    52    53    1
    31    99    98    2
    32    55    54    2
    33    49    51   ar
    34    49    50   ar
    35    32    34    1
    36    32    33    1
    37   103    98   am
    38   100   102    1
    39   100    97    1
    40    98    97    1
    41    54    53    1
    42    58    60   ar
    43    58    57   ar
    44    53    56    1
    45    15    16    1
    46    97    96    1
    47    60    62   ar
    48    64    65    1
    49    56    57    1
    50    96    94   am
    51    57    59   ar
    52    67    66    2
    53    16    17    1
    54    16    19    1
    55    62    63    1
    56    62    61   ar
    57    65    66    1
    58    65    68    1
    59    70    68    1
    60    94    93    1
    61    94    95    2
    62    17    18    2
    63    19    20    1
    64    59    61   ar
    65    93    92    1
    66     9     6    1
    67    68    69    1
    68     4     3    2
    69    20    21    1
    70    22    21   ar
    71     3     2    1
    72     3     5   am
    73     6     5    1
    74     6     7    1
    75     2     1    1
    76    21    23   ar
    77     7     8    2
    78    90    89   ar
    79    71    72    1
    80    89    88    1
    81    89    91   ar
    82    82    81    1
    83    74    73    2
    84    79    81   ar
    85    79    77   ar
    86    88    87    1
    87    81    80   ar
    88    77    76   ar
    89    80    78   ar
    90    72    73    1
    91    72    75    1
    92    76    78   ar
    93    76    75    1
    94    87    84    1
    95    83    84    1
    96    84    85    1
    97    85    86    2
