@<TRIPOS>MOLECULE
tmp/6aqgC02.pdb
 134 125 0 0 0
SMALL
GASTEIGER

@<TRIPOS>ATOM
      1  N        -15.9860   61.4390  -31.1090 N.3   249  ARG249     -0.1245
      2  CA       -16.3680   62.1290  -29.8820 C.3   249  ARG249      0.1563
      3  C        -17.5820   62.9850  -30.1800 C.2   249  ARG249      0.2260
      4  O        -17.5240   63.8830  -31.0250 O.2   249  ARG249     -0.2867
      5  CB       -15.2040   62.9560  -29.3260 C.3   249  ARG249      0.0307
      6  CG       -14.0250   62.0460  -29.0200 C.3   249  ARG249      0.0489
      7  CD       -12.8870   62.7020  -28.2930 C.3   249  ARG249      0.2205
      8  NE       -11.8250   61.7130  -28.1290 N.pl3 249  ARG249     -0.0865
      9  CZ       -10.6760   61.9480  -27.5060 C.cat 249  ARG249      0.5346
     10  NH1      -10.4310   63.1430  -26.9830 N.pl3 249  ARG249      0.1354
     11  NH2       -9.7720   60.9890  -27.4190 N.pl3 249  ARG249      0.1354
     12  N        -19.1340   65.5200  -29.4750 N.3   251  GLU251     -0.1245
     13  CA       -19.0370   66.8790  -28.9380 C.3   251  GLU251      0.1567
     14  C        -18.9520   67.8800  -30.0770 C.2   251  GLU251      0.2260
     15  O        -18.9050   67.5130  -31.2500 O.2   251  GLU251     -0.2867
     16  CB       -17.8200   67.0440  -28.0220 C.3   251  GLU251      0.0388
     17  CG       -16.4700   66.6540  -28.6400 C.3   251  GLU251      0.1160
     18  CD       -15.4070   66.3250  -27.5770 C.2   251  GLU251      0.3649
     19  OE1      -15.7500   65.7540  -26.5110 O.co2 251  GLU251     -0.2457
     20  OE2      -14.2220   66.6430  -27.8000 O.co2 251  GLU251     -0.2457
     21  N        -10.4410   73.6140  -34.6270 N.3   256  THR256     -0.1203
     22  CA        -9.5210   72.5570  -34.2200 C.3   256  THR256      0.1994
     23  C        -10.2340   71.2890  -33.7540 C.2   256  THR256      0.2618
     24  O         -9.5600   70.3250  -33.3660 O.2   256  THR256     -0.2717
     25  CB        -8.5840   73.0580  -33.1040 C.3   256  THR256      0.1784
     26  OG1       -9.3610   73.5430  -32.0010 O.3   256  THR256     -0.2211
     27  CG2       -7.6850   74.1830  -33.6190 C.3   256  THR256      0.0376
     28  N        -11.5690   71.2650  -33.7820 N.am  257  HIS257     -0.1961
     29  CA       -12.3800   70.1280  -33.3680 C.3   257  HIS257      0.1787
     30  C        -13.2440   69.6510  -34.5290 C.2   257  HIS257      0.2620
     31  O        -13.5190   70.3900  -35.4810 O.2   257  HIS257     -0.2715
     32  CB       -13.2970   70.4680  -32.1740 C.3   257  HIS257      0.0785
     33  CG       -12.5840   70.6040  -30.8640 C.ar  257  HIS257      0.0821
     34  ND1      -11.9350   71.7600  -30.4830 N.ar  257  HIS257     -0.2267
     35  CD2      -12.4390   69.7360  -29.8350 C.ar  257  HIS257      0.1154
     36  CE1      -11.4100   71.5940  -29.2830 C.ar  257  HIS257      0.1986
     37  NE2      -11.7030   70.3750  -28.8670 N.ar  257  HIS257     -0.2212
     38  N        -13.7000   68.4090  -34.4080 N.am  258  SER258     -0.1950
     39  CA       -14.4870   67.6700  -35.3880 C.3   258  SER258      0.1924
     40  C        -14.9780   66.4010  -34.7020 C.2   258  SER258      0.2314
     41  O        -14.1780   65.6960  -34.0780 O.2   258  SER258     -0.2863
     42  CB       -13.6400   67.3540  -36.6270 C.3   258  SER258      0.2116
     43  OG       -14.2530   66.4100  -37.4960 O.3   258  SER258     -0.2180
     44  N        -12.2230   62.2650  -36.0580 N.3   261  PHE261     -0.1241
     45  CA       -10.8880   62.6990  -36.4500 C.3   261  PHE261      0.1605
     46  C         -9.8930   61.5530  -36.3120 C.2   261  PHE261      0.2264
     47  O        -10.1810   60.5090  -35.7250 O.2   261  PHE261     -0.2867
     48  CB       -10.4460   63.9270  -35.6350 C.3   261  PHE261      0.0534
     49  CG       -10.3200   63.6650  -34.1530 C.ar  261  PHE261     -0.0203
     50  CD1      -11.4310   63.7530  -33.3140 C.ar  261  PHE261     -0.0042
     51  CD2       -9.0880   63.3450  -33.5900 C.ar  261  PHE261     -0.0042
     52  CE1      -11.3090   63.5220  -31.9280 C.ar  261  PHE261     -0.0003
     53  CE2       -8.9640   63.1050  -32.2080 C.ar  261  PHE261     -0.0003
     54  CZ       -10.0740   63.1960  -31.3830 C.ar  261  PHE261     -0.0000
     55  N         -6.3350   59.9400  -35.0290 N.3   263  MET263     -0.1245
     56  CA        -5.4240   60.0370  -33.9070 C.3   263  MET263      0.1570
     57  C         -4.3490   58.9700  -34.0290 C.2   263  MET263      0.2261
     58  O         -4.5690   57.8970  -34.6050 O.2   263  MET263     -0.2867
     59  CB        -6.1660   59.8950  -32.5740 C.3   263  MET263      0.0387
     60  CG        -5.3390   60.3340  -31.3830 C.3   263  MET263      0.0595
     61  SD        -6.3260   60.7400  -29.9420 S.3   263  MET263     -0.1393
     62  CE        -6.8100   59.1090  -29.3290 C.3   263  MET263      0.0692
     63  N          1.8390   67.2840  -21.5440 N.3   402  ASP402     -0.1239
     64  CA         1.1360   67.7950  -22.7160 C.3   402  ASP402      0.1674
     65  C          2.1170   68.6070  -23.5460 C.2   402  ASP402      0.2266
     66  O          2.9880   69.2890  -22.9930 O.2   402  ASP402     -0.2867
     67  CB        -0.0570   68.6830  -22.3360 C.3   402  ASP402      0.1410
     68  CG        -1.3300   67.8970  -22.0670 C.2   402  ASP402      0.3668
     69  OD1       -1.3810   66.6820  -22.3810 O.co2 402  ASP402     -0.2456
     70  OD2       -2.2920   68.5070  -21.5360 O.co2 402  ASP402     -0.2456
     71  N         -2.6410   72.5110  -28.5920 N.3   409  GLU409     -0.1231
     72  CA        -2.4430   71.2830  -27.8240 C.3   409  GLU409      0.1699
     73  C         -2.3030   70.1120  -28.7920 C.2   409  GLU409      0.2592
     74  O         -3.2910   69.6580  -29.3760 O.2   409  GLU409     -0.2718
     75  CB        -3.6080   71.0780  -26.8600 C.3   409  GLU409      0.0402
     76  CG        -3.5770   69.7630  -26.0990 C.3   409  GLU409      0.1161
     77  CD        -4.6630   69.6720  -25.0400 C.2   409  GLU409      0.3649
     78  OE1       -5.1280   70.7340  -24.5730 O.co2 409  GLU409     -0.2457
     79  OE2       -5.0540   68.5400  -24.6800 O.co2 409  GLU409     -0.2457
     80  N         -1.0790   69.6150  -28.9710 N.am  410  LEU410     -0.1966
     81  CA        -0.7810   68.6890  -30.0570 C.3   410  LEU410      0.1728
     82  C         -0.7020   67.2240  -29.6280 C.2   410  LEU410      0.2616
     83  O         -1.2680   66.3590  -30.3030 O.2   410  LEU410     -0.2715
     84  CB         0.5290   69.1120  -30.7380 C.3   410  LEU410      0.0311
     85  CG         1.0540   68.1650  -31.8280 C.3   410  LEU410      0.0022
     86  CD1        0.0270   67.9150  -32.9440 C.3   410  LEU410      0.0001
     87  CD2        2.3440   68.7080  -32.4090 C.3   410  LEU410      0.0001
     88  N         -0.0120   66.9210  -28.5270 N.am  411  ALA411     -0.1963
     89  CA         0.2120   65.5380  -28.1180 C.3   411  ALA411      0.1728
     90  C          0.2870   65.4520  -26.6010 C.2   411  ALA411      0.2616
     91  O          0.3700   66.4650  -25.8990 O.2   411  ALA411     -0.2715
     92  CB         1.4960   64.9640  -28.7260 C.3   411  ALA411      0.0334
     93  N          0.2780   64.2150  -26.1030 N.am  412  THR412     -0.1951
     94  CA         0.3620   63.9420  -24.6770 C.3   412  THR412      0.1897
     95  C          1.0110   62.5770  -24.4750 C.2   412  THR412      0.2313
     96  O          0.8960   61.6900  -25.3260 O.2   412  THR412     -0.2863
     97  CB        -1.0240   63.9990  -24.0120 C.3   412  THR412      0.1794
     98  OG1       -0.8890   63.8650  -22.5890 O.3   412  THR412     -0.2208
     99  CG2       -1.9110   62.8870  -24.5240 C.3   412  THR412      0.0378
    100  N         -0.4180   60.0450  -27.2660 N.3   463  GLY463     -0.1225
    101  CA        -1.5330   60.2970  -28.1550 C.3   463  GLY463      0.1811
    102  C         -1.3100   61.5850  -28.9250 C.2   463  GLY463      0.2280
    103  O         -0.7790   62.5530  -28.3690 O.2   463  GLY463     -0.2866
    104  N         -3.2030   64.0880  -32.1570 N.3   465  GLY465     -0.1225
    105  CA        -4.1640   64.3200  -33.2150 C.3   465  GLY465      0.1811
    106  C         -3.4340   64.5020  -34.5290 C.2   465  GLY465      0.2280
    107  O         -2.5300   65.3490  -34.6270 O.2   465  GLY465     -0.2866
    108  N         -4.8380   65.3940  -37.4690 N.3   467  ASP467     -0.1225
    109  CA        -5.3190   66.6460  -38.0460 C.3   467  ASP467      0.1805
    110  C         -4.6570   67.8450  -37.3770 C.2   467  ASP467      0.2597
    111  O         -4.2460   68.7870  -38.0580 O.2   467  ASP467     -0.2718
    112  CB        -6.8450   66.6970  -37.9380 C.3   467  ASP467      0.1424
    113  CG        -7.4870   65.2930  -38.0900 C.2   467  ASP467      0.3668
    114  OD1       -7.7610   64.8480  -39.2320 O.co2 467  ASP467     -0.2456
    115  OD2       -7.6680   64.6080  -37.0560 O.co2 467  ASP467     -0.2456
    116  N         -4.4840   67.8020  -36.0480 N.am  468  ARG468     -0.1979
    117  CA        -3.7830   68.8840  -35.3560 C.3   468  ARG468      0.1597
    118  C         -2.3180   68.9420  -35.7500 C.2   468  ARG468      0.2287
    119  O         -1.7490   70.0330  -35.8580 O.2   468  ARG468     -0.2864
    120  CB        -3.9050   68.7330  -33.8440 C.3   468  ARG468      0.0334
    121  CG        -5.2760   69.0680  -33.3620 C.3   468  ARG468      0.0492
    122  CD        -5.3170   69.3530  -31.8990 C.3   468  ARG468      0.2205
    123  NE        -6.6350   69.8680  -31.5570 N.pl3 468  ARG468     -0.0865
    124  CZ        -7.1460   69.8710  -30.3350 C.cat 468  ARG468      0.5346
    125  NH1       -6.4460   69.3850  -29.3220 N.pl3 468  ARG468      0.1354
    126  NH2       -8.3600   70.3580  -30.1320 N.pl3 468  ARG468      0.1354
    127  N         -8.8150   72.0520  -39.5190 N.3   478  ILE478     -0.1245
    128  CA        -9.1190   70.6590  -39.8350 C.3   478  ILE478      0.1561
    129  C        -10.1120   70.5690  -40.9850 C.2   478  ILE478      0.2260
    130  O        -10.0850   69.6040  -41.7540 O.2   478  ILE478     -0.2867
    131  CB        -9.6320   69.8920  -38.5980 C.3   478  ILE478      0.0252
    132  CG1       -9.9130   68.4340  -38.9770 C.3   478  ILE478      0.0019
    133  CG2      -10.8860   70.5410  -38.0290 C.3   478  ILE478      0.0019
    134  CD1      -10.3870   67.5450  -37.8420 C.3   478  ILE478      0.0001
@<TRIPOS>BOND
     1   130   129    2
     2   129   128    1
     3   128   127    1
     4   128   131    1
     5   114   113   ar
     6   132   131    1
     7   132   134    1
     8   131   133    1
     9   113   112    1
    10   113   115   ar
    11   111   110    2
    12   109   112    1
    13   109   108    1
    14   109   110    1
    15    43    42    1
    16   110   116   am
    17    42    39    1
    18    45    46    1
    19    45    44    1
    20    45    48    1
    21    46    47    2
    22   116   117    1
    23   119   118    2
    24   118   117    1
    25    48    49    1
    26    31    30    2
    27    39    40    1
    28    39    38    1
    29   117   120    1
    30    55    56    1
    31    40    41    2
    32   107   106    2
    33    21    22    1
    34    58    57    2
    35    30    38   am
    36    30    29    1
    37   106   105    1
    38    22    23    1
    39    22    25    1
    40    49    51   ar
    41    49    50   ar
    42    57    56    1
    43    56    59    1
    44   120   121    1
    45    28    23   am
    46    28    29    1
    47    23    24    2
    48    27    25    1
    49    51    53   ar
    50    29    32    1
    51   121   122    1
    52    50    52   ar
    53   105   104    1
    54    25    26    1
    55    86    85    1
    56    59    60    1
    57    87    85    1
    58    53    54   ar
    59    32    33    1
    60    52    54   ar
    61   122   123    1
    62    85    84    1
    63   123   124    2
    64    60    61    1
    65    15    14    2
    66     1     2    1
    67     4     3    2
    68    33    34   ar
    69    33    35   ar
    70    84    81    1
    71    34    36   ar
    72   124   126    1
    73   124   125    1
    74    83    82    2
    75     3     2    1
    76    14    13    1
    77    81    82    1
    78    81    80    1
    79    61    62    1
    80     2     5    1
    81    35    37   ar
    82    82    88   am
    83    12    13    1
    84    74    73    2
    85     5     6    1
    86    36    37   ar
    87     6     7    1
    88    80    73   am
    89    13    16    1
    90   102   103    2
    91   102   101    1
    92    73    72    1
    93    92    89    1
    94    17    16    1
    95    17    18    1
    96    71    72    1
    97    88    89    1
    98     7     8    1
    99   101   100    1
   100     8     9    2
   101    89    90    1
   102    72    75    1
   103    20    18   ar
   104    18    19   ar
   105     9    11    1
   106     9    10    1
   107    75    76    1
   108    90    93   am
   109    90    91    2
   110    93    94    1
   111    76    77    1
   112    96    95    2
   113    77    79   ar
   114    77    78   ar
   115    94    95    1
   116    94    97    1
   117    99    97    1
   118    97    98    1
   119    65    66    2
   120    65    64    1
   121    64    67    1
   122    64    63    1
   123    69    68   ar
   124    67    68    1
   125    68    70   ar
