@<TRIPOS>MOLECULE
tmp/6aqjA00.pdb
 76 71 0 0 0
SMALL
GASTEIGER

@<TRIPOS>ATOM
      1  N          2.6930    3.0810    5.7490 N.3    27  GLN27      -0.1245
      2  CA         2.3260    1.7910    6.3270 C.3    27  GLN27       0.1566
      3  C          0.8210    1.5540    6.2610 C.2    27  GLN27       0.2260
      4  O          0.4070    0.4420    5.9550 O.2    27  GLN27      -0.2867
      5  CB         2.8160    1.6630    7.7640 C.3    27  GLN27       0.0367
      6  CG         4.3580    1.5540    7.8240 C.3    27  GLN27       0.0905
      7  CD         4.8970    0.2120    7.3530 C.2    27  GLN27       0.2608
      8  OE1        4.3170   -0.8540    7.6290 O.2    27  GLN27      -0.2717
      9  NE2        6.0070    0.2240    6.6650 N.am   27  GLN27      -0.0878
     10  N          4.5100    9.1050   14.3580 N.3    81  ASP81      -0.1239
     11  CA         4.8040    8.8940   15.7740 C.3    81  ASP81       0.1674
     12  C          4.6140   10.1550   16.6180 C.2    81  ASP81       0.2266
     13  O          4.2060   10.0540   17.7850 O.2    81  ASP81      -0.2867
     14  CB         6.2370    8.3890   15.9060 C.3    81  ASP81       0.1410
     15  CG         6.4050    7.0570   15.2140 C.2    81  ASP81       0.3668
     16  OD1        5.7470    6.0740   15.6820 O.co2  81  ASP81      -0.2456
     17  OD2        7.1290    6.9770   14.1960 O.co2  81  ASP81      -0.2456
     18  N          5.5900    0.4830   15.2900 N.3   106  HIS106     -0.1241
     19  CA         6.8520    0.9480   15.8590 C.3   106  HIS106      0.1621
     20  C          6.6100    1.1070   17.3470 C.2   106  HIS106      0.2264
     21  O          5.5420    1.5820   17.7250 O.2   106  HIS106     -0.2867
     22  CB         7.2260    2.2950   15.2040 C.3   106  HIS106      0.0745
     23  CG         8.5230    2.9210   15.6290 C.ar  106  HIS106      0.0817
     24  ND1        9.6800    2.2070   15.9000 N.ar  106  HIS106     -0.2268
     25  CD2        8.8500    4.2280   15.6910 C.ar  106  HIS106      0.1154
     26  CE1       10.6800    3.0810   16.1170 C.ar  106  HIS106      0.1986
     27  NE2       10.1950    4.3100   15.9800 N.ar  106  HIS106     -0.2212
     28  N          7.0430   -3.9580   10.1740 N.3   128  PRO128     -0.2116
     29  CA         7.7610   -4.3860    8.9710 C.3   128  PRO128      0.1372
     30  C          9.0960   -3.6740    8.8730 C.2   128  PRO128      0.2244
     31  O          9.1730   -2.4610    9.0540 O.2   128  PRO128     -0.2868
     32  CB         6.8090   -3.9640    7.8260 C.3   128  PRO128      0.0268
     33  CG         5.4570   -3.8920    8.4810 C.3   128  PRO128      0.0207
     34  CD         5.7570   -3.3030    9.8480 C.3   128  PRO128      0.0892
     35  N         10.7770   -2.5280    6.4810 N.3   130  GLY130     -0.1210
     36  CA        10.8320   -1.9730    5.1360 C.3   130  GLY130      0.1940
     37  C          9.8380   -0.8540    4.9380 C.2   130  GLY130      0.2453
     38  O          8.8790   -0.7230    5.6980 O.2   130  GLY130     -0.2732
     39  N          9.9920   -0.0760    3.8730 N.am  131  PRO131     -0.2728
     40  CA         9.0680    1.0350    3.6160 C.3   131  PRO131      0.1401
     41  C          7.6810    0.5440    3.2200 C.2   131  PRO131      0.2269
     42  O          7.5480   -0.4220    2.4690 O.2   131  PRO131     -0.2865
     43  CB         9.7590    1.8280    2.4860 C.3   131  PRO131      0.0296
     44  CG        10.6030    0.7680    1.7390 C.3   131  PRO131      0.0237
     45  CD        11.0360   -0.2380    2.8440 C.3   131  PRO131      0.0939
     46  N         15.2510    0.0440   15.4450 N.3   189  ASP189     -0.1239
     47  CA        14.6380    0.6970   14.2740 C.3   189  ASP189      0.1674
     48  C         15.1480    2.1190   14.1300 C.2   189  ASP189      0.2266
     49  O         15.5300    2.5550   13.0250 O.2   189  ASP189     -0.2867
     50  CB        13.1020    0.7030   14.4240 C.3   189  ASP189      0.1410
     51  CG        12.4410    1.2540   13.2400 C.2   189  ASP189      0.3668
     52  OD1       12.1460    2.4350   13.2250 O.co2 189  ASP189     -0.2456
     53  OD2       12.3420    0.4500   12.2660 O.co2 189  ASP189     -0.2456
     54  N         17.5410    3.2910   10.7340 N.3   193  GLU193     -0.1245
     55  CA        17.1970    4.3640    9.8090 C.3   193  GLU193      0.1567
     56  C         18.1830    5.5260    9.9250 C.2   193  GLU193      0.2260
     57  O         18.5190    6.1650    8.9040 O.2   193  GLU193     -0.2867
     58  CB        15.7090    4.7810    9.9680 C.3   193  GLU193      0.0388
     59  CG        15.3990    5.4290   11.3530 C.3   193  GLU193      0.1160
     60  CD        13.9530    5.3130   11.7920 C.2   193  GLU193      0.3649
     61  OE1       13.5390    6.1390   12.6210 O.co2 193  GLU193     -0.2457
     62  OE2       13.2330    4.3710   11.3350 O.co2 193  GLU193     -0.2457
     63  N         20.3480    3.0360    6.9500 N.3   197  LEU197     -0.1231
     64  CA        19.4140    2.9310    5.8250 C.3   197  LEU197      0.1693
     65  C         19.0660    4.2580    5.2000 C.2   197  LEU197      0.2592
     66  O         18.7800    4.3140    3.9850 O.2   197  LEU197     -0.2718
     67  CB        18.1210    2.2810    6.2820 C.3   197  LEU197      0.0284
     68  CG        18.1900    0.8860    6.8340 C.3   197  LEU197      0.0019
     69  CD1       16.8590    0.5460    7.4510 C.3   197  LEU197      0.0001
     70  CD2       18.5800   -0.1350    5.7050 C.3   197  LEU197      0.0001
     71  N         18.9530    5.3040    5.9890 N.am  198  CYS198     -0.1970
     72  CA        18.5550    6.6200    5.4990 C.3   198  CYS198      0.1712
     73  C         19.6740    7.6120    5.7070 C.2   198  CYS198      0.2296
     74  O         20.3280    8.0200    4.7510 O.2   198  CYS198     -0.2864
     75  CB        17.2600    7.0920    6.1580 C.3   198  CYS198      0.0983
     76  SG        15.8500    5.9690    5.8740 S.3   198  CYS198     -0.0798
@<TRIPOS>BOND
     1    44    43    1
     2    44    45    1
     3    42    41    2
     4    43    40    1
     5    45    39    1
     6    41    40    1
     7    40    39    1
     8    39    37   am
     9    66    65    2
    10    74    73    2
    11    37    36    1
    12    37    38    2
    13    36    35    1
    14    65    64    1
    15    65    71   am
    16    72    73    1
    17    72    71    1
    18    72    75    1
    19    70    68    1
    20     1     2    1
    21    64    67    1
    22    64    63    1
    23    76    75    1
    24     4     3    2
    25     3     2    1
    26    67    68    1
    27     2     5    1
    28     9     7   am
    29    68    69    1
    30     7     8    2
    31     7     6    1
    32     5     6    1
    33    32    33    1
    34    32    29    1
    35    33    34    1
    36    30    29    1
    37    30    31    2
    38    57    56    2
    39    29    28    1
    40    55    56    1
    41    55    58    1
    42    55    54    1
    43    34    28    1
    44    58    59    1
    45    62    60   ar
    46    59    60    1
    47    60    61   ar
    48    53    51   ar
    49    49    48    2
    50    52    51   ar
    51    51    50    1
    52    48    47    1
    53    17    15   ar
    54    47    50    1
    55    47    46    1
    56    10    11    1
    57    22    23    1
    58    22    19    1
    59    15    16   ar
    60    15    14    1
    61    18    19    1
    62    23    25   ar
    63    23    24   ar
    64    25    27   ar
    65    11    14    1
    66    11    12    1
    67    19    20    1
    68    24    26   ar
    69    27    26   ar
    70    12    13    2
    71    20    21    2
