@<TRIPOS>MOLECULE
tmp/6aqnA01.pdb
 102 100 0 0 0
SMALL
GASTEIGER

@<TRIPOS>ATOM
      1  N         19.2530   -5.4020   27.7370 N.3    23  LEU23      -0.1231
      2  CA        19.4490   -3.9560   27.7590 C.3    23  LEU23       0.1693
      3  C         18.6960   -3.2470   26.6420 C.2    23  LEU23       0.2591
      4  O         18.4610   -2.0380   26.7430 O.2    23  LEU23      -0.2718
      5  CB        20.9420   -3.6260   27.6620 C.3    23  LEU23       0.0284
      6  CG        21.8040   -4.0790   28.8460 C.3    23  LEU23       0.0019
      7  CD1       23.2830   -4.0420   28.4870 C.3    23  LEU23       0.0001
      8  CD2       21.5410   -3.2150   30.0700 C.3    23  LEU23       0.0001
      9  N         18.3150   -3.9680   25.5860 N.am   24  LYS24      -0.1980
     10  CA        17.5200   -3.3690   24.5200 C.3    24  LYS24       0.1596
     11  C         16.0810   -3.1590   24.9750 C.2    24  LYS24       0.2287
     12  O         15.5620   -2.0370   24.9450 O.2    24  LYS24      -0.2864
     13  CB        17.5740   -4.2600   23.2750 C.3    24  LYS24       0.0298
     14  CG        17.1780   -3.5740   21.9740 C.3    24  LYS24       0.0038
     15  CD        17.4220   -4.4960   20.7840 C.3    24  LYS24       0.0206
     16  CE        17.4510   -3.7420   19.4620 C.3    24  LYS24       0.1093
     17  NZ        18.2460   -4.4760   18.4360 N.3    24  LYS24      -0.1314
     18  N         15.5070   -1.6180   30.9040 N.3    27  PHE27      -0.1227
     19  CA        16.5190   -0.6470   31.3170 C.3    27  PHE27       0.1736
     20  C         16.5110    0.5740   30.3920 C.2    27  PHE27       0.2595
     21  O         17.3890    0.7670   29.5490 O.2    27  PHE27      -0.2718
     22  CB        17.9110   -1.2880   31.3540 C.3    27  PHE27       0.0547
     23  CG        18.0310   -2.4330   32.3190 C.ar   27  PHE27      -0.0202
     24  CD1       18.1190   -2.2010   33.6820 C.ar   27  PHE27      -0.0042
     25  CD2       18.0710   -3.7410   31.8630 C.ar   27  PHE27      -0.0042
     26  CE1       18.2350   -3.2510   34.5720 C.ar   27  PHE27      -0.0003
     27  CE2       18.1860   -4.7970   32.7480 C.ar   27  PHE27      -0.0003
     28  CZ        18.2690   -4.5520   34.1040 C.ar   27  PHE27      -0.0000
     29  N         15.4830    1.4000   30.5770 N.am   28  ASP28      -0.1960
     30  CA        15.4130    2.6740   29.8730 C.3    28  ASP28       0.1840
     31  C         16.6660    3.4960   30.1430 C.2    28  ASP28       0.2622
     32  O         17.0750    3.6680   31.2940 O.2    28  ASP28      -0.2715
     33  CB        14.1730    3.4600   30.3100 C.3    28  ASP28       0.1450
     34  CG        12.9140    3.0360   29.5750 C.2    28  ASP28       0.3671
     35  OD1       13.0280    2.4090   28.4990 O.co2  28  ASP28      -0.2456
     36  OD2       11.8090    3.3430   30.0730 O.co2  28  ASP28      -0.2456
     37  N         17.2510    3.9680   29.0650 N.am   29  THR29      -0.1951
     38  CA        18.4480    4.8150   29.1590 C.3    29  THR29       0.1897
     39  C         18.0600    6.2430   29.5830 C.2    29  THR29       0.2313
     40  O         18.8970    7.0700   29.8610 O.2    29  THR29      -0.2863
     41  CB        19.2790    4.8980   27.8580 C.3    29  THR29       0.1794
     42  OG1       18.4930    5.5480   26.8670 O.3    29  THR29      -0.2208
     43  CG2       19.7310    3.5140   27.4040 C.3    29  THR29       0.0378
     44  N         24.3030    3.4010   31.6030 N.3   190  HIS190     -0.1241
     45  CA        23.6610    2.8720   30.4020 C.3   190  HIS190      0.1621
     46  C         23.2100    4.0410   29.5310 C.2   190  HIS190      0.2264
     47  O         22.1800    4.6670   29.7960 O.2   190  HIS190     -0.2867
     48  CB        22.4920    1.9740   30.7960 C.3   190  HIS190      0.0745
     49  CG        21.8630    1.2500   29.6460 C.ar  190  HIS190      0.0817
     50  ND1       20.5850    0.7360   29.7020 N.ar  190  HIS190     -0.2268
     51  CD2       22.3380    0.9450   28.4160 C.ar  190  HIS190      0.1154
     52  CE1       20.2980    0.1510   28.5520 C.ar  190  HIS190      0.1986
     53  NE2       21.3450    0.2630   27.7550 N.ar  190  HIS190     -0.2212
     54  N         22.1340    5.4170   25.6420 N.3   192  SER192     -0.1202
     55  CA        21.5610    4.9140   24.4030 C.3   192  SER192      0.2020
     56  C         22.5170    5.1490   23.2410 C.2   192  SER192      0.2619
     57  O         23.2230    6.1610   23.1900 O.2   192  SER192     -0.2717
     58  CB        20.2210    5.5890   24.1080 C.3   192  SER192      0.2103
     59  OG        20.3530    7.0000   24.0890 O.3   192  SER192     -0.2182
     60  N         22.5410    4.1930   22.3090 N.am  193  LYS193     -0.1965
     61  CA        23.2740    4.3790   21.0610 C.3   193  LYS193      0.1728
     62  C         22.9480    5.7260   20.4350 C.2   193  LYS193      0.2616
     63  O         23.8230    6.3910   19.8670 O.2   193  LYS193     -0.2715
     64  CB        22.9310    3.2400   20.0990 C.3   193  LYS193      0.0311
     65  CG        23.8400    3.1090   18.8940 C.3   193  LYS193      0.0038
     66  CD        23.6290    1.7600   18.2200 C.3   193  LYS193      0.0206
     67  CE        24.0190    1.7850   16.7560 C.3   193  LYS193      0.1093
     68  NZ        24.6900    0.5180   16.3430 N.3   193  LYS193     -0.1314
     69  N         21.6870    6.1460   20.5400 N.am  194  LYS194     -0.1977
     70  CA        21.2660    7.4270   19.9840 C.3   194  LYS194      0.1596
     71  C         21.9220    8.5870   20.7250 C.2   194  LYS194      0.2287
     72  O         22.4200    9.5310   20.1000 O.2   194  LYS194     -0.2864
     73  CB        19.7320    7.5050   20.0260 C.3   194  LYS194      0.0298
     74  CG        19.0670    8.8550   20.3060 C.3   194  LYS194      0.0038
     75  CD        17.9800    8.6780   21.3550 C.3   194  LYS194      0.0206
     76  CE        17.3220    9.9890   21.7400 C.3   194  LYS194      0.1093
     77  NZ        16.1270   10.2920   20.8930 N.3   194  LYS194     -0.1314
     78  N         28.6700   -1.9930   18.8050 N.3   224  TRP224     -0.1241
     79  CA        27.6740   -1.7480   19.8430 C.3   224  TRP224      0.1605
     80  C         26.9790   -3.0380   20.2650 C.2   224  TRP224      0.2264
     81  O         26.8880   -3.3460   21.4590 O.2   224  TRP224     -0.2867
     82  CB        26.6460   -0.7270   19.3580 C.3   224  TRP224      0.0550
     83  CG        25.6800   -0.3410   20.4280 C.ar  224  TRP224      0.0003
     84  CD1       24.5380   -1.0010   20.7750 C.ar  224  TRP224      0.0946
     85  CD2       25.7730    0.7890   21.3030 C.ar  224  TRP224      0.0152
     86  NE1       23.9140   -0.3530   21.8120 N.ar  224  TRP224     -0.2442
     87  CE2       24.6510    0.7500   22.1550 C.ar  224  TRP224      0.0810
     88  CE3       26.6960    1.8290   21.4500 C.ar  224  TRP224      0.0012
     89  CZ2       24.4250    1.7120   23.1380 C.ar  224  TRP224      0.0191
     90  CZ3       26.4690    2.7840   22.4270 C.ar  224  TRP224      0.0001
     91  CH2       25.3430    2.7190   23.2570 C.ar  224  TRP224      0.0015
     92  N         26.8610   -4.7580   24.0170 N.3   228  ARG228     -0.1245
     93  CA        25.6360   -5.0100   24.7690 C.3   228  ARG228      0.1563
     94  C         25.5520   -6.4680   25.1960 C.2   228  ARG228      0.2260
     95  O         25.1850   -6.7690   26.3380 O.2   228  ARG228     -0.2867
     96  CB        24.4140   -4.6230   23.9340 C.3   228  ARG228      0.0307
     97  CG        23.0690   -4.8550   24.6210 C.3   228  ARG228      0.0489
     98  CD        22.0100   -5.2240   23.6070 C.3   228  ARG228      0.2205
     99  NE        21.6970   -4.1040   22.7240 N.pl3 228  ARG228     -0.0865
    100  CZ        21.3810   -4.2160   21.4370 C.cat 228  ARG228      0.5346
    101  NH1       21.3480   -5.4040   20.8480 N.pl3 228  ARG228      0.1354
    102  NH2       21.1100   -3.1300   20.7270 N.pl3 228  ARG228      0.1354
@<TRIPOS>BOND
     1    68    67    1
     2    67    66    1
     3    66    65    1
     4    17    16    1
     5    78    79    1
     6    65    64    1
     7    82    79    1
     8    82    83    1
     9    16    15    1
    10    79    80    1
    11    63    62    2
    12    70    73    1
    13    70    69    1
    14    70    71    1
    15    73    74    1
    16    64    61    1
    17    72    71    2
    18    80    81    2
    19    74    75    1
    20    83    84   ar
    21    83    85   ar
    22    62    69   am
    23    62    61    1
    24   102   100    1
    25    84    86   ar
    26    15    14    1
    27   101   100    1
    28    77    76    1
    29    61    60    1
    30    85    88   ar
    31    85    87   ar
    32    75    76    1
    33   100    99    2
    34    88    90   ar
    35    86    87   ar
    36    14    13    1
    37    87    89   ar
    38    60    56   am
    39    90    91   ar
    40    99    98    1
    41    89    91   ar
    42    57    56    2
    43    56    55    1
    44    13    10    1
    45    98    97    1
    46    96    97    1
    47    96    93    1
    48    92    93    1
    49    59    58    1
    50    58    55    1
    51    55    54    1
    52    10    11    1
    53    10     9    1
    54    93    94    1
    55    12    11    2
    56    94    95    2
    57     9     3   am
    58     3     4    2
    59     3     2    1
    60    42    41    1
    61    43    41    1
    62     5     2    1
    63     5     6    1
    64     1     2    1
    65    53    51   ar
    66    53    52   ar
    67    41    38    1
    68    51    49   ar
    69     7     6    1
    70    35    34   ar
    71    52    50   ar
    72     6     8    1
    73    37    38    1
    74    37    31   am
    75    38    39    1
    76    46    47    2
    77    46    45    1
    78    21    20    2
    79    34    36   ar
    80    34    33    1
    81    39    40    2
    82    49    50   ar
    83    49    48    1
    84    30    31    1
    85    30    33    1
    86    30    29    1
    87    31    32    2
    88    20    29   am
    89    20    19    1
    90    45    48    1
    91    45    44    1
    92    18    19    1
    93    19    22    1
    94    22    23    1
    95    25    23   ar
    96    25    27   ar
    97    23    24   ar
    98    27    28   ar
    99    24    26   ar
   100    28    26   ar
