@<TRIPOS>MOLECULE
tmp/6aqnA00.pdb
 104 100 0 0 0
SMALL
GASTEIGER

@<TRIPOS>ATOM
      1  N         31.6470    4.6220   25.7140 N.3    73  ASP73      -0.1225
      2  CA        32.1960    5.9640   25.5840 C.3    73  ASP73       0.1805
      3  C         31.0810    7.0010   25.5260 C.2    73  ASP73       0.2598
      4  O         30.0290    6.7730   24.9220 O.2    73  ASP73      -0.2718
      5  CB        33.0690    6.0480   24.3320 C.3    73  ASP73       0.1424
      6  CG        34.3130    5.1930   24.4400 C.2    73  ASP73       0.3668
      7  OD1       34.8770    5.1120   25.5510 O.co2  73  ASP73      -0.2456
      8  OD2       34.7200    4.5960   23.4220 O.co2  73  ASP73      -0.2456
      9  N         31.3150    8.1380   26.1820 N.am   74  ALA74      -0.1966
     10  CA        30.4300    9.3020   26.2040 C.3    74  ALA74       0.1728
     11  C         29.1980    9.0950   27.0760 C.2    74  ALA74       0.2616
     12  O         28.2460    9.8850   26.9770 O.2    74  ALA74      -0.2715
     13  CB        29.9730    9.7040   24.7970 C.3    74  ALA74       0.0334
     14  N         29.1780    8.0780   27.9360 N.am   75  ALA75      -0.1963
     15  CA        28.0250    7.8600   28.8000 C.3    75  ALA75       0.1728
     16  C         27.9820    8.8190   29.9830 C.2    75  ALA75       0.2617
     17  O         26.9340    8.9320   30.6290 O.2    75  ALA75      -0.2715
     18  CB        28.0160    6.4190   29.3100 C.3    75  ALA75       0.0334
     19  N         29.0770    9.5060   30.2780 N.am   76  GLY76      -0.1940
     20  CA        29.1670   10.3770   31.4280 C.3    76  GLY76       0.2014
     21  C         30.0100    9.8410   32.5690 C.2    76  GLY76       0.2639
     22  O         29.8520   10.3100   33.7020 O.2    76  GLY76      -0.2714
     23  N         30.9010    8.8870   32.3030 N.am   77  LYS77      -0.1963
     24  CA        31.6390    8.2210   33.3680 C.3    77  LYS77       0.1728
     25  C         32.6460    9.1640   34.0200 C.2    77  LYS77       0.2616
     26  O         32.6430    9.3390   35.2450 O.2    77  LYS77      -0.2715
     27  CB        32.3290    6.9850   32.7940 C.3    77  LYS77       0.0311
     28  CG        33.0010    6.0970   33.8060 C.3    77  LYS77       0.0038
     29  CD        33.1490    4.6810   33.2580 C.3    77  LYS77       0.0206
     30  CE        33.7960    4.6590   31.8770 C.3    77  LYS77       0.1093
     31  NZ        35.0860    5.3990   31.8430 N.3    77  LYS77      -0.1314
     32  N         33.5170    9.7840   33.2180 N.am   78  ASP78      -0.1957
     33  CA        34.5120   10.7010   33.7690 C.3    78  ASP78       0.1840
     34  C         33.8550   11.8330   34.5500 C.2    78  ASP78       0.2622
     35  O         34.3720   12.2600   35.5890 O.2    78  ASP78      -0.2715
     36  CB        35.3830   11.2740   32.6490 C.3    78  ASP78       0.1450
     37  CG        36.2790   10.2330   32.0010 C.2    78  ASP78       0.3671
     38  OD1       36.5180    9.1700   32.6130 O.co2  78  ASP78      -0.2456
     39  OD2       36.7550   10.4910   30.8770 O.co2  78  ASP78      -0.2456
     40  N         32.7200   12.3430   34.0660 N.am   79  GLY79      -0.1954
     41  CA        32.0690   13.4460   34.7600 C.3    79  GLY79       0.1869
     42  C         31.4190   13.0230   36.0600 C.2    79  GLY79       0.2309
     43  O         31.4840   13.7460   37.0600 O.2    79  GLY79      -0.2863
     44  N         26.2430   12.9520   21.5840 N.3   199  ARG199     -0.1231
     45  CA        27.3560   13.5040   22.3470 C.3   199  ARG199      0.1694
     46  C         28.6510   13.4590   21.5450 C.2   199  ARG199      0.2592
     47  O         29.4660   14.3860   21.6250 O.2   199  ARG199     -0.2718
     48  CB        27.4900   12.7560   23.6750 C.3   199  ARG199      0.0321
     49  CG        26.3260   13.0240   24.6270 C.3   199  ARG199      0.0489
     50  CD        26.3700   12.1500   25.8740 C.3   199  ARG199      0.2205
     51  NE        25.2040   12.3830   26.7210 N.pl3 199  ARG199     -0.0865
     52  CZ        24.9420   11.7330   27.8520 C.cat 199  ARG199      0.5346
     53  NH1       25.7620   10.7910   28.3000 N.pl3 199  ARG199      0.1354
     54  NH2       23.8480   12.0290   28.5400 N.pl3 199  ARG199      0.1354
     55  N         28.8580   12.3980   20.7600 N.am  200  PHE200     -0.1976
     56  CA        29.9930   12.3620   19.8420 C.3   200  PHE200      0.1639
     57  C         29.9770   13.5700   18.9150 C.2   200  PHE200      0.2290
     58  O         30.9690   14.2960   18.7950 O.2   200  PHE200     -0.2864
     59  CB        29.9660   11.0740   19.0110 C.3   200  PHE200      0.0560
     60  CG        30.5230    9.8600   19.7130 C.ar  200  PHE200     -0.0200
     61  CD1       30.9290    9.9070   21.0380 C.ar  200  PHE200     -0.0042
     62  CD2       30.6500    8.6640   19.0240 C.ar  200  PHE200     -0.0042
     63  CE1       31.4430    8.7800   21.6590 C.ar  200  PHE200     -0.0003
     64  CE2       31.1610    7.5380   19.6410 C.ar  200  PHE200     -0.0003
     65  CZ        31.5580    7.5970   20.9590 C.ar  200  PHE200     -0.0000
     66  N         30.6390   16.9210   20.5470 N.3   203  ARG203     -0.1245
     67  CA        32.0510   17.1670   20.8210 C.3   203  ARG203      0.1563
     68  C         32.8150   17.5130   19.5500 C.2   203  ARG203      0.2260
     69  O         33.6600   18.4150   19.5560 O.2   203  ARG203     -0.2867
     70  CB        32.6780   15.9520   21.5060 C.3   203  ARG203      0.0307
     71  CG        34.2000   16.0110   21.5440 C.3   203  ARG203      0.0489
     72  CD        34.8140   15.0550   22.5510 C.3   203  ARG203      0.2205
     73  NE        34.5270   15.4460   23.9280 N.pl3 203  ARG203     -0.0865
     74  CZ        35.0540   14.8630   25.0010 C.cat 203  ARG203      0.5346
     75  NH1       35.9000   13.8480   24.8640 N.pl3 203  ARG203      0.1354
     76  NH2       34.7360   15.2940   26.2150 N.pl3 203  ARG203      0.1354
     77  N         38.6550   14.4540   20.8090 N.3   213  PHE213     -0.1241
     78  CA        37.8650   13.3770   20.2330 C.3   213  PHE213      0.1605
     79  C         38.7710   12.2480   19.7670 C.2   213  PHE213      0.2264
     80  O         39.7360   12.4700   19.0290 O.2   213  PHE213     -0.2867
     81  CB        37.0150   13.8780   19.0670 C.3   213  PHE213      0.0534
     82  CG        35.9270   12.9210   18.6780 C.ar  213  PHE213     -0.0203
     83  CD1       34.7980   12.7880   19.4700 C.ar  213  PHE213     -0.0042
     84  CD2       36.0430   12.1320   17.5450 C.ar  213  PHE213     -0.0042
     85  CE1       33.7980   11.9010   19.1330 C.ar  213  PHE213     -0.0003
     86  CE2       35.0430   11.2420   17.2020 C.ar  213  PHE213     -0.0003
     87  CZ        33.9190   11.1270   17.9990 C.ar  213  PHE213     -0.0000
     88  N         37.0130    5.7340   19.1210 N.3   217  ASP217     -0.1239
     89  CA        35.7370    5.4760   19.7770 C.3   217  ASP217      0.1674
     90  C         34.6910    4.9990   18.7830 C.2   217  ASP217      0.2266
     91  O         33.7910    4.2340   19.1470 O.2   217  ASP217     -0.2867
     92  CB        35.2420    6.7340   20.4910 C.3   217  ASP217      0.1410
     93  CG        36.1230    7.1290   21.6580 C.2   217  ASP217      0.3668
     94  OD1       36.9710    6.3040   22.0680 O.co2 217  ASP217     -0.2456
     95  OD2       35.9610    8.2590   22.1680 O.co2 217  ASP217     -0.2456
     96  N         22.5370   13.5130   32.3540 N.3   252  LYS252     -0.1245
     97  CA        23.6870   13.4570   33.2490 C.3   252  LYS252      0.1561
     98  C         23.3010   13.8340   34.6740 C.2   252  LYS252      0.2260
     99  O         23.6660   13.1380   35.6290 O.2   252  LYS252     -0.2867
    100  CB        24.7950   14.3680   32.7210 C.3   252  LYS252      0.0271
    101  CG        25.4300   13.8560   31.4390 C.3   252  LYS252      0.0035
    102  CD        26.4330   14.8450   30.8740 C.3   252  LYS252      0.0206
    103  CE        27.1200   14.2870   29.6380 C.3   252  LYS252      0.1093
    104  NZ        27.7720   15.3500   28.8220 N.3   252  LYS252     -0.1314
@<TRIPOS>BOND
     1    86    84   ar
     2    86    87   ar
     3    84    82   ar
     4    87    85   ar
     5    82    81    1
     6    82    83   ar
     7    90    91    2
     8    90    89    1
     9    58    57    2
    10    57    56    1
    11    59    60    1
    12    59    56    1
    13    62    64   ar
    14    62    60   ar
    15    80    79    2
    16    81    78    1
    17    88    89    1
    18    85    83   ar
    19    68    69    2
    20    68    67    1
    21    64    65   ar
    22    60    61   ar
    23    79    78    1
    24    89    92    1
    25    56    55    1
    26    78    77    1
    27    92    93    1
    28    66    67    1
    29    55    46   am
    30    67    70    1
    31    65    63   ar
    32    61    63   ar
    33    70    71    1
    34    71    72    1
    35    46    47    2
    36    46    45    1
    37    44    45    1
    38    93    94   ar
    39    93    95   ar
    40    45    48    1
    41    72    73    1
    42     8     6   ar
    43    48    49    1
    44    73    74    2
    45     5     6    1
    46     5     2    1
    47     6     7   ar
    48    49    50    1
    49    13    10    1
    50    75    74    1
    51     4     3    2
    52    74    76    1
    53     3     2    1
    54     3     9   am
    55     2     1    1
    56    50    51    1
    57     9    10    1
    58    10    11    1
    59    51    52    2
    60    12    11    2
    61    11    14   am
    62    52    53    1
    63    52    54    1
    64    14    15    1
    65    15    18    1
    66    15    16    1
    67   104   103    1
    68   103   102    1
    69    16    19   am
    70    16    17    2
    71    19    20    1
    72   102   101    1
    73    39    37   ar
    74    20    21    1
    75   101   100    1
    76    31    30    1
    77    30    29    1
    78    37    38   ar
    79    37    36    1
    80    23    21   am
    81    23    24    1
    82    96    97    1
    83    21    22    2
    84    36    33    1
    85   100    97    1
    86    27    24    1
    87    27    28    1
    88    32    33    1
    89    32    25   am
    90    97    98    1
    91    29    28    1
    92    24    25    1
    93    33    34    1
    94    25    26    2
    95    40    34   am
    96    40    41    1
    97    34    35    2
    98    98    99    2
    99    41    42    1
   100    42    43    2
