@<TRIPOS>MOLECULE
tmp/6aqoE00.pdb
 198 193 0 0 0
SMALL
GASTEIGER

@<TRIPOS>ATOM
      1  N         -3.7510   -1.6000  -30.8560 N.3    78  VAL78      -0.1231
      2  CA        -2.7080   -0.6020  -30.6580 C.3    78  VAL78       0.1692
      3  C         -1.5640   -0.8980  -31.6170 C.2    78  VAL78       0.2592
      4  O         -1.2020   -2.0600  -31.8400 O.2    78  VAL78      -0.2718
      5  CB        -2.2250   -0.5520  -29.1920 C.3    78  VAL78       0.0266
      6  CG1       -3.4150   -0.5900  -28.2400 C.3    78  VAL78       0.0020
      7  CG2       -1.2650   -1.6760  -28.8960 C.3    78  VAL78       0.0020
      8  N         -1.0190    0.1560  -32.2110 N.am   79  LEU79      -0.1966
      9  CA         0.0230    0.0250  -33.2160 C.3    79  LEU79       0.1728
     10  C          1.3900    0.3090  -32.6030 C.2    79  LEU79       0.2616
     11  O          1.5230    1.1540  -31.7130 O.2    79  LEU79      -0.2715
     12  CB        -0.2490    0.9550  -34.4000 C.3    79  LEU79       0.0311
     13  CG        -1.4260    0.5290  -35.2730 C.3    79  LEU79       0.0022
     14  CD1       -1.8900    1.7250  -36.0560 C.3    79  LEU79       0.0001
     15  CD2       -1.0590   -0.6230  -36.2040 C.3    79  LEU79       0.0001
     16  N          2.4120   -0.3890  -33.0990 N.am   80  LYS80      -0.1963
     17  CA         2.3070   -1.2040  -34.3050 C.3    80  LYS80       0.1728
     18  C          2.2560   -2.7070  -34.0560 C.2    80  LYS80       0.2617
     19  O          1.4680   -3.4110  -34.6900 O.2    80  LYS80      -0.2715
     20  CB         3.4770   -0.8820  -35.2380 C.3    80  LYS80       0.0311
     21  CG         3.6780    0.6050  -35.4370 C.3    80  LYS80       0.0038
     22  CD         4.4970    0.8950  -36.6770 C.3    80  LYS80       0.0206
     23  CE         5.8630    0.2400  -36.6030 C.3    80  LYS80       0.1093
     24  NZ         6.8490    0.9270  -37.4860 N.3    80  LYS80      -0.1314
     25  N          3.0890   -3.1870  -33.1330 N.am   81  GLY81      -0.1940
     26  CA         3.2850   -4.6090  -32.9030 C.3    81  GLY81       0.2014
     27  C          2.0360   -5.4660  -32.8930 C.2    81  GLY81       0.2639
     28  O          2.0660   -6.6210  -33.3280 O.2    81  GLY81      -0.2714
     29  N          0.9230   -4.9090  -32.4200 N.am   82  SER82      -0.1949
     30  CA        -0.3080   -5.6770  -32.2910 C.3    82  SER82       0.1924
     31  C         -1.0960   -5.7960  -33.5890 C.2    82  SER82       0.2314
     32  O         -2.1880   -6.3700  -33.5660 O.2    82  SER82      -0.2863
     33  CB        -1.2020   -5.0580  -31.2160 C.3    82  SER82       0.2116
     34  OG        -0.4220   -4.5260  -30.1610 O.3    82  SER82      -0.2180
     35  N         -2.3810    4.6230  -31.3690 N.3   105  ARG105     -0.1231
     36  CA        -0.9280    4.5400  -31.3160 C.3   105  ARG105      0.1694
     37  C         -0.3940    5.3570  -30.1520 C.2   105  ARG105      0.2591
     38  O         -0.8930    6.4490  -29.8660 O.2   105  ARG105     -0.2718
     39  CB        -0.2790    5.0240  -32.6190 C.3   105  ARG105      0.0321
     40  CG         1.2270    4.7940  -32.6640 C.3   105  ARG105      0.0489
     41  CD         1.9510    5.9100  -33.3960 C.3   105  ARG105      0.2205
     42  NE         2.1680    5.5790  -34.8010 N.pl3 105  ARG105     -0.0865
     43  CZ         3.1550    4.8060  -35.2440 C.cat 105  ARG105      0.5346
     44  NH1        4.0240    4.2810  -34.3900 N.pl3 105  ARG105      0.1354
     45  NH2        3.2730    4.5590  -36.5420 N.pl3 105  ARG105      0.1354
     46  N          0.6260    4.8190  -29.4900 N.am  106  ILE106     -0.1980
     47  CA         1.3150    5.5240  -28.4180 C.3   106  ILE106      0.1595
     48  C          2.7070    4.9330  -28.2240 C.2   106  ILE106      0.2287
     49  O          3.0770    3.9620  -28.8860 O.2   106  ILE106     -0.2864
     50  CB         0.5130    5.4780  -27.1100 C.3   106  ILE106      0.0276
     51  CG1        1.2430    6.2590  -26.0160 C.3   106  ILE106      0.0022
     52  CG2        0.2720    4.0370  -26.6830 C.3   106  ILE106      0.0022
     53  CD1        1.4530    7.7210  -26.3480 C.3   106  ILE106      0.0001
     54  N         -3.7920   -5.9070  -27.6080 N.3   122  GLU122     -0.1231
     55  CA        -2.3990   -5.5420  -27.4010 C.3   122  GLU122      0.1699
     56  C         -1.5610   -6.8070  -27.4770 C.2   122  GLU122      0.2592
     57  O         -2.0650   -7.9060  -27.2400 O.2   122  GLU122     -0.2718
     58  CB        -2.1940   -4.8580  -26.0410 C.3   122  GLU122      0.0402
     59  CG        -1.1200   -3.7880  -26.0220 C.3   122  GLU122      0.1161
     60  CD         0.2870   -4.3550  -26.0100 C.2   122  GLU122      0.3649
     61  OE1        0.4280   -5.5920  -26.0320 O.co2 122  GLU122     -0.2457
     62  OE2        1.2540   -3.5630  -25.9740 O.co2 122  GLU122     -0.2457
     63  N         -0.2790   -6.6620  -27.8040 N.am  123  ASP123     -0.1960
     64  CA         0.5450   -7.8560  -27.9320 C.3   123  ASP123      0.1840
     65  C          1.3020   -8.2200  -26.6590 C.2   123  ASP123      0.2622
     66  O          1.6680   -9.3900  -26.4960 O.2   123  ASP123     -0.2715
     67  CB         1.5310   -7.7140  -29.1010 C.3   123  ASP123      0.1450
     68  CG         2.3830   -6.4660  -29.0100 C.2   123  ASP123      0.3671
     69  OD1        2.2440   -5.7100  -28.0260 O.co2 123  ASP123     -0.2456
     70  OD2        3.1980   -6.2430  -29.9310 O.co2 123  ASP123     -0.2456
     71  N          1.5280   -7.2770  -25.7470 N.am  124  ILE124     -0.1963
     72  CA         2.3540   -7.5540  -24.5730 C.3   124  ILE124      0.1727
     73  C          1.8240   -6.7830  -23.3710 C.2   124  ILE124      0.2616
     74  O          1.3830   -5.6350  -23.4840 O.2   124  ILE124     -0.2715
     75  CB         3.8400   -7.2190  -24.8350 C.3   124  ILE124      0.0290
     76  CG1        4.7160   -7.7050  -23.6790 C.3   124  ILE124      0.0022
     77  CG2        4.0290   -5.7290  -25.0580 C.3   124  ILE124      0.0023
     78  CD1        5.2440   -9.1080  -23.8630 C.3   124  ILE124      0.0001
     79  N          1.8650   -7.4350  -22.2130 N.am  125  ALA125     -0.1963
     80  CA         1.6120   -6.7970  -20.9240 C.3   125  ALA125      0.1728
     81  C          2.7240   -7.2320  -19.9850 C.2   125  ALA125      0.2616
     82  O          2.8200   -8.4110  -19.6360 O.2   125  ALA125     -0.2715
     83  CB         0.2420   -7.1760  -20.3630 C.3   125  ALA125      0.0334
     84  N          3.5670   -6.2850  -19.5750 N.am  126  ASP126     -0.1957
     85  CA         4.7010   -6.5940  -18.7190 C.3   126  ASP126      0.1840
     86  C          4.5210   -5.7700  -17.4520 C.2   126  ASP126      0.2623
     87  O          3.7910   -6.2070  -16.5290 O.2   126  ASP126     -0.2715
     88  CB         6.0240   -6.3530  -19.4490 C.3   126  ASP126      0.1450
     89  CG         7.2330   -6.5670  -18.5640 C.2   126  ASP126      0.3671
     90  OD1        7.1020   -7.2360  -17.5120 O.co2 126  ASP126     -0.2456
     91  OD2        8.3220   -6.1400  -18.9570 O.co2 126  ASP126     -0.2456
     92  N          5.1490   -4.5960  -17.3290 N.am  127  THR127     -0.1937
     93  CA         4.9570   -3.8000  -16.1220 C.3   127  THR127      0.2028
     94  C          3.5060   -3.3680  -15.9510 C.2   127  THR127      0.2643
     95  O          3.0820   -3.0720  -14.8120 O.2   127  THR127     -0.2714
     96  CB         5.8650   -2.5490  -16.1030 C.3   127  THR127      0.1808
     97  OG1        5.2940   -1.5150  -16.9180 O.3   127  THR127     -0.2208
     98  CG2        7.2780   -2.8770  -16.5870 C.3   127  THR127      0.0379
     99  N          2.7340   -3.3260  -17.0220 N.am  128  GLY128     -0.1939
    100  CA         1.3350   -2.9910  -16.9660 C.3   128  GLY128      0.2014
    101  C          1.0300   -1.5180  -17.0830 C.2   128  GLY128      0.2639
    102  O         -0.1470   -1.1600  -17.2040 O.2   128  GLY128     -0.2714
    103  N          2.0500   -0.6570  -17.0690 N.am  129  ARG129     -0.1963
    104  CA         1.8170    0.7840  -17.0970 C.3   129  ARG129      0.1729
    105  C          1.0930    1.2080  -18.3690 C.2   129  ARG129      0.2617
    106  O          0.1250    1.9770  -18.3190 O.2   129  ARG129     -0.2715
    107  CB         3.1440    1.5320  -16.9650 C.3   129  ARG129      0.0348
    108  CG         3.8980    1.2510  -15.6780 C.3   129  ARG129      0.0492
    109  CD         4.8230    2.4030  -15.3260 C.3   129  ARG129      0.2205
    110  NE         5.9640    1.9640  -14.5290 N.pl3 129  ARG129     -0.0865
    111  CZ         7.0880    1.4730  -15.0410 C.cat 129  ARG129      0.5346
    112  NH1        7.2250    1.3540  -16.3550 N.pl3 129  ARG129      0.1354
    113  NH2        8.0750    1.1000  -14.2400 N.pl3 129  ARG129      0.1354
    114  N          1.5500    0.7130  -19.5240 N.am  130  THR130     -0.1937
    115  CA         1.0040    1.1810  -20.7920 C.3   130  THR130      0.2028
    116  C         -0.4690    0.8180  -20.9280 C.2   130  THR130      0.2642
    117  O         -1.2600    1.5940  -21.4750 O.2   130  THR130     -0.2714
    118  CB         1.8060    0.6060  -21.9590 C.3   130  THR130      0.1808
    119  OG1        3.1950    0.5580  -21.6100 O.3   130  THR130     -0.2208
    120  CG2        1.6340    1.4750  -23.1930 C.3   130  THR130      0.0379
    121  N         -0.8630   -0.3550  -20.4350 N.am  131  MET131     -0.1976
    122  CA        -2.2660   -0.7370  -20.5340 C.3   131  MET131      0.1605
    123  C         -3.1220   -0.0810  -19.4580 C.2   131  MET131      0.2287
    124  O         -4.2860    0.2390  -19.7200 O.2   131  MET131     -0.2864
    125  CB        -2.4070   -2.2590  -20.4750 C.3   131  MET131      0.0413
    126  CG        -2.0070   -2.9530  -21.7700 C.3   131  MET131      0.0598
    127  SD        -2.7240   -2.1590  -23.2290 S.3   131  MET131     -0.1393
    128  CE        -4.4690   -2.2040  -22.8370 C.3   131  MET131      0.0692
    129  N          3.3350  -11.0540  -19.1500 N.3   155  LYS155     -0.1245
    130  CA         4.4910  -11.2950  -18.2980 C.3   155  LYS155      0.1561
    131  C          4.1390  -10.9030  -16.8670 C.2   155  LYS155      0.2260
    132  O          4.5420   -9.8320  -16.3960 O.2   155  LYS155     -0.2867
    133  CB         5.7070  -10.5170  -18.8060 C.3   155  LYS155      0.0271
    134  CG         6.0560  -10.8140  -20.2580 C.3   155  LYS155      0.0035
    135  CD         7.5400  -10.6420  -20.5330 C.3   155  LYS155      0.0206
    136  CE         7.8400   -9.2860  -21.1400 C.3   155  LYS155      0.1093
    137  NZ         9.2910   -9.1280  -21.4360 N.3   155  LYS155     -0.1314
    138  N         11.4510  -12.0110  -19.7090 N.3   175  ARG175     -0.1231
    139  CA        12.5260  -11.9030  -20.6830 C.3   175  ARG175      0.1694
    140  C         12.0690  -11.1090  -21.8980 C.2   175  ARG175      0.2592
    141  O         10.8740  -10.9710  -22.1630 O.2   175  ARG175     -0.2718
    142  CB        13.0260  -13.2860  -21.1140 C.3   175  ARG175      0.0321
    143  CG        13.8230  -13.9970  -20.0310 C.3   175  ARG175      0.0489
    144  CD        15.1920  -13.3570  -19.8370 C.3   175  ARG175      0.2205
    145  NE        16.2600  -14.1800  -20.3980 N.pl3 175  ARG175     -0.0865
    146  CZ        17.1150  -13.7660  -21.3270 C.cat 175  ARG175      0.5346
    147  NH1       17.0370  -12.5310  -21.8020 N.pl3 175  ARG175      0.1354
    148  NH2       18.0520  -14.5860  -21.7780 N.pl3 175  ARG175      0.1354
    149  N         13.0460  -10.5840  -22.6360 N.am  176  TYR176     -0.1962
    150  CA        12.7650   -9.8040  -23.8360 C.3   176  TYR176      0.1771
    151  C         12.5710  -10.7400  -25.0240 C.2   176  TYR176      0.2619
    152  O         13.4780  -11.5030  -25.3770 O.2   176  TYR176     -0.2715
    153  CB        13.8930   -8.8130  -24.1120 C.3   176  TYR176      0.0574
    154  CG        13.5240   -7.7540  -25.1270 C.ar  176  TYR176     -0.0198
    155  CD1       13.7770   -7.9410  -26.4820 C.ar  176  TYR176     -0.0009
    156  CD2       12.9140   -6.5710  -24.7310 C.ar  176  TYR176     -0.0009
    157  CE1       13.4370   -6.9770  -27.4150 C.ar  176  TYR176      0.0417
    158  CE2       12.5730   -5.6030  -25.6540 C.ar  176  TYR176      0.0417
    159  CZ        12.8360   -5.8110  -26.9940 C.ar  176  TYR176      0.1957
    160  OH        12.4930   -4.8450  -27.9090 O.3   176  TYR176     -0.2866
    161  N         11.3950  -10.6780  -25.6420 N.am  177  VAL177     -0.1977
    162  CA        11.0550  -11.5480  -26.7610 C.3   177  VAL177      0.1596
    163  C         11.0290  -10.7320  -28.0430 C.2   177  VAL177      0.2287
    164  O         10.7890   -9.5190  -28.0310 O.2   177  VAL177     -0.2864
    165  CB         9.7050  -12.2660  -26.5470 C.3   177  VAL177      0.0276
    166  CG1        9.7620  -13.1450  -25.3040 C.3   177  VAL177      0.0022
    167  CG2        8.5740  -11.2550  -26.4490 C.3   177  VAL177      0.0022
    168  N          6.6660   -8.5150  -32.1040 N.3   182  PHE182     -0.1227
    169  CA         7.6980   -7.9960  -31.2170 C.3   182  PHE182      0.1736
    170  C          8.9960   -7.7650  -31.9820 C.2   182  PHE182      0.2595
    171  O          9.3140   -8.4770  -32.9400 O.2   182  PHE182     -0.2718
    172  CB         7.9310   -8.9540  -30.0510 C.3   182  PHE182      0.0547
    173  CG         6.6780   -9.3110  -29.3120 C.ar  182  PHE182     -0.0202
    174  CD1        6.0500   -8.3820  -28.5020 C.ar  182  PHE182     -0.0042
    175  CD2        6.1210  -10.5720  -29.4350 C.ar  182  PHE182     -0.0042
    176  CE1        4.8930   -8.7070  -27.8250 C.ar  182  PHE182     -0.0003
    177  CE2        4.9640  -10.9050  -28.7590 C.ar  182  PHE182     -0.0003
    178  CZ         4.3490   -9.9710  -27.9530 C.ar  182  PHE182     -0.0000
    179  N          9.7570   -6.7660  -31.5390 N.am  183  GLU183     -0.1979
    180  CA        10.8330   -6.2230  -32.3540 C.3   183  GLU183      0.1602
    181  C         11.9740   -5.7230  -31.4790 C.2   183  GLU183      0.2287
    182  O         11.8360   -5.5600  -30.2640 O.2   183  GLU183     -0.2864
    183  CB        10.3160   -5.0750  -33.2290 C.3   183  GLU183      0.0415
    184  CG        10.4280   -3.6890  -32.5790 C.3   183  GLU183      0.1163
    185  CD         9.4440   -3.4610  -31.4380 C.2   183  GLU183      0.3649
    186  OE1        9.4210   -2.3340  -30.8980 O.co2 183  GLU183     -0.2457
    187  OE2        8.6940   -4.3950  -31.0780 O.co2 183  GLU183     -0.2457
    188  N          9.9950   -8.3220  -36.6050 N.3   189  ARG189     -0.1245
    189  CA         8.5480   -8.2310  -36.4350 C.3   189  ARG189      0.1563
    190  C          7.8180   -9.3010  -37.2400 C.2   189  ARG189      0.2260
    191  O          6.8010   -9.8410  -36.7880 O.2   189  ARG189     -0.2867
    192  CB         8.0600   -6.8430  -36.8480 C.3   189  ARG189      0.0307
    193  CG         7.7510   -5.9110  -35.6980 C.3   189  ARG189      0.0489
    194  CD         6.8750   -4.7610  -36.1640 C.3   189  ARG189      0.2205
    195  NE         7.3380   -3.4740  -35.6530 N.pl3 189  ARG189     -0.0865
    196  CZ         7.0560   -3.0060  -34.4420 C.cat 189  ARG189      0.5346
    197  NH1        6.3100   -3.7200  -33.6110 N.pl3 189  ARG189      0.1354
    198  NH2        7.5170   -1.8230  -34.0610 N.pl3 189  ARG189      0.1354
@<TRIPOS>BOND
     1    24    23    1
     2   190   191    2
     3   190   189    1
     4   192   189    1
     5   192   193    1
     6    22    23    1
     7    22    21    1
     8   188   189    1
     9    45    43    1
    10    15    13    1
    11   194   193    1
    12   194   195    1
    13    14    13    1
    14   195   196    2
    15    21    20    1
    16    13    12    1
    17    43    42    2
    18    43    44    1
    19    20    17    1
    20    42    41    1
    21    19    18    2
    22   196   198    1
    23   196   197    1
    24    12     9    1
    25    17    18    1
    26    17    16    1
    27    18    25   am
    28    31    32    2
    29    31    30    1
    30    41    40    1
    31    28    27    2
    32   183   184    1
    33   183   180    1
    34     9    10    1
    35     9     8    1
    36    25    26    1
    37    16    10   am
    38   171   170    2
    39    26    27    1
    40    27    29   am
    41    40    39    1
    42    39    36    1
    43    10    11    2
    44   184   185    1
    45    29    30    1
    46   180   179    1
    47   180   181    1
    48    30    33    1
    49     8     3   am
    50   168   169    1
    51   170   179   am
    52   170   169    1
    53     4     3    2
    54     3     2    1
    55   181   182    2
    56   185   187   ar
    57   185   186   ar
    58    35    36    1
    59    36    37    1
    60   169   172    1
    61    33    34    1
    62     1     2    1
    63     2     5    1
    64    37    38    2
    65    37    46   am
    66   172   173    1
    67    70    68   ar
    68    46    47    1
    69   175   173   ar
    70   175   177   ar
    71   173   174   ar
    72     5     7    1
    73     5     6    1
    74    67    68    1
    75    67    64    1
    76    68    69   ar
    77    49    48    2
    78   177   178   ar
    79   174   176   ar
    80    47    48    1
    81    47    50    1
    82   163   164    2
    83   163   162    1
    84   178   176   ar
    85    64    63    1
    86    64    65    1
    87   160   159    1
    88    63    56   am
    89    54    55    1
    90    56    55    1
    91    56    57    2
    92   157   159   ar
    93   157   155   ar
    94    55    58    1
    95    50    52    1
    96    50    51    1
    97   159   158   ar
    98   162   165    1
    99   162   161    1
   100    65    66    2
   101    65    71   am
   102   165   167    1
   103   165   166    1
   104   155   154   ar
   105    53    51    1
   106    58    59    1
   107    61    60   ar
   108    59    60    1
   109    60    62   ar
   110    71    72    1
   111   158   156   ar
   112   161   151   am
   113   152   151    2
   114   154   156   ar
   115   154   153    1
   116    77    75    1
   117   151   150    1
   118    75    72    1
   119    75    76    1
   120    72    73    1
   121   153   150    1
   122    78    76    1
   123   150   149    1
   124    74    73    2
   125    73    79   am
   126   127   128    1
   127   127   126    1
   128   120   118    1
   129   149   140   am
   130    79    80    1
   131   141   140    2
   132   118   119    1
   133   118   115    1
   134   140   139    1
   135   147   146    1
   136   148   146    1
   137   126   125    1
   138   117   116    2
   139   137   136    1
   140   146   145    2
   141   136   135    1
   142   142   139    1
   143   142   143    1
   144   116   115    1
   145   116   121   am
   146    80    83    1
   147    80    81    1
   148   115   114    1
   149   139   138    1
   150   122   125    1
   151   122   121    1
   152   122   123    1
   153   135   134    1
   154   145   144    1
   155   134   133    1
   156   143   144    1
   157    81    82    2
   158    81    84   am
   159   124   123    2
   160    84    85    1
   161   114   105   am
   162    88    85    1
   163    88    89    1
   164   129   130    1
   165    91    89   ar
   166   133   130    1
   167    85    86    1
   168    89    90   ar
   169   105   106    2
   170   105   104    1
   171   130   131    1
   172    86    92   am
   173    86    87    2
   174    92    93    1
   175   102   101    2
   176   104   103    1
   177   104   107    1
   178   101   103   am
   179   101   100    1
   180    99   100    1
   181    99    94   am
   182   107   108    1
   183    97    96    1
   184   131   132    2
   185    98    96    1
   186   112   111    1
   187    93    96    1
   188    93    94    1
   189    94    95    2
   190   108   109    1
   191   109   110    1
   192   111   110    2
   193   111   113    1
