@<TRIPOS>MOLECULE
tmp/6aqqA00.pdb
 185 178 0 0 0
SMALL
GASTEIGER

@<TRIPOS>ATOM
      1  N         12.2370  -49.6970   31.4260 N.3    92  SER92      -0.1202
      2  CA        12.5230  -49.1480   30.1060 C.3    92  SER92       0.2020
      3  C         11.9090  -47.7620   29.9830 C.2    92  SER92       0.2619
      4  O         10.7500  -47.5560   30.3610 O.2    92  SER92      -0.2717
      5  CB        11.9900  -50.0620   28.9990 C.3    92  SER92       0.2103
      6  OG        11.6950  -49.3170   27.8320 O.3    92  SER92      -0.2182
      7  N         12.6930  -46.8170   29.4580 N.am   93  THR93      -0.1938
      8  CA        12.1640  -45.4870   29.1800 C.3    93  THR93       0.2028
      9  C         11.0140  -45.5500   28.1840 C.2    93  THR93       0.2642
     10  O         10.0680  -44.7550   28.2650 O.2    93  THR93      -0.2714
     11  CB        13.2720  -44.5880   28.6460 C.3    93  THR93       0.1808
     12  OG1       13.7820  -45.1390   27.4270 O.3    93  THR93      -0.2208
     13  CG2       14.4080  -44.4760   29.6550 C.3    93  THR93       0.0379
     14  N         11.0790  -46.4910   27.2380 N.am   94  GLN94      -0.1976
     15  CA         9.9950  -46.6520   26.2760 C.3    94  GLN94       0.1601
     16  C          8.7080  -47.0830   26.9700 C.2    94  GLN94       0.2287
     17  O          7.6320  -46.5400   26.7020 O.2    94  GLN94      -0.2864
     18  CB        10.3990  -47.6600   25.2000 C.3    94  GLN94       0.0394
     19  CG         9.6300  -47.5320   23.8920 C.3    94  GLN94       0.0908
     20  CD        10.0410  -46.3230   23.0660 C.2    94  GLN94       0.2608
     21  OE1       10.8190  -45.4800   23.5110 O.2    94  GLN94      -0.2717
     22  NE2        9.5200  -46.2400   21.8480 N.am   94  GLN94      -0.0878
     23  N         18.7110  -49.1480   32.5480 N.3   115  GLN115     -0.1245
     24  CA        17.4670  -49.8350   32.2270 C.3   115  GLN115      0.1566
     25  C         17.6280  -51.3050   32.5760 C.2   115  GLN115      0.2260
     26  O         18.6270  -51.9230   32.1970 O.2   115  GLN115     -0.2867
     27  CB        17.1180  -49.6900   30.7410 C.3   115  GLN115      0.0367
     28  CG        16.5700  -48.3310   30.3560 C.3   115  GLN115      0.0905
     29  CD        16.2080  -48.2540   28.8860 C.2   115  GLN115      0.2608
     30  OE1       15.1820  -47.6840   28.5180 O.2   115  GLN115     -0.2717
     31  NE2       17.0550  -48.8280   28.0340 N.am  115  GLN115     -0.0878
     32  N         15.6390  -53.0030   28.9100 N.3   118  GLY118     -0.1210
     33  CA        15.6610  -52.2700   27.6590 C.3   118  GLY118      0.1956
     34  C         15.4200  -53.1900   26.4750 C.2   118  GLY118      0.2612
     35  O         15.9680  -54.2910   26.3900 O.2   118  GLY118     -0.2717
     36  N         14.5800  -52.7300   25.5530 N.am  119  ARG119     -0.1965
     37  CA        14.2360  -53.4850   24.3570 C.3   119  ARG119      0.1729
     38  C         14.3230  -52.5830   23.1370 C.2   119  ARG119      0.2617
     39  O         13.9060  -51.4220   23.1770 O.2   119  ARG119     -0.2715
     40  CB        12.8270  -54.0840   24.4510 C.3   119  ARG119      0.0348
     41  CG        12.6340  -55.0730   25.5880 C.3   119  ARG119      0.0492
     42  CD        13.5020  -56.3070   25.4210 C.3   119  ARG119      0.2205
     43  NE        13.0040  -57.4210   26.2270 N.pl3 119  ARG119     -0.0865
     44  CZ        13.5250  -57.7970   27.3890 C.cat 119  ARG119      0.5346
     45  NH1       14.5700  -57.1510   27.8900 N.pl3 119  ARG119      0.1354
     46  NH2       13.0010  -58.8190   28.0480 N.pl3 119  ARG119      0.1354
     47  N         14.8730  -53.1270   22.0550 N.am  120  GLY120     -0.1940
     48  CA        14.8920  -52.4380   20.7810 C.3   120  GLY120      0.2014
     49  C         13.9400  -53.0910   19.8030 C.2   120  GLY120      0.2638
     50  O         12.9740  -53.7360   20.2170 O.2   120  GLY120     -0.2714
     51  N         14.2020  -52.9340   18.5060 N.am  121  ARG121     -0.1977
     52  CA        13.3640  -53.5500   17.4850 C.3   121  ARG121      0.1597
     53  C         13.2690  -55.0520   17.7030 C.2   121  ARG121      0.2287
     54  O         14.2210  -55.6880   18.1600 O.2   121  ARG121     -0.2864
     55  CB        13.9320  -53.2770   16.0950 C.3   121  ARG121      0.0334
     56  CG        14.2560  -51.8330   15.8380 C.3   121  ARG121      0.0492
     57  CD        14.8370  -51.6630   14.4560 C.3   121  ARG121      0.2205
     58  NE        13.9770  -52.2270   13.4210 N.pl3 121  ARG121     -0.0865
     59  CZ        14.3820  -52.4690   12.1790 C.cat 121  ARG121      0.5346
     60  NH1       15.6280  -52.1880   11.8290 N.pl3 121  ARG121      0.1354
     61  NH2       13.5440  -52.9810   11.2880 N.pl3 121  ARG121      0.1354
     62  N         14.6240  -57.1520   20.8420 N.3   124  ARG124     -0.1231
     63  CA        16.0120  -57.4860   21.1280 C.3   124  ARG124      0.1694
     64  C         16.4820  -56.7720   22.3940 C.2   124  ARG124      0.2592
     65  O         16.0440  -55.6620   22.7080 O.2   124  ARG124     -0.2718
     66  CB        16.9010  -57.1040   19.9440 C.3   124  ARG124      0.0321
     67  CG        16.4780  -57.7490   18.6330 C.3   124  ARG124      0.0489
     68  CD        17.1050  -57.0800   17.4170 C.3   124  ARG124      0.2205
     69  NE        17.1160  -57.9840   16.2720 N.pl3 124  ARG124     -0.0865
     70  CZ        17.3140  -57.6120   15.0120 C.cat 124  ARG124      0.5346
     71  NH1       17.5280  -56.3380   14.7180 N.pl3 124  ARG124      0.1354
     72  NH2       17.3010  -58.5220   14.0460 N.pl3 124  ARG124      0.1354
     73  N         17.3890  -57.4160   23.1240 N.am  125  HIS125     -0.1976
     74  CA        17.9370  -56.7960   24.3290 C.3   125  HIS125      0.1656
     75  C         18.9450  -55.7090   23.9390 C.2   125  HIS125      0.2291
     76  O         20.1300  -55.9800   23.7390 O.2   125  HIS125     -0.2864
     77  CB        18.5840  -57.8440   25.2490 C.3   125  HIS125      0.0771
     78  CG        19.5870  -57.2750   26.2070 C.ar  125  HIS125      0.0820
     79  ND1       20.8810  -56.9700   25.8430 N.ar  125  HIS125     -0.2267
     80  CD2       19.4740  -56.9280   27.5110 C.ar  125  HIS125      0.1154
     81  CE1       21.5270  -56.4790   26.8850 C.ar  125  HIS125      0.1986
     82  NE2       20.6950  -56.4420   27.9100 N.ar  125  HIS125     -0.2212
     83  N         19.9350  -43.3870   27.6130 N.3   131  TRP131     -0.1227
     84  CA        18.7050  -44.1050   27.2950 C.3   131  TRP131      0.1737
     85  C         17.5390  -43.1430   27.4800 C.2   131  TRP131      0.2595
     86  O         17.2070  -42.7650   28.6100 O.2   131  TRP131     -0.2718
     87  CB        18.5610  -45.3560   28.1600 C.3   131  TRP131      0.0564
     88  CG        19.8920  -45.9580   28.4950 C.ar  131  TRP131      0.0003
     89  CD1       20.4960  -45.9900   29.7200 C.ar  131  TRP131      0.0946
     90  CD2       20.8040  -46.5820   27.5830 C.ar  131  TRP131      0.0152
     91  NE1       21.7190  -46.6100   29.6290 N.ar  131  TRP131     -0.2442
     92  CE2       21.9320  -46.9810   28.3280 C.ar  131  TRP131      0.0810
     93  CE3       20.7730  -46.8490   26.2110 C.ar  131  TRP131      0.0012
     94  CZ2       23.0170  -47.6350   27.7460 C.ar  131  TRP131      0.0191
     95  CZ3       21.8500  -47.4930   25.6350 C.ar  131  TRP131      0.0001
     96  CH2       22.9580  -47.8800   26.4000 C.ar  131  TRP131      0.0015
     97  N         16.9290  -42.7480   26.3650 N.am  132  MET132     -0.1965
     98  CA        15.9270  -41.6960   26.3470 C.3   132  MET132      0.1736
     99  C         14.7860  -42.0930   25.4250 C.2   132  MET132      0.2617
    100  O         15.0100  -42.6470   24.3450 O.2   132  MET132     -0.2715
    101  CB        16.5410  -40.3660   25.8910 C.3   132  MET132      0.0427
    102  CG        15.5910  -39.1800   25.8710 C.3   132  MET132      0.0599
    103  SD        16.4000  -37.6860   25.2610 S.3   132  MET132     -0.1393
    104  CE        16.8610  -38.1940   23.6050 C.3   132  MET132      0.0692
    105  N         13.5650  -41.8230   25.8660 N.am  133  SER133     -0.1950
    106  CA        12.3850  -41.9380   25.0270 C.3   133  SER133      0.1924
    107  C         11.7560  -40.5630   24.8950 C.2   133  SER133      0.2314
    108  O         11.6650  -39.8190   25.8740 O.2   133  SER133     -0.2863
    109  CB        11.3830  -42.9320   25.6020 C.3   133  SER133      0.2116
    110  OG        11.8580  -44.2550   25.4420 O.3   133  SER133     -0.2180
    111  N         19.9030  -47.2110   12.9120 N.3   175  ASP175     -0.1239
    112  CA        21.1510  -47.3250   13.6510 C.3   175  ASP175      0.1674
    113  C         22.1590  -46.2880   13.1840 C.2   175  ASP175      0.2266
    114  O         22.1130  -45.8260   12.0440 O.2   175  ASP175     -0.2867
    115  CB        21.7550  -48.7340   13.5310 C.3   175  ASP175      0.1410
    116  CG        20.8070  -49.8250   13.9870 C.2   175  ASP175      0.3668
    117  OD1       20.8150  -50.1530   15.1920 O.co2 175  ASP175     -0.2456
    118  OD2       20.0410  -50.3450   13.1480 O.co2 175  ASP175     -0.2456
    119  N         28.9730  -49.5160   15.9100 N.3   182  LYS182     -0.1245
    120  CA        27.6390  -48.9900   16.1640 C.3   182  LYS182      0.1561
    121  C         27.6400  -48.2300   17.4820 C.2   182  LYS182      0.2260
    122  O         28.0210  -48.7680   18.5260 O.2   182  LYS182     -0.2867
    123  CB        26.6080  -50.1140   16.2030 C.3   182  LYS182      0.0271
    124  CG        25.3660  -49.7690   17.0080 C.3   182  LYS182      0.0035
    125  CD        24.1290  -50.4170   16.4230 C.3   182  LYS182      0.0206
    126  CE        23.9200  -51.8040   17.0030 C.3   182  LYS182      0.1093
    127  NZ        22.6060  -52.3540   16.5890 N.3   182  LYS182     -0.1314
    128  N         21.3680  -46.8780   18.6190 N.3   185  GLY185     -0.1210
    129  CA        20.2050  -47.4550   17.9820 C.3   185  GLY185      0.1956
    130  C         18.9710  -46.7310   18.4720 C.2   185  GLY185      0.2612
    131  O         18.9390  -46.1870   19.5800 O.2   185  GLY185     -0.2717
    132  N         17.9520  -46.7100   17.6190 N.am  186  PHE186     -0.1962
    133  CA        16.7230  -46.0120   17.9520 C.3   186  PHE186      0.1771
    134  C         15.5660  -46.6820   17.2310 C.2   186  PHE186      0.2619
    135  O         15.7420  -47.2800   16.1670 O.2   186  PHE186     -0.2715
    136  CB        16.7960  -44.5220   17.5830 C.3   186  PHE186      0.0574
    137  CG        16.9950  -44.2660   16.1130 C.ar  186  PHE186     -0.0200
    138  CD1       18.2590  -44.3360   15.5470 C.ar  186  PHE186     -0.0042
    139  CD2       15.9170  -43.9560   15.2960 C.ar  186  PHE186     -0.0042
    140  CE1       18.4470  -44.1000   14.1940 C.ar  186  PHE186     -0.0003
    141  CE2       16.0950  -43.7210   13.9440 C.ar  186  PHE186     -0.0003
    142  CZ        17.3660  -43.7910   13.3920 C.ar  186  PHE186     -0.0000
    143  N         14.3830  -46.5950   17.8300 N.am  187  LEU187     -0.1977
    144  CA        13.1680  -47.0030   17.1460 C.3   187  LEU187      0.1596
    145  C         12.0860  -45.9600   17.3650 C.2   187  LEU187      0.2287
    146  O         12.0660  -45.2570   18.3800 O.2   187  LEU187     -0.2864
    147  CB        12.6710  -48.3990   17.5830 C.3   187  LEU187      0.0297
    148  CG        12.4250  -48.8880   19.0140 C.3   187  LEU187      0.0022
    149  CD1       11.3770  -48.0800   19.7610 C.3   187  LEU187      0.0001
    150  CD2       12.0000  -50.3440   18.9470 C.3   187  LEU187      0.0001
    151  N         12.4630  -43.9150   20.9980 N.3   203  GLY203     -0.1210
    152  CA        13.4470  -44.3790   21.9550 C.3   203  GLY203      0.1956
    153  C         14.8300  -44.3190   21.3390 C.2   203  GLY203      0.2612
    154  O         15.0380  -44.7820   20.2160 O.2   203  GLY203     -0.2717
    155  N         15.7750  -43.7420   22.0790 N.am  204  ILE204     -0.1965
    156  CA        17.1270  -43.5050   21.5810 C.3   204  ILE204      0.1727
    157  C         18.1250  -44.0570   22.5900 C.2   204  ILE204      0.2616
    158  O         18.1010  -43.6760   23.7640 O.2   204  ILE204     -0.2715
    159  CB        17.3900  -42.0110   21.3250 C.3   204  ILE204      0.0290
    160  CG1       16.4190  -41.4630   20.2770 C.3   204  ILE204      0.0022
    161  CG2       18.8210  -41.7920   20.8820 C.3   204  ILE204      0.0023
    162  CD1       16.3180  -39.9560   20.2810 C.3   204  ILE204      0.0001
    163  N         18.9970  -44.9510   22.1370 N.am  205  GLY205     -0.1955
    164  CA        20.0710  -45.4630   22.9680 C.3   205  GLY205      0.1869
    165  C         21.4300  -45.1610   22.3750 C.2   205  GLY205      0.2309
    166  O         21.7160  -45.5780   21.2500 O.2   205  GLY205     -0.2863
    167  N         32.7790  -54.0160   16.6310 N.3   222  ARG222     -0.1245
    168  CA        31.5980  -53.4310   15.9990 C.3   222  ARG222      0.1563
    169  C         30.7200  -52.6450   16.9740 C.2   222  ARG222      0.2260
    170  O         29.5470  -52.3990   16.6700 O.2   222  ARG222     -0.2867
    171  CB        30.7210  -54.4760   15.2860 C.3   222  ARG222      0.0307
    172  CG        30.4470  -55.7480   16.0590 C.3   222  ARG222      0.0489
    173  CD        29.2370  -56.5030   15.5730 C.3   222  ARG222      0.2205
    174  NE        28.0850  -56.1980   16.4190 N.pl3 222  ARG222     -0.0865
    175  CZ        27.2670  -57.1210   16.9080 C.cat 222  ARG222      0.5346
    176  NH1       27.5000  -58.3990   16.6400 N.pl3 222  ARG222      0.1354
    177  NH2       26.2370  -56.7760   17.6740 N.pl3 222  ARG222      0.1354
    178  N         22.1150  -56.5160    8.2900 N.3   317  ASP317     -0.1239
    179  CA        23.3910  -56.8420    8.9060 C.3   317  ASP317      0.1674
    180  C         24.5030  -56.6730    7.8790 C.2   317  ASP317      0.2266
    181  O         24.3050  -56.9110    6.6840 O.2   317  ASP317     -0.2867
    182  CB        23.4020  -58.2740    9.4570 C.3   317  ASP317      0.1410
    183  CG        22.7310  -58.3790   10.8080 C.2   317  ASP317      0.3668
    184  OD1       22.7160  -57.3670   11.5400 O.co2 317  ASP317     -0.2456
    185  OD2       22.2280  -59.4710   11.1400 O.co2 317  ASP317     -0.2456
@<TRIPOS>BOND
     1   181   180    2
     2   180   179    1
     3   178   179    1
     4   179   182    1
     5   182   183    1
     6   183   185   ar
     7   183   184   ar
     8    61    59    1
     9    60    59    1
    10   114   113    2
    11    59    58    2
    12   111   112    1
    13   118   116   ar
    14   113   112    1
    15   142   141   ar
    16   142   140   ar
    17    58    57    1
    18   115   112    1
    19   115   116    1
    20   141   139   ar
    21   116   117   ar
    22    72    70    1
    23   140   138   ar
    24    57    56    1
    25    71    70    1
    26    70    69    2
    27   171   168    1
    28   171   172    1
    29   139   137   ar
    30   138   137   ar
    31   173   172    1
    32   173   174    1
    33    56    55    1
    34   119   120    1
    35   168   167    1
    36   168   169    1
    37    55    52    1
    38   137   136    1
    39   120   123    1
    40   120   121    1
    41   135   134    2
    42   123   124    1
    43    69    68    1
    44   174   175    2
    45   125   126    1
    46   125   124    1
    47   127   126    1
    48   176   175    1
    49   170   169    2
    50   175   177    1
    51   144   145    1
    52   144   147    1
    53   144   143    1
    54   134   143   am
    55   134   133    1
    56   145   146    2
    57    68    67    1
    58   121   122    2
    59    52    53    1
    60    52    51    1
    61   147   148    1
    62   136   133    1
    63   132   133    1
    64   132   130   am
    65    53    54    2
    66   129   130    1
    67   129   128    1
    68   130   131    2
    69    51    49   am
    70    67    66    1
    71   150   148    1
    72   148   149    1
    73    49    50    2
    74    49    48    1
    75    66    63    1
    76   154   153    2
    77   160   162    1
    78   160   159    1
    79    48    47    1
    80    62    63    1
    81   161   159    1
    82   151   152    1
    83    63    64    1
    84   166   165    2
    85   159   156    1
    86   153   152    1
    87   153   155   am
    88   156   155    1
    89   156   157    1
    90    22    20   am
    91    47    38   am
    92   163   157   am
    93   163   164    1
    94   165   164    1
    95    64    65    2
    96    64    73   am
    97   157   158    2
    98    20    21    2
    99    20    19    1
   100    73    74    1
   101    38    39    2
   102    38    37    1
   103   104   103    1
   104    76    75    2
   105    19    18    1
   106    75    74    1
   107    74    77    1
   108   100    99    2
   109    37    40    1
   110    37    36    1
   111    40    41    1
   112   107   106    1
   113   107   108    2
   114   106   109    1
   115   106   105    1
   116    18    15    1
   117    77    78    1
   118   103   102    1
   119    42    41    1
   120    42    43    1
   121    99   105   am
   122    99    98    1
   123   110   109    1
   124    36    34   am
   125    95    93   ar
   126    95    96   ar
   127    79    78   ar
   128    79    81   ar
   129   102   101    1
   130   101    98    1
   131    78    80   ar
   132    93    90   ar
   133    43    44    2
   134    15    16    1
   135    15    14    1
   136    98    97    1
   137    97    85   am
   138    35    34    2
   139    96    94   ar
   140    34    33    1
   141    17    16    2
   142    81    82   ar
   143    14     9   am
   144    84    85    1
   145    84    83    1
   146    84    87    1
   147    44    45    1
   148    44    46    1
   149    12    11    1
   150    85    86    2
   151    80    82   ar
   152    90    92   ar
   153    90    88   ar
   154    33    32    1
   155    94    92   ar
   156     6     5    1
   157    31    29   am
   158    87    88    1
   159     9    10    2
   160     9     8    1
   161    92    91   ar
   162    88    89   ar
   163    30    29    2
   164    11     8    1
   165    11    13    1
   166    29    28    1
   167     5     2    1
   168     8     7    1
   169     7     3   am
   170    91    89   ar
   171     3     2    1
   172     3     4    2
   173     2     1    1
   174    28    27    1
   175    27    24    1
   176    26    25    2
   177    24    23    1
   178    24    25    1
