@<TRIPOS>MOLECULE
tmp/6ar1A00.pdb
 153 147 0 0 0
SMALL
GASTEIGER

@<TRIPOS>ATOM
      1  N         14.3310  -27.9510   42.5770 N.3    66  ILE66      -0.1245
      2  CA        15.7280  -28.0790   42.1220 C.3    66  ILE66       0.1561
      3  C         16.2950  -26.6950   41.7890 C.2    66  ILE66       0.2260
      4  O         15.5230  -25.8060   41.4150 O.2    66  ILE66      -0.2867
      5  CB        15.9180  -29.0690   40.9320 C.3    66  ILE66       0.0252
      6  CG1       15.2300  -28.5870   39.6510 C.3    66  ILE66       0.0019
      7  CG2       15.4760  -30.4770   41.3050 C.3    66  ILE66       0.0019
      8  CD1       15.7390  -29.2830   38.4100 C.3    66  ILE66       0.0001
      9  N         18.1080  -23.6450   39.7910 N.3    68  LYS68      -0.1231
     10  CA        18.3520  -23.1840   38.4180 C.3    68  LYS68       0.1678
     11  C         19.6870  -22.4080   38.3410 C.2    68  LYS68       0.2434
     12  O         20.1090  -21.8220   39.3530 O.2    68  LYS68      -0.2733
     13  CB        17.1700  -22.3590   37.8870 C.3    68  LYS68       0.0284
     14  CG        16.9040  -21.0210   38.5720 C.3    68  LYS68       0.0035
     15  CD        15.7060  -20.2990   37.9650 C.3    68  LYS68       0.0206
     16  CE        14.3620  -20.8460   38.4380 C.3    68  LYS68       0.1093
     17  NZ        13.2570  -20.0910   37.7980 N.3    68  LYS68      -0.1314
     18  N         20.3520  -22.4060   37.1540 N.am   69  PRO69      -0.2729
     19  CA        21.6520  -21.7270   36.9680 C.3    69  PRO69       0.1401
     20  C         21.7020  -20.2400   37.3430 C.2    69  PRO69       0.2269
     21  O         22.7700  -19.7470   37.7130 O.2    69  PRO69      -0.2865
     22  CB        21.9170  -21.8940   35.4680 C.3    69  PRO69       0.0296
     23  CG        21.2380  -23.1680   35.1260 C.3    69  PRO69       0.0237
     24  CD        19.9750  -23.1560   35.9380 C.3    69  PRO69       0.0939
     25  N         13.5090  -24.0580   40.9780 N.3    74  ARG74      -0.1245
     26  CA        12.6260  -24.5360   39.9220 C.3    74  ARG74       0.1563
     27  C         11.7140  -25.6550   40.4400 C.2    74  ARG74       0.2260
     28  O         12.1990  -26.6890   40.9160 O.2    74  ARG74      -0.2867
     29  CB        13.4890  -25.0220   38.7560 C.3    74  ARG74       0.0307
     30  CG        12.7830  -25.8530   37.6980 C.3    74  ARG74       0.0489
     31  CD        13.5520  -25.8820   36.3810 C.3    74  ARG74       0.2205
     32  NE        13.5110  -24.5860   35.7100 N.pl3  74  ARG74      -0.0865
     33  CZ        14.5870  -23.8520   35.4080 C.cat  74  ARG74       0.5346
     34  NH1       15.8190  -24.2920   35.6740 N.pl3  74  ARG74       0.1354
     35  NH2       14.4280  -22.6800   34.8120 N.pl3  74  ARG74       0.1354
     36  N          9.7560  -28.6750   39.7860 N.3    76  LEU76      -0.1245
     37  CA         9.5170  -29.7630   38.8320 C.3    76  LEU76       0.1561
     38  C          8.1400  -30.3720   39.0480 C.2    76  LEU76       0.2260
     39  O          7.5570  -30.2560   40.1370 O.2    76  LEU76      -0.2867
     40  CB        10.5830  -30.8580   38.9380 C.3    76  LEU76       0.0270
     41  CG        12.0520  -30.5460   38.6380 C.3    76  LEU76       0.0019
     42  CD1       12.8890  -31.7960   38.8670 C.3    76  LEU76       0.0001
     43  CD2       12.2510  -30.0120   37.2270 C.3    76  LEU76       0.0001
     44  N         13.8270  -26.4900   21.6540 N.3   109  PHE109     -0.1241
     45  CA        13.0270  -27.7340   21.8120 C.3   109  PHE109      0.1605
     46  C         12.7190  -28.5190   20.5300 C.2   109  PHE109      0.2264
     47  O         11.9830  -29.5000   20.5810 O.2   109  PHE109     -0.2867
     48  CB        11.7010  -27.4920   22.5650 C.3   109  PHE109      0.0534
     49  CG        11.8470  -26.7660   23.8700 C.ar  109  PHE109     -0.0203
     50  CD1       12.8000  -27.1630   24.8170 C.ar  109  PHE109     -0.0042
     51  CD2       10.9940  -25.7070   24.1730 C.ar  109  PHE109     -0.0042
     52  CE1       12.9180  -26.4960   26.0280 C.ar  109  PHE109     -0.0003
     53  CE2       11.1020  -25.0370   25.3830 C.ar  109  PHE109     -0.0003
     54  CZ        12.0680  -25.4300   26.3120 C.ar  109  PHE109     -0.0000
     55  N         13.1480  -12.3500   28.2640 N.3   137  ASP137     -0.1225
     56  CA        12.8930  -13.6460   28.9030 C.3   137  ASP137      0.1805
     57  C         11.6330  -13.5410   29.7580 C.2   137  ASP137      0.2598
     58  O         11.3600  -12.4870   30.3310 O.2   137  ASP137     -0.2718
     59  CB        14.0800  -14.0770   29.7720 C.3   137  ASP137      0.1424
     60  CG        14.0540  -15.5590   30.0960 C.2   137  ASP137      0.3668
     61  OD1       14.6750  -16.3290   29.3430 O.co2 137  ASP137     -0.2456
     62  OD2       13.3850  -15.9410   31.0880 O.co2 137  ASP137     -0.2456
     63  N         10.8860  -14.6370   29.8560 N.am  138  LEU138     -0.1966
     64  CA         9.6020  -14.6540   30.5600 C.3   138  LEU138      0.1728
     65  C          9.7360  -15.2110   31.9810 C.2   138  LEU138      0.2616
     66  O         10.5770  -16.1020   32.2290 O.2   138  LEU138     -0.2715
     67  CB         8.5620  -15.4440   29.7450 C.3   138  LEU138      0.0311
     68  CG         7.9570  -14.8150   28.4700 C.3   138  LEU138      0.0022
     69  CD1        8.9540  -14.1970   27.4910 C.3   138  LEU138      0.0001
     70  CD2        7.1060  -15.8420   27.7490 C.3   138  LEU138      0.0001
     71  N          8.9250  -14.6720   32.8970 N.am  139  GLU139     -0.1963
     72  CA         8.9120  -15.0860   34.3040 C.3   139  GLU139      0.1733
     73  C          8.1380  -16.3890   34.4830 C.2   139  GLU139      0.2616
     74  O          6.9600  -16.4600   34.1030 O.2   139  GLU139     -0.2715
     75  CB         8.2680  -14.0070   35.1910 C.3   139  GLU139      0.0429
     76  CG         9.1330  -12.8080   35.5080 C.3   139  GLU139      0.1163
     77  CD         8.7190  -12.0460   36.7570 C.2   139  GLU139      0.3649
     78  OE1        7.5180  -12.0430   37.1160 O.co2 139  GLU139     -0.2457
     79  OE2        9.6150  -11.4340   37.3780 O.co2 139  GLU139     -0.2457
     80  N          8.8000  -17.4020   35.0470 N.am  140  LYS140     -0.1963
     81  CA         8.1710  -18.6930   35.3700 C.3   140  LYS140      0.1728
     82  C          7.3350  -19.2380   34.1970 C.2   140  LYS140      0.2616
     83  O          6.1570  -19.5690   34.3490 O.2   140  LYS140     -0.2715
     84  CB         7.3380  -18.5660   36.6600 C.3   140  LYS140      0.0311
     85  CG         8.1490  -18.1620   37.8940 C.3   140  LYS140      0.0038
     86  CD         9.0010  -19.2920   38.4580 C.3   140  LYS140      0.0206
     87  CE         9.5950  -18.9210   39.8090 C.3   140  LYS140      0.1093
     88  NZ        10.7660  -18.0050   39.7000 N.3   140  LYS140     -0.1314
     89  N          7.9780  -19.3130   33.0330 N.am  141  PHE141     -0.1960
     90  CA         7.3020  -19.4870   31.7420 C.3   141  PHE141      0.1771
     91  C          6.3120  -20.6510   31.6740 C.2   141  PHE141      0.2619
     92  O          5.1550  -20.4550   31.2990 O.2   141  PHE141     -0.2715
     93  CB         8.3370  -19.5200   30.6020 C.3   141  PHE141      0.0574
     94  CG         7.7700  -19.8960   29.2570 C.ar  141  PHE141     -0.0200
     95  CD1        6.6370  -19.2480   28.7370 C.ar  141  PHE141     -0.0042
     96  CD2        8.3900  -20.8830   28.4860 C.ar  141  PHE141     -0.0042
     97  CE1        6.1220  -19.5980   27.4930 C.ar  141  PHE141     -0.0003
     98  CE2        7.8860  -21.2220   27.2340 C.ar  141  PHE141     -0.0003
     99  CZ         6.7480  -20.5830   26.7440 C.ar  141  PHE141     -0.0000
    100  N          6.7660  -21.8410   32.0490 N.am  142  PHE142     -0.1974
    101  CA         5.9240  -23.0440   32.0420 C.3   142  PHE142      0.1639
    102  C          4.7970  -22.9680   33.0650 C.2   142  PHE142      0.2290
    103  O          3.7150  -23.4900   32.8230 O.2   142  PHE142     -0.2864
    104  CB         6.7730  -24.3100   32.2850 C.3   142  PHE142      0.0560
    105  CG         7.4150  -24.8810   31.0320 C.ar  142  PHE142     -0.0200
    106  CD1        7.9850  -24.0460   30.0530 C.ar  142  PHE142     -0.0042
    107  CD2        7.4730  -26.2640   30.8340 C.ar  142  PHE142     -0.0042
    108  CE1        8.5870  -24.5770   28.9270 C.ar  142  PHE142     -0.0003
    109  CE2        8.0710  -26.7940   29.6970 C.ar  142  PHE142     -0.0003
    110  CZ         8.6300  -25.9490   28.7470 C.ar  142  PHE142     -0.0000
    111  N          6.7600  -28.8760   34.4100 N.3   190  GLN190     -0.1231
    112  CA         8.1540  -28.9820   33.9710 C.3   190  GLN190      0.1698
    113  C          8.6760  -30.3660   34.3200 C.2   190  GLN190      0.2592
    114  O          9.0950  -30.6160   35.4550 O.2   190  GLN190     -0.2718
    115  CB         9.0250  -27.9050   34.6180 C.3   190  GLN190      0.0381
    116  CG         8.5440  -26.4890   34.3610 C.3   190  GLN190      0.0905
    117  CD         9.3350  -25.4570   35.1310 C.2   190  GLN190      0.2608
    118  OE1       10.4960  -25.6830   35.4910 O.2   190  GLN190     -0.2717
    119  NE2        8.7250  -24.3000   35.3620 N.am  190  GLN190     -0.0878
    120  N          8.6460  -31.2560   33.3310 N.am  191  GLY191     -0.1957
    121  CA         8.8900  -32.6730   33.5570 C.3   191  GLY191      0.1869
    122  C          8.0170  -33.5850   32.7140 C.2   191  GLY191      0.2309
    123  O          8.3630  -34.7490   32.4900 O.2   191  GLY191     -0.2863
    124  N         13.1900  -21.1990   23.1640 N.3   221  ALA221     -0.1231
    125  CA        12.1870  -21.2790   24.2370 C.3   221  ALA221      0.1694
    126  C         11.6910  -19.8760   24.5950 C.2   221  ALA221      0.2592
    127  O         11.3800  -19.0940   23.7000 O.2   221  ALA221     -0.2718
    128  CB        12.7290  -22.0130   25.4580 C.3   221  ALA221      0.0304
    129  N         11.6230  -19.5480   25.8840 N.am  222  ASP222     -0.1974
    130  CA        11.1820  -18.2230   26.3020 C.3   222  ASP222      0.1709
    131  C         12.2450  -17.1670   26.0210 C.2   222  ASP222      0.2293
    132  O         11.9250  -15.9960   25.9130 O.2   222  ASP222     -0.2864
    133  CB        10.7630  -18.2200   27.7760 C.3   222  ASP222      0.1436
    134  CG        11.9400  -18.3160   28.7280 C.2   222  ASP222      0.3671
    135  OD1       12.9730  -18.9260   28.3920 O.co2 222  ASP222     -0.2456
    136  OD2       11.8330  -17.7690   29.8300 O.co2 222  ASP222     -0.2456
    137  N         10.1020  -11.1740   32.3670 N.3   254  ASN254     -0.1240
    138  CA        11.0960  -11.0180   33.4250 C.3   254  ASN254      0.1653
    139  C         11.9340   -9.7740   33.1580 C.2   254  ASN254      0.2266
    140  O         12.8490   -9.8050   32.3340 O.2   254  ASN254     -0.2867
    141  CB        11.9800  -12.2770   33.5340 C.3   254  ASN254      0.1155
    142  CG        12.7010  -12.3820   34.8740 C.2   254  ASN254      0.2627
    143  OD1       13.1990  -11.3940   35.4150 O.2   254  ASN254     -0.2716
    144  ND2       12.7790  -13.5950   35.4040 N.am  254  ASN254     -0.0877
    145  N         15.8370   -9.9520   33.7470 N.3   257  LYS257     -0.1245
    146  CA        16.5580  -10.5900   32.6460 C.3   257  LYS257      0.1561
    147  C         16.4250   -9.7970   31.3370 C.2   257  LYS257      0.2260
    148  O         17.3680   -9.7320   30.5420 O.2   257  LYS257     -0.2867
    149  CB        16.0830  -12.0350   32.4530 C.3   257  LYS257      0.0271
    150  CG        16.2450  -12.9300   33.6770 C.3   257  LYS257      0.0035
    151  CD        16.0720  -14.3950   33.3080 C.3   257  LYS257      0.0206
    152  CE        16.0320  -15.2930   34.5380 C.3   257  LYS257      0.1093
    153  NZ        15.9910  -16.7420   34.1800 N.3   257  LYS257     -0.1314
@<TRIPOS>BOND
     1    46    47    2
     2    46    45    1
     3    44    45    1
     4    45    48    1
     5    48    49    1
     6   124   125    1
     7   127   126    2
     8    49    51   ar
     9    49    50   ar
    10    51    53   ar
    11   125   126    1
    12   125   128    1
    13   126   129   am
    14    50    52   ar
    15    53    54   ar
    16   129   130    1
    17   132   131    2
    18   131   130    1
    19    52    54   ar
    20   130   133    1
    21    99    98   ar
    22    99    97   ar
    23    98    96   ar
    24    69    68    1
    25    97    95   ar
    26    70    68    1
    27   133   134    1
    28    55    56    1
    29   135   134   ar
    30    68    67    1
    31    96    94   ar
    32   134   136   ar
    33    95    94   ar
    34   110   108   ar
    35   110   109   ar
    36    56    57    1
    37    56    59    1
    38   108   106   ar
    39    94    93    1
    40    61    60   ar
    41   109   107   ar
    42    67    64    1
    43    57    63   am
    44    57    58    2
    45    59    60    1
    46    63    64    1
    47   106   105   ar
    48    60    62   ar
    49   148   147    2
    50    64    65    1
    51    93    90    1
    52   107   105   ar
    53   105   104    1
    54    92    91    2
    55   147   146    1
    56    91    90    1
    57    91   100   am
    58    90    89    1
    59    65    66    2
    60    65    71   am
    61   101   100    1
    62   101   104    1
    63   101   102    1
    64   140   139    2
    65   137   138    1
    66   149   146    1
    67   149   150    1
    68   123   122    2
    69   146   145    1
    70   122   121    1
    71   103   102    2
    72    71    72    1
    73    89    82   am
    74   139   138    1
    75   151   150    1
    76   151   152    1
    77   120   121    1
    78   120   113   am
    79   138   141    1
    80   141   142    1
    81   112   113    1
    82   112   111    1
    83   112   115    1
    84    74    73    2
    85   153   152    1
    86    82    83    2
    87    82    81    1
    88    72    73    1
    89    72    75    1
    90   113   114    2
    91   116   115    1
    92   116   117    1
    93    73    80   am
    94    35    33    1
    95   142   144   am
    96   142   143    2
    97    80    81    1
    98    23    22    1
    99    23    24    1
   100   117   119   am
   101   117   118    2
   102    75    76    1
   103    81    84    1
   104    33    34    1
   105    33    32    2
   106    22    19    1
   107    76    77    1
   108    32    31    1
   109    24    18    1
   110    31    30    1
   111    84    85    1
   112    77    78   ar
   113    77    79   ar
   114    19    18    1
   115    19    20    1
   116    18    11   am
   117    43    41    1
   118    20    21    2
   119    30    29    1
   120    17    16    1
   121    13    10    1
   122    13    14    1
   123    85    86    1
   124    15    16    1
   125    15    14    1
   126    11    10    1
   127    11    12    2
   128     8     6    1
   129    10     9    1
   130    86    87    1
   131    41    42    1
   132    41    40    1
   133    29    26    1
   134    37    40    1
   135    37    38    1
   136    37    36    1
   137    38    39    2
   138     6     5    1
   139    88    87    1
   140    26    27    1
   141    26    25    1
   142    27    28    2
   143     5     7    1
   144     5     2    1
   145     4     3    2
   146     3     2    1
   147     2     1    1
