@<TRIPOS>MOLECULE
tmp/6ar4B00.pdb
 140 134 0 0 0
SMALL
GASTEIGER

@<TRIPOS>ATOM
      1  N        -36.5810  -18.9690    7.5810 N.3    10  LYS10      -0.1231
      2  CA       -37.6970  -17.9650    7.7330 C.3    10  LYS10       0.1693
      3  C        -38.2180  -17.9100    9.2110 C.2    10  LYS10       0.2592
      4  O        -38.2620  -18.9620    9.8640 O.2    10  LYS10      -0.2718
      5  CB       -38.8010  -18.2750    6.8130 C.3    10  LYS10       0.0285
      6  CG       -38.3230  -18.0850    5.3620 C.3    10  LYS10       0.0035
      7  CD       -39.4040  -17.4090    4.5340 C.3    10  LYS10       0.0206
      8  CE       -38.8720  -16.5500    3.4090 C.3    10  LYS10       0.1093
      9  NZ       -40.0500  -15.9430    2.7770 N.3    10  LYS10      -0.1314
     10  N        -38.4680  -16.7340    9.7410 N.am   11  ASP11      -0.1974
     11  CA       -38.9920  -16.6150   11.0810 C.3    11  ASP11       0.1709
     12  C        -40.4870  -16.9970   11.0910 C.2    11  ASP11       0.2293
     13  O        -41.0670  -17.2560   10.0130 O.2    11  ASP11      -0.2864
     14  CB       -38.6700  -15.2950   11.7320 C.3    11  ASP11       0.1436
     15  CG       -39.4560  -14.1170   11.1180 C.2    11  ASP11       0.3671
     16  OD1      -40.3730  -14.2510   10.2240 O.co2  11  ASP11      -0.2456
     17  OD2      -39.1230  -12.9400   11.5320 O.co2  11  ASP11      -0.2456
     18  N        -42.8950  -15.1780   11.2010 N.3    13  GLN13      -0.1231
     19  CA       -43.5900  -14.2520   10.3350 C.3    13  GLN13       0.1698
     20  C        -43.2320  -14.3430    8.8480 C.2    13  GLN13       0.2592
     21  O        -43.6690  -13.5930    8.0360 O.2    13  GLN13      -0.2718
     22  CB       -43.4240  -12.8360   10.8510 C.3    13  GLN13       0.0381
     23  CG       -44.0440  -12.7400   12.2280 C.3    13  GLN13       0.0905
     24  CD       -42.9490  -12.7810   13.2560 C.2    13  GLN13       0.2608
     25  OE1      -42.0900  -11.8860   13.2740 O.2    13  GLN13      -0.2717
     26  NE2      -42.9960  -13.7420   14.1490 N.am   13  GLN13      -0.0878
     27  N        -42.5400  -15.4190    8.4610 N.am   14  ASN14      -0.1960
     28  CA       -42.1700  -15.6500    7.0960 C.3    14  ASN14       0.1819
     29  C        -41.2640  -14.4430    6.6200 C.2    14  ASN14       0.2621
     30  O        -41.3130  -14.0840    5.4810 O.2    14  ASN14      -0.2715
     31  CB       -43.3650  -15.7620    6.1370 C.3    14  ASN14       0.1195
     32  CG       -43.0020  -16.2170    4.7290 C.2    14  ASN14       0.2630
     33  OD1      -42.2080  -17.1340    4.5710 O.2    14  ASN14      -0.2716
     34  ND2      -43.5820  -15.6230    3.6480 N.am   14  ASN14      -0.0877
     35  N        -40.3450  -14.0710    7.4960 N.am   15  LEU15      -0.1963
     36  CA       -39.3750  -13.0320    7.1400 C.3    15  LEU15       0.1728
     37  C        -37.9610  -13.5870    7.3990 C.2    15  LEU15       0.2616
     38  O        -37.7540  -14.4010    8.3080 O.2    15  LEU15      -0.2715
     39  CB       -39.6710  -11.9000    8.0730 C.3    15  LEU15       0.0311
     40  CG       -40.9920  -11.2050    7.7180 C.3    15  LEU15       0.0022
     41  CD1      -41.0830  -10.0100    8.6320 C.3    15  LEU15       0.0001
     42  CD2      -41.1300  -10.7460    6.2690 C.3    15  LEU15       0.0001
     43  N        -37.0280  -13.0600    6.6370 N.am   16  ILE16      -0.1963
     44  CA       -35.5650  -13.1550    6.8790 C.3    16  ILE16       0.1727
     45  C        -34.8530  -11.9230    7.4860 C.2    16  ILE16       0.2617
     46  O        -33.7500  -12.0790    8.0680 O.2    16  ILE16      -0.2715
     47  CB       -34.7720  -13.5650    5.5940 C.3    16  ILE16       0.0290
     48  CG1      -34.8630  -12.5980    4.4460 C.3    16  ILE16       0.0022
     49  CG2      -35.1430  -15.0030    5.1850 C.3    16  ILE16       0.0023
     50  CD1      -33.6560  -12.7020    3.5100 C.3    16  ILE16       0.0001
     51  N        -35.5130  -10.7780    7.4440 N.am   17  GLY17      -0.1940
     52  CA       -34.9990   -9.5780    8.0860 C.3    17  GLY17       0.2014
     53  C        -34.1860   -8.6530    7.2530 C.2    17  GLY17       0.2639
     54  O        -33.1790   -8.0980    7.8030 O.2    17  GLY17      -0.2714
     55  N        -34.5940   -8.4350    6.0410 N.am   18  ILE18      -0.1963
     56  CA       -33.8800   -7.5550    5.1190 C.3    18  ILE18       0.1727
     57  C        -34.7570   -6.6030    4.4250 C.2    18  ILE18       0.2617
     58  O        -35.8750   -6.9280    4.1670 O.2    18  ILE18      -0.2715
     59  CB       -32.8400   -8.2270    4.1220 C.3    18  ILE18       0.0290
     60  CG1      -33.5560   -8.8800    2.8820 C.3    18  ILE18       0.0022
     61  CG2      -31.8320   -9.0300    4.8970 C.3    18  ILE18       0.0023
     62  CD1      -32.5760   -9.4050    1.8360 C.3    18  ILE18       0.0001
     63  N        -34.2550   -5.4020    4.1820 N.am   19  SER19      -0.1936
     64  CA       -34.8460   -4.5080    3.1240 C.3    19  SER19       0.2055
     65  C        -33.8400   -4.3610    2.0490 C.2    19  SER19       0.2642
     66  O        -32.6670   -4.7220    2.1870 O.2    19  SER19      -0.2714
     67  CB       -35.0510   -3.0990    3.6600 C.3    19  SER19       0.2130
     68  OG       -33.8640   -2.4510    4.0580 O.3    19  SER19      -0.2179
     69  N        -34.3260   -3.9220    0.8900 N.am   20  ILE20      -0.1977
     70  CA       -33.5570   -3.9740   -0.3320 C.3    20  ILE20       0.1596
     71  C        -33.7670   -2.6820   -1.1470 C.2    20  ILE20       0.2287
     72  O        -34.7770   -1.9680   -0.8430 O.2    20  ILE20      -0.2864
     73  CB       -33.9560   -5.1720   -1.2220 C.3    20  ILE20       0.0276
     74  CG1      -35.3830   -5.1460   -1.7270 C.3    20  ILE20       0.0022
     75  CG2      -33.5880   -6.4980   -0.5520 C.3    20  ILE20       0.0022
     76  CD1      -35.6060   -6.1300   -2.8450 C.3    20  ILE20       0.0001
     77  N        -32.0750   -6.1950    9.6970 N.3    36  PHE36      -0.1227
     78  CA       -32.6420   -5.8710   10.9140 C.3    36  PHE36       0.1736
     79  C        -32.1970   -6.7150   12.1270 C.2    36  PHE36       0.2595
     80  O        -32.0830   -7.9830   11.9930 O.2    36  PHE36      -0.2718
     81  CB       -34.1530   -5.9540   10.7480 C.3    36  PHE36       0.0547
     82  CG       -34.6930   -4.9320    9.8580 C.ar   36  PHE36      -0.0202
     83  CD1      -34.7030   -3.5570   10.2380 C.ar   36  PHE36      -0.0042
     84  CD2      -35.2410   -5.3270    8.6220 C.ar   36  PHE36      -0.0042
     85  CE1      -35.3170   -2.6130    9.3640 C.ar   36  PHE36      -0.0003
     86  CE2      -35.7710   -4.4290    7.7480 C.ar   36  PHE36      -0.0003
     87  CZ       -35.7480   -3.0260    8.0830 C.ar   36  PHE36      -0.0000
     88  N        -31.9860   -6.0880   13.3110 N.am   37  ASP37      -0.1974
     89  CA       -31.5910   -6.8330   14.4970 C.3    37  ASP37       0.1709
     90  C        -32.4950   -7.9240   14.8450 C.2    37  ASP37       0.2293
     91  O        -33.7270   -7.7600   14.7080 O.2    37  ASP37      -0.2864
     92  CB       -31.5460   -5.9750   15.6870 C.3    37  ASP37       0.1436
     93  CG       -30.3540   -4.9000   15.6150 C.2    37  ASP37       0.3671
     94  OD1      -29.3890   -5.0350   14.7970 O.co2  37  ASP37      -0.2456
     95  OD2      -30.4720   -4.0800   16.5210 O.co2  37  ASP37      -0.2456
     96  N        -33.0610  -10.8570   13.5990 N.3    39  THR39      -0.1218
     97  CA       -33.7340  -11.5590   12.5330 C.3    39  THR39       0.1862
     98  C        -32.8320  -12.7120   12.0330 C.2    39  THR39       0.2287
     99  O        -31.7260  -12.7200   12.3610 O.2    39  THR39      -0.2866
    100  CB       -34.0800  -10.6300   11.3330 C.3    39  THR39       0.1770
    101  OG1      -32.8510  -10.1290   10.7690 O.3    39  THR39      -0.2211
    102  CG2      -34.9290   -9.4360   11.8060 C.3    39  THR39       0.0375
    103  N        -37.7840   -4.1960   -7.2500 N.3    66  LYS66      -0.1231
    104  CA       -37.6380   -4.6240   -5.8870 C.3    66  LYS66       0.1693
    105  C        -38.9390   -5.2080   -5.3130 C.2    66  LYS66       0.2591
    106  O        -38.8670   -6.0740   -4.4960 O.2    66  LYS66      -0.2718
    107  CB       -36.9700   -3.5950   -5.0040 C.3    66  LYS66       0.0285
    108  CG       -37.7520   -2.3730   -4.7010 C.3    66  LYS66       0.0035
    109  CD       -36.8720   -1.4000   -3.9820 C.3    66  LYS66       0.0206
    110  CE       -36.9730   -0.0120   -4.5450 C.3    66  LYS66       0.1093
    111  NZ       -36.6770    0.0770   -5.9900 N.3    66  LYS66      -0.1314
    112  N        -40.1040   -4.7640   -5.7680 N.am   67  VAL67      -0.1980
    113  CA       -41.3340   -5.3380   -5.2680 C.3    67  VAL67       0.1595
    114  C        -41.4290   -6.7750   -5.7320 C.2    67  VAL67       0.2287
    115  O        -41.8730   -7.6040   -5.0180 O.2    67  VAL67      -0.2864
    116  CB       -42.6010   -4.6230   -5.6990 C.3    67  VAL67       0.0276
    117  CG1      -43.7710   -5.2270   -4.9990 C.3    67  VAL67       0.0022
    118  CG2      -42.5240   -3.1720   -5.3540 C.3    67  VAL67       0.0022
    119  N        -39.0310   -8.8470   -3.6330 N.3    70  ALA70      -0.1245
    120  CA       -39.6370   -9.1290   -2.3380 C.3    70  ALA70       0.1562
    121  C        -40.7000  -10.1970   -2.4090 C.2    70  ALA70       0.2260
    122  O        -40.7400  -11.0720   -1.5750 O.2    70  ALA70      -0.2867
    123  CB       -40.2190   -7.8380   -1.7220 C.3    70  ALA70       0.0290
    124  N        -38.9930  -13.6680   -2.5670 N.3    73  ILE73      -0.1231
    125  CA       -38.4420  -14.0990   -1.3350 C.3    73  ILE73       0.1692
    126  C        -39.6520  -14.5920   -0.4490 C.2    73  ILE73       0.2591
    127  O        -39.5970  -15.6390    0.1770 O.2    73  ILE73      -0.2718
    128  CB       -37.5810  -13.0040   -0.5860 C.3    73  ILE73       0.0266
    129  CG1      -36.3140  -12.8260   -1.3950 C.3    73  ILE73       0.0019
    130  CG2      -37.2490  -13.4410    0.7460 C.3    73  ILE73       0.0020
    131  CD1      -35.3890  -11.6800   -0.9780 C.3    73  ILE73       0.0001
    132  N        -40.7340  -13.8180   -0.4330 N.am   74  GLN74      -0.1979
    133  CA       -41.9120  -14.0830    0.4280 C.3    74  GLN74       0.1601
    134  C        -42.5860  -15.4160    0.0480 C.2    74  GLN74       0.2287
    135  O        -42.8930  -16.2180    0.9170 O.2    74  GLN74      -0.2864
    136  CB       -42.9020  -12.9560    0.1320 C.3    74  GLN74       0.0394
    137  CG       -42.6830  -11.8050    1.1270 C.3    74  GLN74       0.0908
    138  CD       -42.9850  -10.3610    0.5970 C.2    74  GLN74       0.2608
    139  OE1      -43.4750  -10.1240   -0.5610 O.2    74  GLN74      -0.2717
    140  NE2      -42.6700   -9.3670    1.4720 N.am   74  GLN74      -0.0878
@<TRIPOS>BOND
     1   103   104    1
     2   111   110    1
     3   104   105    1
     4   104   107    1
     5   112   105   am
     6   112   113    1
     7   114   113    1
     8   114   115    2
     9   116   118    1
    10   116   113    1
    11   116   117    1
    12   105   106    2
    13   107   108    1
    14   108   109    1
    15   110   109    1
    16   119   120    1
    17    76    74    1
    18   124   125    1
    19   121   120    1
    20   121   122    2
    21   120   123    1
    22    74    73    1
    23   129   131    1
    24   129   128    1
    25   125   128    1
    26   125   126    1
    27    73    75    1
    28    73    70    1
    29    71    72    2
    30    71    70    1
    31   128   130    1
    32   139   138    2
    33   126   132   am
    34   126   127    2
    35   132   133    1
    36    70    69    1
    37   134   133    1
    38   134   135    2
    39   136   133    1
    40   136   137    1
    41   138   137    1
    42   138   140   am
    43    69    65   am
    44    62    60    1
    45    65    66    2
    46    65    64    1
    47     9     8    1
    48    60    59    1
    49    64    67    1
    50    64    63    1
    51     8     7    1
    52    50    48    1
    53    34    32   am
    54    67    68    1
    55    59    61    1
    56    59    56    1
    57    58    57    2
    58    63    57   am
    59    57    56    1
    60    48    47    1
    61     7     6    1
    62    33    32    2
    63    32    31    1
    64    56    55    1
    65    49    47    1
    66     6     5    1
    67    30    29    2
    68    47    44    1
    69    55    53   am
    70    31    28    1
    71    42    40    1
    72    29    28    1
    73    29    35   am
    74    43    44    1
    75    43    37   am
    76     5     2    1
    77    44    45    1
    78    28    27    1
    79    36    37    1
    80    36    35    1
    81    36    39    1
    82    53    54    2
    83    53    52    1
    84    37    38    2
    85    51    45   am
    86    51    52    1
    87    45    46    2
    88     1     2    1
    89    40    39    1
    90    40    41    1
    91     2     3    1
    92    86    87   ar
    93    86    84   ar
    94    21    20    2
    95    87    85   ar
    96    27    20   am
    97    84    82   ar
    98    20    19    1
    99     3    10   am
   100     3     4    2
   101    85    83   ar
   102    77    78    1
   103    10    11    1
   104    82    83   ar
   105    82    81    1
   106    13    12    2
   107    16    15   ar
   108    19    22    1
   109    19    18    1
   110    81    78    1
   111   101   100    1
   112    22    23    1
   113    78    79    1
   114    11    12    1
   115    11    14    1
   116    15    17   ar
   117    15    14    1
   118   100   102    1
   119   100    97    1
   120    80    79    2
   121    98    99    2
   122    98    97    1
   123    79    88   am
   124    23    24    1
   125    97    96    1
   126    24    25    2
   127    24    26   am
   128    88    89    1
   129    89    90    1
   130    89    92    1
   131    91    90    2
   132    94    93   ar
   133    93    92    1
   134    93    95   ar
