@<TRIPOS>MOLECULE
tmp/6ar9E00.pdb
 173 168 0 0 0
SMALL
GASTEIGER

@<TRIPOS>ATOM
      1  N          6.1910  -35.6530   -3.6170 N.3    79  LYS79      -0.1231
      2  CA         6.2880  -36.6310   -4.7030 C.3    79  LYS79       0.1693
      3  C          6.3550  -36.0010   -6.0920 C.2    79  LYS79       0.2592
      4  O          6.8020  -36.6380   -7.0450 O.2    79  LYS79      -0.2718
      5  CB         5.0890  -37.5820   -4.6530 C.3    79  LYS79       0.0285
      6  CG         5.1430  -38.6160   -3.5430 C.3    79  LYS79       0.0035
      7  CD         4.1020  -39.7040   -3.7660 C.3    79  LYS79       0.0206
      8  CE         2.7020  -39.1240   -3.8470 C.3    79  LYS79       0.1093
      9  NZ         1.6770  -40.1940   -3.9970 N.3    79  LYS79      -0.1314
     10  N          5.9120  -34.7470   -6.1980 N.am   80  GLY80      -0.1957
     11  CA         5.6660  -34.1360   -7.4950 C.3    80  GLY80       0.1869
     12  C          6.8750  -34.0310   -8.4040 C.2    80  GLY80       0.2309
     13  O          6.7110  -33.9460   -9.6250 O.2    80  GLY80      -0.2863
     14  N          7.0700  -33.2610    1.5580 N.3   105  ILE105     -0.1231
     15  CA         6.4060  -32.1200    2.1790 C.3   105  ILE105      0.1692
     16  C          4.8990  -32.2770    2.0270 C.2   105  ILE105      0.2592
     17  O          4.4170  -32.7540    0.9940 O.2   105  ILE105     -0.2718
     18  CB         6.8790  -30.7880    1.5540 C.3   105  ILE105      0.0266
     19  CG1        8.3930  -30.6320    1.7100 C.3   105  ILE105      0.0019
     20  CG2        6.1630  -29.6020    2.1830 C.3   105  ILE105      0.0020
     21  CD1        8.9640  -29.4550    0.9540 C.3   105  ILE105      0.0001
     22  N          4.1560  -31.8810    3.0600 N.am  106  THR106     -0.1953
     23  CA         2.6980  -31.8300    2.9830 C.3   106  THR106      0.1897
     24  C          2.2480  -30.5220    2.3420 C.2   106  THR106      0.2313
     25  O          1.4020  -30.5150    1.4490 O.2   106  THR106     -0.2863
     26  CB         2.0770  -31.9810    4.3650 C.3   106  THR106      0.1794
     27  OG1        1.4460  -33.2540    4.4310 O.3   106  THR106     -0.2208
     28  CG2        1.1430  -30.8750    4.7060 C.3   106  THR106      0.0378
     29  N         12.1290  -28.7830   -7.6920 N.3   126  GLU126     -0.1231
     30  CA        10.7310  -28.7360   -7.2880 C.3   126  GLU126      0.1699
     31  C          9.8450  -28.6560   -8.5250 C.2   126  GLU126      0.2592
     32  O         10.2380  -28.0960   -9.5520 O.2   126  GLU126     -0.2718
     33  CB        10.4790  -27.5350   -6.3430 C.3   126  GLU126      0.0402
     34  CG         9.0280  -27.0930   -6.2020 C.3   126  GLU126      0.1161
     35  CD         8.2560  -27.9050   -5.1760 C.2   126  GLU126      0.3649
     36  OE1        7.5900  -27.2940   -4.3140 O.co2 126  GLU126     -0.2457
     37  OE2        8.3130  -29.1510   -5.2310 O.co2 126  GLU126     -0.2457
     38  N          8.6410  -29.2290   -8.4200 N.am  127  ASP127     -0.1960
     39  CA         7.7550  -29.3250   -9.5790 C.3   127  ASP127      0.1840
     40  C          7.1950  -27.9620   -9.9800 C.2   127  ASP127      0.2622
     41  O          7.2310  -27.5890  -11.1590 O.2   127  ASP127     -0.2715
     42  CB         6.6200  -30.3180   -9.2990 C.3   127  ASP127      0.1450
     43  CG         5.8490  -29.9980   -8.0230 C.2   127  ASP127      0.3671
     44  OD1        6.1940  -29.0160   -7.3330 O.co2 127  ASP127     -0.2456
     45  OD2        4.8890  -30.7340   -7.7120 O.co2 127  ASP127     -0.2456
     46  N          6.6690  -27.2010   -9.0200 N.am  128  ILE128     -0.1963
     47  CA         5.9570  -25.9700   -9.3460 C.3   128  ILE128      0.1727
     48  C          6.1490  -24.9520   -8.2290 C.2   128  ILE128      0.2616
     49  O          6.3390  -25.3070   -7.0620 O.2   128  ILE128     -0.2715
     50  CB         4.4570  -26.2530   -9.6030 C.3   128  ILE128      0.0290
     51  CG1        3.7750  -25.0440  -10.2510 C.3   128  ILE128      0.0022
     52  CG2        3.7550  -26.6760   -8.3140 C.3   128  ILE128      0.0023
     53  CD1        2.4660  -25.3810  -10.9340 C.3   128  ILE128      0.0001
     54  N          6.1130  -23.6730   -8.6040 N.am  129  ALA129     -0.1963
     55  CA         6.0430  -22.5610   -7.6650 C.3   129  ALA129      0.1728
     56  C          4.7850  -21.7620   -7.9770 C.2   129  ALA129      0.2616
     57  O          4.6510  -21.2140   -9.0780 O.2   129  ALA129     -0.2715
     58  CB         7.2870  -21.6780   -7.7590 C.3   129  ALA129      0.0334
     59  N          3.8630  -21.7000   -7.0130 N.am  130  ASP130     -0.1957
     60  CA         2.6030  -21.0030   -7.2060 C.3   130  ASP130      0.1840
     61  C          2.5500  -19.8500   -6.2170 C.2   130  ASP130      0.2623
     62  O          2.9240  -18.7110   -6.5690 O.2   130  ASP130     -0.2715
     63  CB         1.4320  -21.9800   -7.0580 C.3   130  ASP130      0.1450
     64  CG         0.0930  -21.3430   -7.3370 C.2   130  ASP130      0.3671
     65  OD1        0.0560  -20.2900   -7.9950 O.co2 130  ASP130     -0.2456
     66  OD2       -0.9260  -21.8900   -6.8670 O.co2 130  ASP130     -0.2456
     67  N          2.0830  -20.0620   -4.9840 N.am  131  THR131     -0.1937
     68  CA         2.0900  -18.9820   -4.0070 C.3   131  THR131      0.2028
     69  C          3.4950  -18.6480   -3.5380 C.2   131  THR131      0.2643
     70  O          3.7050  -17.5630   -2.9850 O.2   131  THR131     -0.2714
     71  CB         1.2240  -19.3370   -2.7960 C.3   131  THR131      0.1808
     72  OG1        1.8280  -20.4180   -2.0730 O.3   131  THR131     -0.2208
     73  CG2       -0.1750  -19.7330   -3.2330 C.3   131  THR131      0.0379
     74  N          4.4530  -19.5480   -3.7490 N.am  132  GLY132     -0.1939
     75  CA         5.8020  -19.3810   -3.2600 C.3   132  GLY132      0.2014
     76  C          6.0130  -19.8060   -1.8260 C.2   132  GLY132      0.2639
     77  O          7.1550  -19.7740   -1.3500 O.2   132  GLY132     -0.2714
     78  N          4.9560  -20.2150   -1.1230 N.am  133  ARG133     -0.1963
     79  CA         5.0870  -20.5070    0.3010 C.3   133  ARG133      0.1729
     80  C          5.9240  -21.7590    0.5350 C.2   133  ARG133      0.2617
     81  O          6.8520  -21.7490    1.3510 O.2   133  ARG133     -0.2715
     82  CB         3.7040  -20.6450    0.9390 C.3   133  ARG133      0.0348
     83  CG         2.9640  -19.3180    1.0660 C.3   133  ARG133      0.0492
     84  CD         1.5790  -19.4920    1.6700 C.3   133  ARG133      0.2205
     85  NE         0.7020  -20.2910    0.8180 N.pl3 133  ARG133     -0.0865
     86  CZ        -0.6220  -20.3150    0.9250 C.cat 133  ARG133      0.5346
     87  NH1       -1.2280  -19.5790    1.8470 N.pl3 133  ARG133      0.1354
     88  NH2       -1.3420  -21.0740    0.1100 N.pl3 133  ARG133      0.1354
     89  N          5.6150  -22.8460   -0.1800 N.am  134  THR134     -0.1937
     90  CA         6.3460  -24.0980    0.0010 C.3   134  THR134      0.2028
     91  C          7.8500  -23.8860   -0.1290 C.2   134  THR134      0.2642
     92  O          8.6290  -24.3110    0.7340 O.2   134  THR134     -0.2714
     93  CB         5.8700  -25.1410   -1.0130 C.3   134  THR134      0.1808
     94  OG1        4.4860  -25.4390   -0.7920 O.3   134  THR134     -0.2208
     95  CG2        6.6880  -26.4210   -0.8810 C.3   134  THR134      0.0379
     96  N          8.2760  -23.2090   -1.1970 N.am  135  MET135     -0.1976
     97  CA         9.7040  -23.0230   -1.4200 C.3   135  MET135      0.1605
     98  C         10.3000  -21.9900   -0.4750 C.2   135  MET135      0.2287
     99  O         11.4800  -22.0890   -0.1220 O.2   135  MET135     -0.2864
    100  CB         9.9660  -22.6250   -2.8710 C.3   135  MET135      0.0413
    101  CG         9.7480  -23.7450   -3.8760 C.3   135  MET135      0.0598
    102  SD        10.4990  -25.3140   -3.3840 S.3   135  MET135     -0.1393
    103  CE        12.1930  -24.8250   -3.0960 C.3   135  MET135      0.0692
    104  N          4.4090  -20.2440  -11.7830 N.3   159  LYS159     -0.1245
    105  CA         3.1940  -19.4610  -11.9530 C.3   159  LYS159      0.1561
    106  C          3.3630  -18.1410  -11.2140 C.2   159  LYS159      0.2260
    107  O          2.8540  -17.9870  -10.0960 O.2   159  LYS159     -0.2867
    108  CB         1.9700  -20.2190  -11.4310 C.3   159  LYS159      0.0271
    109  CG         1.8650  -21.6490  -11.9400 C.3   159  LYS159      0.0035
    110  CD         0.4250  -22.1140  -12.0220 C.3   159  LYS159      0.0206
    111  CE        -0.0360  -22.7600  -10.7310 C.3   159  LYS159      0.1093
    112  NZ        -1.4530  -23.2090  -10.8380 N.3   159  LYS159     -0.1314
    113  N         -3.6570  -21.3190  -13.4960 N.3   179  ARG179     -0.1231
    114  CA        -4.6380  -22.3650  -13.7390 C.3   179  ARG179      0.1694
    115  C         -4.0850  -23.6880  -13.2290 C.2   179  ARG179      0.2592
    116  O         -2.8740  -23.9190  -13.2480 O.2   179  ARG179     -0.2718
    117  CB        -4.9940  -22.4820  -15.2320 C.3   179  ARG179      0.0321
    118  CG        -5.7250  -21.2700  -15.8110 C.3   179  ARG179      0.0489
    119  CD        -7.1090  -21.0880  -15.1940 C.3   179  ARG179      0.2205
    120  NE        -7.8830  -22.3280  -15.1950 N.pl3 179  ARG179     -0.0865
    121  CZ        -8.6310  -22.7460  -16.2110 C.cat 179  ARG179      0.5346
    122  NH1       -8.7150  -22.0240  -17.3210 N.pl3 179  ARG179      0.1354
    123  NH2       -9.2970  -23.8890  -16.1170 N.pl3 179  ARG179      0.1354
    124  N         -4.9820  -24.5530  -12.7650 N.am  180  TYR180     -0.1962
    125  CA        -4.5690  -25.8590  -12.2670 C.3   180  TYR180      0.1771
    126  C         -4.1800  -26.7560  -13.4350 C.2   180  TYR180      0.2619
    127  O         -4.9870  -26.9840  -14.3430 O.2   180  TYR180     -0.2715
    128  CB        -5.6880  -26.4980  -11.4490 C.3   180  TYR180      0.0574
    129  CG        -5.2110  -27.6300  -10.5670 C.ar  180  TYR180     -0.0198
    130  CD1       -5.0930  -28.9230  -11.0640 C.ar  180  TYR180     -0.0009
    131  CD2       -4.8680  -27.4050   -9.2410 C.ar  180  TYR180     -0.0009
    132  CE1       -4.6550  -29.9590  -10.2620 C.ar  180  TYR180      0.0417
    133  CE2       -4.4300  -28.4330   -8.4330 C.ar  180  TYR180      0.0417
    134  CZ        -4.3270  -29.7090   -8.9470 C.ar  180  TYR180      0.1957
    135  OH        -3.8860  -30.7370   -8.1420 O.3   180  TYR180     -0.2866
    136  N         -2.9510  -27.2720  -13.4080 N.am  181  VAL181     -0.1977
    137  CA        -2.4270  -28.1100  -14.4790 C.3   181  VAL181      0.1596
    138  C         -2.2680  -29.5380  -13.9770 C.2   181  VAL181      0.2287
    139  O         -2.0850  -29.7860  -12.7800 O.2   181  VAL181     -0.2864
    140  CB        -1.0840  -27.5830  -15.0320 C.3   181  VAL181      0.0276
    141  CG1       -1.2410  -26.1670  -15.5580 C.3   181  VAL181      0.0022
    142  CG2        0.0060  -27.6520  -13.9680 C.3   181  VAL181      0.0022
    143  N          2.2100  -33.6080  -12.3110 N.3   186  PHE186     -0.1227
    144  CA         1.0690  -32.9590  -11.6820 C.3   186  PHE186      0.1736
    145  C         -0.1600  -33.8500  -11.7870 C.2   186  PHE186      0.2595
    146  O         -0.2940  -34.6400  -12.7250 O.2   186  PHE186     -0.2718
    147  CB         0.8040  -31.5980  -12.3240 C.3   186  PHE186      0.0547
    148  CG         2.0080  -30.7040  -12.3390 C.ar  186  PHE186     -0.0202
    149  CD1        2.4170  -30.0570  -11.1850 C.ar  186  PHE186     -0.0042
    150  CD2        2.7450  -30.5290  -13.4990 C.ar  186  PHE186     -0.0042
    151  CE1        3.5300  -29.2410  -11.1900 C.ar  186  PHE186     -0.0003
    152  CE2        3.8580  -29.7150  -13.5090 C.ar  186  PHE186     -0.0003
    153  CZ         4.2510  -29.0690  -12.3530 C.ar  186  PHE186     -0.0000
    154  N         -1.0610  -33.7180  -10.8160 N.am  187  GLU187     -0.1979
    155  CA        -2.1030  -34.7190  -10.6450 C.3   187  GLU187      0.1602
    156  C         -3.2870  -34.1340   -9.8860 C.2   187  GLU187      0.2287
    157  O         -3.2190  -33.0390   -9.3210 O.2   187  GLU187     -0.2864
    158  CB        -1.5530  -35.9450   -9.9090 C.3   187  GLU187      0.0415
    159  CG        -0.6420  -35.6090   -8.7330 C.3   187  GLU187      0.1163
    160  CD        -1.4000  -35.0840   -7.5270 C.2   187  GLU187      0.3649
    161  OE1       -2.5100  -35.5850   -7.2550 O.co2 187  GLU187     -0.2457
    162  OE2       -0.8850  -34.1690   -6.8500 O.co2 187  GLU187     -0.2457
    163  N         -0.5480  -38.3690  -13.2410 N.3   193  ARG193     -0.1245
    164  CA         0.8320  -37.9750  -12.9740 C.3   193  ARG193      0.1563
    165  C          1.7990  -38.5440  -14.0070 C.2   193  ARG193      0.2260
    166  O          2.8390  -37.9330  -14.2840 O.2   193  ARG193     -0.2867
    167  CB         1.2400  -38.4130  -11.5640 C.3   193  ARG193      0.0307
    168  CG         2.3450  -37.5630  -10.9620 C.3   193  ARG193      0.0489
    169  CD         3.0150  -38.2380   -9.7710 C.3   193  ARG193      0.2205
    170  NE         2.1980  -38.2160   -8.5580 N.pl3 193  ARG193     -0.0865
    171  CZ         2.1420  -37.1940   -7.7070 C.cat 193  ARG193      0.5346
    172  NH1        2.8410  -36.0920   -7.9400 N.pl3 193  ARG193      0.1354
    173  NH2        1.3800  -37.2720   -6.6240 N.pl3 193  ARG193      0.1354
@<TRIPOS>BOND
     1   122   121    1
     2   121   123    1
     3   121   120    2
     4   118   117    1
     5   118   119    1
     6   141   140    1
     7   117   114    1
     8   120   119    1
     9   140   137    1
    10   140   142    1
    11   137   138    1
    12   137   136    1
    13   127   126    2
    14   166   165    2
    15   165   164    1
    16   138   139    2
    17   114   113    1
    18   114   115    1
    19   152   150   ar
    20   152   153   ar
    21   150   148   ar
    22   126   136   am
    23   126   125    1
    24   116   115    2
    25   163   164    1
    26   115   124   am
    27   164   167    1
    28   124   125    1
    29   146   145    2
    30   153   151   ar
    31   148   147    1
    32   148   149   ar
    33   147   144    1
    34   143   144    1
    35   125   128    1
    36   110   109    1
    37   110   111    1
    38   105   104    1
    39   105   108    1
    40   105   106    1
    41   109   108    1
    42   145   144    1
    43   145   154   am
    44   167   168    1
    45   128   129    1
    46   106   107    2
    47   151   149   ar
    48    41    40    2
    49   130   129   ar
    50   130   132   ar
    51   168   169    1
    52    53    51    1
    53   112   111    1
    54   154   155    1
    55   155   158    1
    56   155   156    1
    57   129   131   ar
    58   132   134   ar
    59    51    50    1
    60    40    39    1
    61    40    46   am
    62   158   159    1
    63   156   157    2
    64   169   170    1
    65    13    12    2
    66    50    47    1
    67    50    52    1
    68    39    42    1
    69    39    38    1
    70    32    31    2
    71    47    46    1
    72    47    48    1
    73    42    43    1
    74   131   133   ar
    75    57    56    2
    76   134   133   ar
    77   134   135    1
    78   159   160    1
    79    54    48   am
    80    54    55    1
    81   170   171    2
    82    31    38   am
    83    31    30    1
    84    12    11    1
    85    48    49    2
    86    43    45   ar
    87    43    44   ar
    88    65    64   ar
    89    56    55    1
    90    56    59   am
    91   172   171    1
    92    58    55    1
    93   171   173    1
    94    29    30    1
    95   160   161   ar
    96   160   162   ar
    97    11    10    1
    98    64    63    1
    99    64    66   ar
   100    30    33    1
   101    60    63    1
   102    60    59    1
   103    60    61    1
   104     4     3    2
   105    62    61    2
   106    33    34    1
   107    61    67   am
   108    34    35    1
   109    10     3   am
   110     3     2    1
   111    37    35   ar
   112    35    36   ar
   113    67    68    1
   114     2     5    1
   115     2     1    1
   116     5     6    1
   117    68    69    1
   118    68    71    1
   119     9     8    1
   120   101   102    1
   121   101   100    1
   122     8     7    1
   123     7     6    1
   124    74    69   am
   125    74    75    1
   126    69    70    2
   127   102   103    1
   128    75    76    1
   129    73    71    1
   130   100    97    1
   131    71    72    1
   132    76    77    2
   133    76    78   am
   134    97    96    1
   135    97    98    1
   136    96    91   am
   137    78    79    1
   138    93    95    1
   139    93    94    1
   140    93    90    1
   141    98    99    2
   142    89    90    1
   143    89    80   am
   144    91    90    1
   145    91    92    2
   146    88    86    1
   147    79    80    1
   148    79    82    1
   149    80    81    2
   150    85    86    2
   151    85    84    1
   152    86    87    1
   153    82    83    1
   154    21    19    1
   155    17    16    2
   156    83    84    1
   157    25    24    2
   158    18    19    1
   159    18    15    1
   160    18    20    1
   161    14    15    1
   162    16    15    1
   163    16    22   am
   164    24    23    1
   165    23    22    1
   166    23    26    1
   167    26    27    1
   168    26    28    1
