@<TRIPOS>MOLECULE
tmp/6arbB00.pdb
 147 140 0 0 0
SMALL
GASTEIGER

@<TRIPOS>ATOM
      1  N         25.7940    0.7300  -25.5150 N.3    10  LEU10      -0.1231
      2  CA        25.6680   -0.5470  -26.2270 C.3    10  LEU10       0.1693
      3  C         25.5330   -1.7160  -25.2720 C.2    10  LEU10       0.2592
      4  O         26.4050   -1.9280  -24.4190 O.2    10  LEU10      -0.2718
      5  CB        26.8720   -0.7660  -27.1420 C.3    10  LEU10       0.0284
      6  CG        27.0620   -2.0670  -27.9360 C.3    10  LEU10       0.0019
      7  CD1       25.9010   -2.3200  -28.9260 C.3    10  LEU10       0.0001
      8  CD2       28.3830   -1.9600  -28.6900 C.3    10  LEU10       0.0001
      9  N         24.4280   -2.4560  -25.4030 N.am   11  PHE11      -0.1962
     10  CA        24.2610   -3.7410  -24.7010 C.3    11  PHE11       0.1771
     11  C         25.2420   -4.8010  -25.2220 C.2    11  PHE11       0.2620
     12  O         25.3910   -4.9710  -26.4230 O.2    11  PHE11      -0.2715
     13  CB        22.8510   -4.3030  -24.9160 C.3    11  PHE11       0.0574
     14  CG        21.8390   -3.8700  -23.8930 C.ar   11  PHE11      -0.0200
     15  CD1       21.9080   -4.3320  -22.5880 C.ar   11  PHE11      -0.0042
     16  CD2       20.7820   -3.0380  -24.2500 C.ar   11  PHE11      -0.0042
     17  CE1       20.9580   -3.9470  -21.6390 C.ar   11  PHE11      -0.0003
     18  CE2       19.8280   -2.6480  -23.3030 C.ar   11  PHE11      -0.0003
     19  CZ        19.9270   -3.1100  -21.9930 C.ar   11  PHE11      -0.0000
     20  N         25.8740   -5.5520  -24.3140 N.am   12  CYS12      -0.1954
     21  CA        26.6010   -6.7650  -24.6960 C.3    12  CYS12       0.1828
     22  C         26.3570   -7.8420  -23.6330 C.2    12  CYS12       0.2467
     23  O         26.5750   -7.5960  -22.4450 O.2    12  CYS12      -0.2730
     24  CB        28.1000   -6.4840  -24.8350 C.3    12  CYS12       0.0996
     25  SG        29.1100   -7.9070  -25.4040 S.3    12  CYS12      -0.0797
     26  N         25.8790   -9.0250  -24.0550 N.am   13  PRO13      -0.2726
     27  CA        25.6300  -10.1400  -23.1290 C.3    13  PRO13       0.1402
     28  C         26.8830  -10.4810  -22.3200 C.2    13  PRO13       0.2269
     29  O         27.9910  -10.5270  -22.8530 O.2    13  PRO13      -0.2865
     30  CB        25.2700  -11.2990  -24.0620 C.3    13  PRO13       0.0296
     31  CG        24.7150  -10.6470  -25.2730 C.3    13  PRO13       0.0237
     32  CD        25.4430   -9.3400  -25.4290 C.3    13  PRO13       0.0939
     33  N         29.5050  -13.3430  -23.1820 N.3    16  ARG16      -0.1245
     34  CA        30.3250  -13.2020  -24.3870 C.3    16  ARG16       0.1563
     35  C         31.5330  -12.2860  -24.1610 C.2    16  ARG16       0.2260
     36  O         31.6610  -11.2490  -24.8120 O.2    16  ARG16      -0.2867
     37  CB        29.4770  -12.6790  -25.5430 C.3    16  ARG16       0.0307
     38  CG        28.2620  -13.5260  -25.8620 C.3    16  ARG16       0.0489
     39  CD        28.2870  -13.9780  -27.3110 C.3    16  ARG16       0.2205
     40  NE        26.9430  -14.1690  -27.8590 N.pl3  16  ARG16      -0.0865
     41  CZ        26.6960  -14.6010  -29.0920 C.cat  16  ARG16       0.5346
     42  NH1       27.7040  -14.8940  -29.9060 N.pl3  16  ARG16       0.1354
     43  NH2       25.4450  -14.7450  -29.5100 N.pl3  16  ARG16       0.1354
     44  N         33.7920  -10.2900  -26.7250 N.3    19  ARG19      -0.1245
     45  CA        33.2760   -9.1020  -27.3960 C.3    19  ARG19       0.1563
     46  C         33.3030   -7.8480  -26.5220 C.2    19  ARG19       0.2260
     47  O         32.9750   -6.7490  -26.9860 O.2    19  ARG19      -0.2867
     48  CB        31.8640   -9.3740  -27.9260 C.3    19  ARG19       0.0307
     49  CG        31.8550  -10.2690  -29.1660 C.3    19  ARG19       0.0489
     50  CD        30.8560  -11.3980  -29.0330 C.3    19  ARG19       0.2205
     51  NE        29.5430  -11.0240  -29.5340 N.pl3  19  ARG19      -0.0865
     52  CZ        28.9450  -11.5960  -30.5750 C.cat  19  ARG19       0.5346
     53  NH1       29.5390  -12.5840  -31.2320 N.pl3  19  ARG19       0.1354
     54  NH2       27.7440  -11.1830  -30.9570 N.pl3  19  ARG19       0.1354
     55  N         35.6780   -5.1100  -27.8650 N.3    22  LYS22      -0.1231
     56  CA        35.0770   -4.5700  -29.0840 C.3    22  LYS22       0.1693
     57  C         33.9520   -3.6000  -28.7420 C.2    22  LYS22       0.2591
     58  O         33.8870   -2.4890  -29.2650 O.2    22  LYS22      -0.2718
     59  CB        34.5430   -5.7110  -29.9580 C.3    22  LYS22       0.0285
     60  CG        34.0570   -5.3060  -31.3440 C.3    22  LYS22       0.0035
     61  CD        33.6220   -6.5440  -32.1360 C.3    22  LYS22       0.0206
     62  CE        33.4210   -6.2460  -33.6180 C.3    22  LYS22       0.1093
     63  NZ        32.1510   -5.5080  -33.8820 N.3    22  LYS22      -0.1314
     64  N         33.0660   -4.0280  -27.8510 N.am   23  ALA23      -0.1980
     65  CA        31.9640   -3.1870  -27.4230 C.3    23  ALA23       0.1597
     66  C         32.4530   -1.8780  -26.7760 C.2    23  ALA23       0.2287
     67  O         31.9340   -0.8010  -27.0710 O.2    23  ALA23      -0.2864
     68  CB        31.0660   -3.9540  -26.4770 C.3    23  ALA23       0.0319
     69  N         25.2440   -7.3000  -19.8510 N.3    33  ASP33      -0.1239
     70  CA        23.9110   -7.7900  -19.4970 C.3    33  ASP33       0.1674
     71  C         23.9260   -9.1640  -18.8320 C.2    33  ASP33       0.2266
     72  O         24.4060  -10.1330  -19.4150 O.2    33  ASP33      -0.2867
     73  CB        23.0310   -7.8420  -20.7510 C.3    33  ASP33       0.1410
     74  CG        21.5740   -8.1540  -20.4360 C.2    33  ASP33       0.3668
     75  OD1       21.1300   -7.8730  -19.3110 O.co2  33  ASP33      -0.2456
     76  OD2       20.8720   -8.6760  -21.3230 O.co2  33  ASP33      -0.2456
     77  N         18.0520  -10.5620  -19.6240 N.3    36  ASP36      -0.1225
     78  CA        17.4350  -11.2720  -20.7560 C.3    36  ASP36       0.1805
     79  C         18.3400  -11.6110  -21.9530 C.2    36  ASP36       0.2598
     80  O         18.0100  -12.4900  -22.7460 O.2    36  ASP36      -0.2718
     81  CB        16.1490  -10.5690  -21.2100 C.3    36  ASP36       0.1424
     82  CG        15.0250  -10.7020  -20.1980 C.2    36  ASP36       0.3668
     83  OD1       15.1840  -11.4470  -19.2050 O.co2  36  ASP36      -0.2456
     84  OD2       13.9670  -10.0800  -20.4020 O.co2  36  ASP36      -0.2456
     85  N         19.4740  -10.9260  -22.0780 N.am   37  GLY37      -0.1957
     86  CA        20.4590  -11.2540  -23.1000 C.3    37  GLY37       0.1869
     87  C         21.1100  -12.6190  -22.8770 C.2    37  GLY37       0.2309
     88  O         21.6660  -13.2210  -23.8000 O.2    37  GLY37      -0.2863
     89  N         23.6080   -4.5090  -16.3240 N.3    63  ARG63      -0.1245
     90  CA        22.1980   -4.8260  -16.1130 C.3    63  ARG63       0.1563
     91  C         22.0290   -6.1290  -15.3220 C.2    63  ARG63       0.2260
     92  O         22.3570   -7.2130  -15.8040 O.2    63  ARG63      -0.2867
     93  CB        21.4090   -4.8920  -17.4230 C.3    63  ARG63       0.0307
     94  CG        19.9240   -5.1720  -17.1770 C.3    63  ARG63       0.0489
     95  CD        19.0500   -4.9100  -18.4060 C.3    63  ARG63       0.2205
     96  NE        19.0560   -6.0420  -19.3300 N.pl3  63  ARG63      -0.0865
     97  CZ        18.1570   -6.2240  -20.2940 C.cat  63  ARG63       0.5346
     98  NH1       17.1670   -5.3580  -20.4590 N.pl3  63  ARG63       0.1354
     99  NH2       18.2360   -7.2860  -21.0790 N.pl3  63  ARG63       0.1354
    100  N         15.7240    0.4640  -27.1960 N.3   180  VAL180     -0.1245
    101  CA        16.5690   -0.0890  -28.2430 C.3   180  VAL180      0.1561
    102  C         15.8210   -0.2050  -29.5690 C.2   180  VAL180      0.2260
    103  O         14.5900   -0.2650  -29.5910 O.2   180  VAL180     -0.2867
    104  CB        17.1050   -1.4780  -27.8690 C.3   180  VAL180      0.0252
    105  CG1       18.0040   -1.3860  -26.6280 C.3   180  VAL180      0.0019
    106  CG2       15.9470   -2.4560  -27.6680 C.3   180  VAL180      0.0019
    107  N         15.3960   -2.7810  -32.3640 N.3   182  LEU182     -0.1245
    108  CA        15.6230   -4.2190  -32.5760 C.3   182  LEU182      0.1561
    109  C         15.9010   -4.6510  -34.0170 C.2   182  LEU182      0.2260
    110  O         16.4690   -5.7190  -34.2520 O.2   182  LEU182     -0.2867
    111  CB        14.4510   -5.0360  -32.0180 C.3   182  LEU182      0.0270
    112  CG        14.2400   -4.9690  -30.5050 C.3   182  LEU182      0.0019
    113  CD1       13.2520   -6.0310  -30.0650 C.3   182  LEU182      0.0001
    114  CD2       15.5570   -5.1420  -29.7820 C.3   182  LEU182      0.0001
    115  N         18.1000   -4.5520  -36.7250 N.3   184  ILE184     -0.1245
    116  CA        19.5210   -4.2000  -36.7960 C.3   184  ILE184      0.1561
    117  C         19.9270   -3.4400  -38.0610 C.2   184  ILE184      0.2260
    118  O         20.6700   -2.4690  -37.9970 O.2   184  ILE184     -0.2867
    119  CB        20.4060   -5.4520  -36.6210 C.3   184  ILE184      0.0252
    120  CG1       20.2410   -6.0080  -35.1980 C.3   184  ILE184      0.0019
    121  CG2       21.8560   -5.1210  -36.9120 C.3   184  ILE184      0.0019
    122  CD1       20.5380   -7.4900  -35.0720 C.3   184  ILE184      0.0001
    123  N         21.8310   -2.1730  -29.6740 N.3   208  ILE208     -0.1231
    124  CA        22.0580   -3.5970  -29.4660 C.3   208  ILE208      0.1692
    125  C         23.1070   -4.1980  -30.4270 C.2   208  ILE208      0.2592
    126  O         23.4440   -5.3750  -30.3270 O.2   208  ILE208     -0.2718
    127  CB        20.7250   -4.4030  -29.4160 C.3   208  ILE208      0.0266
    128  CG1       19.7880   -4.0390  -30.5770 C.3   208  ILE208      0.0019
    129  CG2       19.9830   -4.1080  -28.0840 C.3   208  ILE208      0.0020
    130  CD1       20.3200   -4.3110  -31.9640 C.3   208  ILE208      0.0001
    131  N         23.6250   -3.3760  -31.3420 N.am  209  HIS209     -0.1962
    132  CA        24.6930   -3.7850  -32.2550 C.3   209  HIS209      0.1772
    133  C         25.6830   -2.6260  -32.4580 C.2   209  HIS209      0.2462
    134  O         25.2770   -1.4620  -32.5280 O.2   209  HIS209     -0.2730
    135  CB        24.0890   -4.2250  -33.5980 C.3   209  HIS209      0.0785
    136  CG        25.0470   -4.9360  -34.5080 C.ar  209  HIS209      0.0821
    137  ND1       25.9200   -4.2670  -35.3390 N.ar  209  HIS209     -0.2267
    138  CD2       25.2400   -6.2550  -34.7460 C.ar  209  HIS209      0.1154
    139  CE1       26.6250   -5.1410  -36.0330 C.ar  209  HIS209      0.1986
    140  NE2       26.2280   -6.3550  -35.6950 N.ar  209  HIS209     -0.2212
    141  N         26.9910   -2.9380  -32.5340 N.am  210  PRO210     -0.2727
    142  CA        27.9950   -1.8740  -32.6610 C.3   210  PRO210      0.1402
    143  C         27.8020   -1.0340  -33.9150 C.2   210  PRO210      0.2269
    144  O         28.1710    0.1430  -33.9150 O.2   210  PRO210     -0.2865
    145  CB        29.3370   -2.6320  -32.7040 C.3   210  PRO210      0.0296
    146  CG        28.9910   -4.0700  -32.8420 C.3   210  PRO210      0.0237
    147  CD        27.5990   -4.2610  -32.3350 C.3   210  PRO210      0.0939
@<TRIPOS>BOND
     1   117   118    2
     2   117   116    1
     3   121   119    1
     4   116   115    1
     5   116   119    1
     6   119   120    1
     7   139   140   ar
     8   139   137   ar
     9   140   138   ar
    10   137   136   ar
    11   120   122    1
    12   138   136   ar
    13   136   135    1
    14   110   109    2
    15   109   108    1
    16   143   144    2
    17   143   142    1
    18    63    62    1
    19    62    61    1
    20   135   132    1
    21   146   145    1
    22   146   147    1
    23   145   142    1
    24   142   141    1
    25   108   107    1
    26   108   111    1
    27   141   133   am
    28   141   147    1
    29   134   133    2
    30   133   132    1
    31   132   131    1
    32    61    60    1
    33   111   112    1
    34   130   128    1
    35    60    59    1
    36   131   125   am
    37    53    52    1
    38    54    52    1
    39   128   127    1
    40    52    51    2
    41   112   113    1
    42   112   114    1
    43   125   126    2
    44   125   124    1
    45    59    56    1
    46    42    41    1
    47   123   124    1
    48   103   102    2
    49   102   101    1
    50    51    50    1
    51    43    41    1
    52   124   127    1
    53   127   129    1
    54    58    57    2
    55    49    50    1
    56    49    48    1
    57    41    40    2
    58    56    57    1
    59    56    55    1
    60     7     6    1
    61    57    64   am
    62     8     6    1
    63   101   104    1
    64   101   100    1
    65     6     5    1
    66    48    45    1
    67   104   106    1
    68   104   105    1
    69    40    39    1
    70    64    65    1
    71    65    66    1
    72    65    68    1
    73    45    44    1
    74    45    46    1
    75    39    38    1
    76     5     2    1
    77    67    66    2
    78    47    46    2
    79    12    11    2
    80     2     1    1
    81     2     3    1
    82    38    37    1
    83    37    34    1
    84    32    31    1
    85    32    26    1
    86    25    24    1
    87     9     3   am
    88     9    10    1
    89    31    30    1
    90     3     4    2
    91    11    10    1
    92    11    20   am
    93    13    10    1
    94    13    14    1
    95    24    21    1
    96    36    35    2
    97    21    20    1
    98    21    22    1
    99    34    35    1
   100    34    33    1
   101    16    14   ar
   102    16    18   ar
   103    30    27    1
   104    26    22   am
   105    26    27    1
   106    14    15   ar
   107    88    87    2
   108    22    23    2
   109    18    19   ar
   110    27    28    1
   111    86    87    1
   112    86    85    1
   113    29    28    2
   114    80    79    2
   115    15    17   ar
   116    85    79   am
   117    19    17   ar
   118    79    78    1
   119    76    74   ar
   120    81    78    1
   121    81    82    1
   122    99    97    1
   123    78    77    1
   124    73    74    1
   125    73    70    1
   126    98    97    1
   127    74    75   ar
   128    84    82   ar
   129    97    96    2
   130    82    83   ar
   131    69    70    1
   132    70    71    1
   133    72    71    2
   134    96    95    1
   135    95    94    1
   136    93    94    1
   137    93    90    1
   138    89    90    1
   139    90    91    1
   140    92    91    2
