@<TRIPOS>MOLECULE
tmp/6ariA01.pdb
 146 137 0 0 0
SMALL
GASTEIGER

@<TRIPOS>ATOM
      1  N        -13.7110   12.2010  -44.5760 N.3     1  MET1       -0.1245
      2  CA       -14.5920   11.0500  -44.4120 C.3     1  MET1        0.1570
      3  C        -14.6930   10.6600  -42.9440 C.2     1  MET1        0.2261
      4  O        -13.7800   10.0500  -42.3910 O.2     1  MET1       -0.2867
      5  CB       -14.0920    9.8620  -45.2390 C.3     1  MET1        0.0387
      6  CG       -15.0190    8.6890  -45.1730 C.3     1  MET1        0.0595
      7  SD       -16.4250    9.0400  -46.2320 S.3     1  MET1       -0.1393
      8  CE       -15.8090    8.2830  -47.7210 C.3     1  MET1        0.0692
      9  N        -17.5420    5.7400  -39.7590 N.3     4  ILE4       -0.1245
     10  CA       -18.9350    5.3020  -39.7600 C.3     4  ILE4        0.1561
     11  C        -19.0270    3.9190  -39.1240 C.2     4  ILE4        0.2260
     12  O        -18.4170    2.9580  -39.6130 O.2     4  ILE4       -0.2867
     13  CB       -19.5260    5.2740  -41.1820 C.3     4  ILE4        0.0252
     14  CG1      -19.5330    6.6800  -41.7950 C.3     4  ILE4        0.0019
     15  CG2      -20.9140    4.6640  -41.1540 C.3     4  ILE4        0.0019
     16  CD1      -19.8930    6.7010  -43.2810 C.3     4  ILE4        0.0001
     17  N        -31.0520    5.4020  -41.2930 N.3    32  ALA32      -0.1231
     18  CA       -31.3110    5.1830  -42.7120 C.3    32  ALA32       0.1694
     19  C        -32.7990    5.0800  -43.0100 C.2    32  ALA32       0.2592
     20  O        -33.2500    5.5330  -44.0660 O.2    32  ALA32      -0.2718
     21  CB       -30.5900    3.9230  -43.1910 C.3    32  ALA32       0.0304
     22  N        -33.5770    4.4930  -42.1040 N.am   33  ASP33      -0.1974
     23  CA       -35.0090    4.3540  -42.3540 C.3    33  ASP33       0.1709
     24  C        -35.7160    5.7010  -42.3080 C.2    33  ASP33       0.2293
     25  O        -36.6030    5.9740  -43.1250 O.2    33  ASP33      -0.2864
     26  CB       -35.6300    3.3920  -41.3430 C.3    33  ASP33       0.1436
     27  CG       -36.1670    2.1410  -41.9970 C.2    33  ASP33       0.3671
     28  OD1      -35.3870    1.1800  -42.1840 O.co2  33  ASP33      -0.2456
     29  OD2      -37.3670    2.1260  -42.3450 O.co2  33  ASP33      -0.2456
     30  N        -34.8220    7.4830  -45.5770 N.3    36  ALA36      -0.1245
     31  CA       -35.5560    6.9540  -46.7250 C.3    36  ALA36       0.1562
     32  C        -37.0160    7.3940  -46.6920 C.2    36  ALA36       0.2260
     33  O        -37.5830    7.7540  -47.7280 O.2    36  ALA36      -0.2867
     34  CB       -35.4510    5.4250  -46.7690 C.3    36  ALA36       0.0290
     35  N        -31.7110    6.5140  -54.9090 N.3    89  HIS89      -0.1241
     36  CA       -30.3680    6.2800  -54.3730 C.3    89  HIS89       0.1621
     37  C        -29.5470    7.5570  -54.2660 C.2    89  HIS89       0.2264
     38  O        -28.9490    7.7960  -53.1980 O.2    89  HIS89      -0.2867
     39  CB       -29.6440    5.2190  -55.2120 C.3    89  HIS89       0.0745
     40  CG       -28.1880    5.0880  -54.8860 C.ar   89  HIS89       0.0817
     41  ND1      -27.7040    4.1430  -54.0070 N.ar   89  HIS89      -0.2268
     42  CD2      -27.1120    5.7960  -55.3060 C.ar   89  HIS89       0.1154
     43  CE1      -26.3930    4.2690  -53.9050 C.ar   89  HIS89       0.1986
     44  NE2      -26.0090    5.2660  -54.6810 N.ar   89  HIS89      -0.2212
     45  N        -31.0970    9.7040  -51.3670 N.3    92  ILE92      -0.1231
     46  CA       -30.8400    9.1540  -50.0400 C.3    92  ILE92       0.1692
     47  C        -29.3680    9.2940  -49.6850 C.2    92  ILE92       0.2591
     48  O        -29.0140    9.7000  -48.5680 O.2    92  ILE92      -0.2718
     49  CB       -31.3120    7.6910  -49.9760 C.3    92  ILE92       0.0266
     50  CG1      -32.8490    7.6550  -50.0250 C.3    92  ILE92       0.0019
     51  CG2      -30.7730    7.0010  -48.7170 C.3    92  ILE92       0.0020
     52  CD1      -33.4560    6.2690  -50.1070 C.3    92  ILE92       0.0001
     53  N        -28.4890    8.9620  -50.6280 N.am   93  GLN93      -0.1979
     54  CA       -27.0620    9.0870  -50.3740 C.3    93  GLN93       0.1601
     55  C        -26.6820   10.5290  -50.0620 C.2    93  GLN93       0.2287
     56  O        -25.8590   10.7840  -49.1740 O.2    93  GLN93      -0.2864
     57  CB       -26.2630    8.5730  -51.5720 C.3    93  GLN93       0.0394
     58  CG       -24.7640    8.7640  -51.3610 C.3    93  GLN93       0.0908
     59  CD       -23.9270    8.0080  -52.3590 C.2    93  GLN93       0.2608
     60  OE1      -24.3430    6.9720  -52.8800 O.2    93  GLN93      -0.2717
     61  NE2      -22.7340    8.5230  -52.6360 N.am   93  GLN93      -0.0878
     62  N        -27.8900   11.4000  -46.5390 N.3    96  THR96      -0.1203
     63  CA       -27.0590   10.6880  -45.5720 C.3    96  THR96       0.1994
     64  C        -25.6970   11.3490  -45.4300 C.2    96  THR96       0.2617
     65  O        -25.2230   11.5910  -44.3130 O.2    96  THR96      -0.2717
     66  CB       -26.8920    9.2250  -45.9910 C.3    96  THR96       0.1784
     67  OG1      -28.1810    8.6310  -46.1170 O.3    96  THR96      -0.2211
     68  CG2      -26.0860    8.4510  -44.9350 C.3    96  THR96       0.0376
     69  N        -25.0480   11.6310  -46.5600 N.am   97  GLN97      -0.1979
     70  CA       -23.7340   12.2690  -46.5490 C.3    97  GLN97       0.1601
     71  C        -23.7860   13.6570  -45.9260 C.2    97  GLN97       0.2287
     72  O        -22.8480   14.0710  -45.2320 O.2    97  GLN97      -0.2864
     73  CB       -23.1860   12.3600  -47.9780 C.3    97  GLN97       0.0394
     74  CG       -22.2890   11.2070  -48.3880 C.3    97  GLN97       0.0908
     75  CD       -20.9390   11.2200  -47.6740 C.2    97  GLN97       0.2608
     76  OE1      -20.2690   10.1930  -47.5750 O.2    97  GLN97      -0.2717
     77  NE2      -20.5330   12.3890  -47.1830 N.am   97  GLN97      -0.0878
     78  N        -23.8380   13.1960  -42.2130 N.3   100  ILE100     -0.1245
     79  CA       -22.5200   12.7970  -41.7220 C.3   100  ILE100      0.1561
     80  C        -21.5970   14.0040  -41.6410 C.2   100  ILE100      0.2260
     81  O        -20.8440   14.1710  -40.6740 O.2   100  ILE100     -0.2867
     82  CB       -21.9180   11.7030  -42.6180 C.3   100  ILE100      0.0252
     83  CG1      -22.7420   10.4250  -42.5330 C.3   100  ILE100      0.0019
     84  CG2      -20.4800   11.4440  -42.2210 C.3   100  ILE100      0.0019
     85  CD1      -22.3570    9.4070  -43.5540 C.3   100  ILE100      0.0001
     86  N        -24.5850    4.8360  -37.8650 N.3   110  TRP110     -0.1241
     87  CA       -25.4870    4.7700  -39.0120 C.3   110  TRP110      0.1605
     88  C        -26.3880    3.5570  -38.8250 C.2   110  TRP110      0.2264
     89  O        -25.9250    2.4180  -38.9240 O.2   110  TRP110     -0.2867
     90  CB       -24.6660    4.6660  -40.2900 C.3   110  TRP110      0.0550
     91  CG       -25.4240    4.6710  -41.5670 C.ar  110  TRP110      0.0003
     92  CD1      -26.5430    5.4000  -41.8830 C.ar  110  TRP110      0.0946
     93  CD2      -25.0940    3.9120  -42.7270 C.ar  110  TRP110      0.0152
     94  NE1      -26.9230    5.1320  -43.1900 N.ar  110  TRP110     -0.2442
     95  CE2      -26.0510    4.2200  -43.7240 C.ar  110  TRP110      0.0810
     96  CE3      -24.0900    2.9860  -43.0180 C.ar  110  TRP110      0.0012
     97  CZ2      -26.0270    3.6310  -44.9920 C.ar  110  TRP110      0.0191
     98  CZ3      -24.0640    2.4070  -44.2820 C.ar  110  TRP110      0.0001
     99  CH2      -25.0280    2.7330  -45.2510 C.ar  110  TRP110      0.0015
    100  N        -28.9720    0.9750  -39.8200 N.3   112  VAL112     -0.1231
    101  CA       -29.4240    0.4650  -41.1160 C.3   112  VAL112      0.1678
    102  C        -30.0730   -0.9000  -40.9270 C.2   112  VAL112      0.2434
    103  O        -29.3670   -1.9160  -40.9480 O.2   112  VAL112     -0.2733
    104  CB       -28.2650    0.3610  -42.1220 C.3   112  VAL112      0.0265
    105  CG1      -28.7960    0.0260  -43.5210 C.3   112  VAL112      0.0020
    106  CG2      -27.4520    1.6300  -42.1440 C.3   112  VAL112      0.0020
    107  N        -31.3960   -0.9730  -40.7550 N.am  113  PRO113     -0.2718
    108  CA       -32.0440   -2.2820  -40.5500 C.3   113  PRO113      0.1535
    109  C        -31.7410   -3.3040  -41.6370 C.2   113  PRO113      0.2598
    110  O        -31.5860   -4.4910  -41.3300 O.2   113  PRO113     -0.2715
    111  CB       -33.5370   -1.9170  -40.5100 C.3   113  PRO113      0.0310
    112  CG       -33.5460   -0.5040  -39.9800 C.3   113  PRO113      0.0237
    113  CD       -32.3510    0.1450  -40.6250 C.3   113  PRO113      0.0939
    114  N        -31.6410   -2.8800  -42.8970 N.am  114  LEU114     -0.1978
    115  CA       -31.4390   -3.8010  -44.0130 C.3   114  LEU114      0.1596
    116  C        -30.0010   -3.7840  -44.5210 C.2   114  LEU114      0.2287
    117  O        -29.7480   -3.9360  -45.7250 O.2   114  LEU114     -0.2864
    118  CB       -32.4150   -3.4770  -45.1400 C.3   114  LEU114      0.0297
    119  CG       -33.8980   -3.5780  -44.7810 C.3   114  LEU114      0.0022
    120  CD1      -34.7610   -3.1750  -45.9720 C.3   114  LEU114      0.0001
    121  CD2      -34.2480   -4.9810  -44.3000 C.3   114  LEU114      0.0001
    122  N        -29.3330   -5.5800  -48.1640 N.3   118  ASN118     -0.1240
    123  CA       -29.0090   -4.7120  -49.2900 C.3   118  ASN118      0.1653
    124  C        -27.5100   -4.5680  -49.5260 C.2   118  ASN118      0.2266
    125  O        -27.1030   -3.6780  -50.2790 O.2   118  ASN118     -0.2867
    126  CB       -29.6230   -3.3230  -49.0910 C.3   118  ASN118      0.1155
    127  CG       -31.1370   -3.3370  -49.1390 C.2   118  ASN118      0.2627
    128  OD1      -31.7470   -4.3190  -49.5650 O.2   118  ASN118     -0.2716
    129  ND2      -31.7530   -2.2370  -48.7110 N.am  118  ASN118     -0.0877
    130  N        -25.0480   -3.3390  -47.8890 N.3   120  LEU120     -0.1245
    131  CA       -24.5960   -1.9790  -47.6360 C.3   120  LEU120      0.1561
    132  C        -23.4550   -1.9110  -46.6320 C.2   120  LEU120      0.2260
    133  O        -22.9420   -0.8170  -46.3700 O.2   120  LEU120     -0.2867
    134  CB       -25.7660   -1.1210  -47.1450 C.3   120  LEU120      0.0270
    135  CG       -26.8390   -0.7800  -48.1780 C.3   120  LEU120      0.0019
    136  CD1      -27.9700   -0.0610  -47.4810 C.3   120  LEU120      0.0001
    137  CD2      -26.3040    0.0950  -49.2820 C.3   120  LEU120      0.0001
    138  N        -20.1670    0.0720  -46.9860 N.3   123  LYS123     -0.1245
    139  CA       -20.1750    1.5210  -46.8500 C.3   123  LYS123      0.1561
    140  C        -19.7670    1.9870  -45.4610 C.2   123  LYS123      0.2260
    141  O        -19.5770    3.1890  -45.2540 O.2   123  LYS123     -0.2867
    142  CB       -21.5660    2.0770  -47.1770 C.3   123  LYS123      0.0271
    143  CG       -22.0440    1.7920  -48.5840 C.3   123  LYS123      0.0035
    144  CD       -21.0990    2.3930  -49.6050 C.3   123  LYS123      0.0206
    145  CE       -21.7480    2.4570  -50.9760 C.3   123  LYS123      0.1093
    146  NZ       -22.3150    1.1270  -51.3300 N.3   123  LYS123     -0.1314
@<TRIPOS>BOND
     1    42    40   ar
     2    42    44   ar
     3    39    40    1
     4    39    36    1
     5    35    36    1
     6    40    41   ar
     7    44    43   ar
     8    36    37    1
     9    37    38    2
    10    41    43   ar
    11    60    59    2
    12    61    59   am
    13    59    58    1
    14    57    58    1
    15    57    54    1
    16    45    46    1
    17   146   145    1
    18   145   144    1
    19    53    54    1
    20    53    47   am
    21    54    55    1
    22   125   124    2
    23    52    50    1
    24    55    56    2
    25    46    49    1
    26    46    47    1
    27    50    49    1
    28    49    51    1
    29    47    48    2
    30   144   143    1
    31   128   127    2
    32   124   123    1
    33   123   126    1
    34   123   122    1
    35   137   135    1
    36   127   126    1
    37   127   129   am
    38   143   142    1
    39    74    73    1
    40    74    75    1
    41   135   136    1
    42   135   134    1
    43    73    70    1
    44   130   131    1
    45    33    32    2
    46     8     7    1
    47    75    76    2
    48    75    77   am
    49   131   134    1
    50   131   132    1
    51   142   139    1
    52   138   139    1
    53   139   140    1
    54    34    31    1
    55    31    32    1
    56    31    30    1
    57   132   133    2
    58    69    70    1
    59    69    64   am
    60    70    71    1
    61    62    63    1
    62     7     6    1
    63    67    66    1
    64    66    63    1
    65    66    68    1
    66   120   119    1
    67    71    72    2
    68   117   116    2
    69    63    64    1
    70   140   141    2
    71    64    65    2
    72    99    97   ar
    73    99    98   ar
    74     5     6    1
    75     5     2    1
    76   118   119    1
    77   118   115    1
    78    97    95   ar
    79   119   121    1
    80     1     2    1
    81   116   115    1
    82     2     3    1
    83    98    96   ar
    84    20    19    2
    85   115   114    1
    86    95    94   ar
    87    95    93   ar
    88    85    83    1
    89   105   104    1
    90    16    14    1
    91    21    18    1
    92    94    92   ar
    93    25    24    2
    94    96    93   ar
    95    19    18    1
    96    19    22   am
    97     3     4    2
    98   114   109   am
    99    93    91   ar
   100    18    17    1
   101    82    83    1
   102    82    84    1
   103    82    79    1
   104    23    24    1
   105    23    22    1
   106    23    26    1
   107    29    27   ar
   108    78    79    1
   109    28    27   ar
   110   106   104    1
   111   104   101    1
   112    27    26    1
   113    92    91   ar
   114    14    13    1
   115    79    80    1
   116    80    81    2
   117   109   110    2
   118   109   108    1
   119    91    90    1
   120    13    15    1
   121    13    10    1
   122   101   102    1
   123   101   100    1
   124   103   102    2
   125   102   107   am
   126   107   113    1
   127   107   108    1
   128   113   112    1
   129   108   111    1
   130   111   112    1
   131    90    87    1
   132    10     9    1
   133    10    11    1
   134    12    11    2
   135    87    88    1
   136    87    86    1
   137    89    88    2
