@<TRIPOS>MOLECULE
tmp/6arjD01.pdb
 200 196 0 0 0
SMALL
GASTEIGER

@<TRIPOS>ATOM
      1  N         -2.3580   34.7990   82.9130 N.3    15  TYR15      -0.1241
      2  CA        -3.6670   34.7860   82.2490 C.3    15  TYR15       0.1605
      3  C         -3.6580   35.5630   80.9230 C.2    15  TYR15       0.2264
      4  O         -4.0800   35.0550   79.8750 O.2    15  TYR15      -0.2867
      5  CB        -4.7250   35.3430   83.2080 C.3    15  TYR15       0.0534
      6  CG        -6.1420   35.4090   82.6730 C.ar   15  TYR15      -0.0201
      7  CD1       -6.9750   34.3020   82.7240 C.ar   15  TYR15      -0.0009
      8  CD2       -6.6650   36.6000   82.1720 C.ar   15  TYR15      -0.0009
      9  CE1       -8.2800   34.3680   82.2680 C.ar   15  TYR15       0.0417
     10  CE2       -7.9690   36.6770   81.7150 C.ar   15  TYR15       0.0417
     11  CZ        -8.7740   35.5530   81.7620 C.ar   15  TYR15       0.1957
     12  OH       -10.0820   35.6050   81.3070 O.3    15  TYR15      -0.2866
     13  N         -1.4840   34.0830   78.1630 N.3    18  PHE18      -0.1227
     14  CA        -2.2480   33.0040   77.5070 C.3    18  PHE18       0.1736
     15  C         -3.0710   33.5040   76.3130 C.2    18  PHE18       0.2595
     16  O         -3.0030   32.9400   75.2160 O.2    18  PHE18      -0.2718
     17  CB        -3.1470   32.3190   78.5510 C.3    18  PHE18       0.0547
     18  CG        -3.9690   31.1600   78.0250 C.ar   18  PHE18      -0.0202
     19  CD1       -3.3970   29.9000   77.8390 C.ar   18  PHE18      -0.0042
     20  CD2       -5.3320   31.3210   77.7630 C.ar   18  PHE18      -0.0042
     21  CE1       -4.1620   28.8360   77.3780 C.ar   18  PHE18      -0.0003
     22  CE2       -6.1020   30.2550   77.2990 C.ar   18  PHE18      -0.0003
     23  CZ        -5.5170   29.0110   77.1120 C.ar   18  PHE18      -0.0000
     24  N         -3.8330   34.5710   76.5320 N.am   19  TYR19      -0.1976
     25  CA        -4.7260   35.1180   75.5160 C.3    19  TYR19       0.1639
     26  C         -4.0410   36.0360   74.4920 C.2    19  TYR19       0.2290
     27  O         -4.6490   36.4220   73.4890 O.2    19  TYR19      -0.2864
     28  CB        -5.8760   35.8520   76.1940 C.3    19  TYR19       0.0560
     29  CG        -6.9370   34.9300   76.7460 C.ar   19  TYR19      -0.0198
     30  CD1       -7.6350   34.0700   75.9050 C.ar   19  TYR19      -0.0009
     31  CD2       -7.2640   34.9340   78.1180 C.ar   19  TYR19      -0.0009
     32  CE1       -8.6160   33.2340   76.3980 C.ar   19  TYR19       0.0417
     33  CE2       -8.2610   34.1000   78.6180 C.ar   19  TYR19       0.0417
     34  CZ        -8.9240   33.2600   77.7550 C.ar   19  TYR19       0.1957
     35  OH        -9.8940   32.4300   78.2150 O.3    19  TYR19      -0.2866
     36  N         -4.2170   30.8710   70.4820 N.3    24  GLN24      -0.1245
     37  CA        -5.2840   30.6800   71.4820 C.3    24  GLN24       0.1566
     38  C         -6.6100   31.2770   70.9780 C.2    24  GLN24       0.2260
     39  O         -7.6670   30.6450   71.1030 O.2    24  GLN24      -0.2867
     40  CB        -4.8730   31.2620   72.8500 C.3    24  GLN24       0.0367
     41  CG        -5.9680   31.2240   73.9310 C.3    24  GLN24       0.0905
     42  CD        -6.6760   29.8710   74.0620 C.2    24  GLN24       0.2608
     43  OE1       -6.0490   28.8070   73.9500 O.2    24  GLN24      -0.2717
     44  NE2       -7.9900   29.9060   74.3590 N.am   24  GLN24      -0.0878
     45  N         -7.8830   28.9550   68.5060 N.3    27  ASN27      -0.1225
     46  CA        -8.5510   27.8080   69.1390 C.3    27  ASN27       0.1785
     47  C        -10.0380   28.0890   69.4450 C.2    27  ASN27       0.2597
     48  O        -10.9300   27.2460   69.1930 O.2    27  ASN27      -0.2718
     49  CB        -7.8250   27.3790   70.4240 C.3    27  ASN27       0.1169
     50  CG        -8.5210   26.2280   71.1310 C.2    27  ASN27       0.2627
     51  OD1       -8.3370   25.0640   70.7820 O.2    27  ASN27      -0.2716
     52  ND2       -9.3420   26.5500   72.1210 N.am   27  ASN27      -0.0877
     53  N        -10.3050   29.2810   69.9790 N.am   28  MET28      -0.1979
     54  CA       -11.6710   29.6480   70.3150 C.3    28  MET28       0.1605
     55  C        -12.4580   29.9580   69.0300 C.2    28  MET28       0.2287
     56  O        -13.6200   29.5640   68.8910 O.2    28  MET28      -0.2864
     57  CB       -11.6760   30.8380   71.2670 C.3    28  MET28       0.0413
     58  CG       -11.0580   30.5280   72.6360 C.3    28  MET28       0.0598
     59  SD       -11.0360   31.9920   73.6950 S.3    28  MET28      -0.1393
     60  CE        -9.9210   33.0820   72.8090 C.3    28  MET28       0.0692
     61  N        -17.7130   36.8920   75.3530 N.3   123  GLU123     -0.1231
     62  CA       -17.5950   35.4590   75.5800 C.3   123  GLU123      0.1684
     63  C        -16.6720   35.3040   76.7850 C.2   123  GLU123      0.2434
     64  O        -15.4330   35.2170   76.6270 O.2   123  GLU123     -0.2733
     65  CB       -17.0730   34.7250   74.3350 C.3   123  GLU123      0.0402
     66  CG       -17.2870   33.2110   74.3890 C.3   123  GLU123      0.1161
     67  CD       -16.1300   32.4550   75.0570 C.2   123  GLU123      0.3649
     68  OE1      -15.2730   31.8860   74.3170 O.co2 123  GLU123     -0.2457
     69  OE2      -16.0830   32.4070   76.3300 O.co2 123  GLU123     -0.2457
     70  N        -17.2720   35.3290   78.0040 N.am  124  PRO124     -0.2718
     71  CA       -16.4970   35.2780   79.2520 C.3   124  PRO124      0.1535
     72  C        -16.4850   33.9240   79.9720 C.2   124  PRO124      0.2598
     73  O        -16.0000   33.8530   81.1100 O.2   124  PRO124     -0.2715
     74  CB       -17.2230   36.3160   80.1220 C.3   124  PRO124      0.0310
     75  CG       -18.6700   36.0820   79.7670 C.3   124  PRO124      0.0237
     76  CD       -18.6710   35.7450   78.2720 C.3   124  PRO124      0.0939
     77  N        -16.9940   32.8620   79.3430 N.am  125  MET125     -0.1978
     78  CA       -17.1290   31.5640   80.0420 C.3   125  MET125      0.1605
     79  C        -15.8230   30.7690   80.1040 C.2   125  MET125      0.2287
     80  O        -15.1700   30.5460   79.0820 O.2   125  MET125     -0.2864
     81  CB       -18.2370   30.6720   79.4220 C.3   125  MET125      0.0413
     82  CG       -19.6330   31.3160   79.3410 C.3   125  MET125      0.0598
     83  SD       -19.9150   32.3860   77.9020 S.3   125  MET125     -0.1393
     84  CE       -20.2650   31.1230   76.6680 C.3   125  MET125      0.0692
     85  N        -13.9030   26.9710   81.4950 N.3   127  TYR127     -0.1241
     86  CA       -14.3470   25.5930   81.7070 C.3   127  TYR127      0.1605
     87  C        -15.1270   25.5440   83.0380 C.2   127  TYR127      0.2264
     88  O        -14.8870   26.3890   83.9430 O.2   127  TYR127     -0.2867
     89  CB       -13.2150   24.5480   81.6420 C.3   127  TYR127      0.0534
     90  CG       -12.0330   24.7930   82.5640 C.ar  127  TYR127     -0.0201
     91  CD1      -12.1040   24.4420   83.9270 C.ar  127  TYR127     -0.0009
     92  CD2      -10.8440   25.3540   82.0780 C.ar  127  TYR127     -0.0009
     93  CE1      -11.0340   24.6780   84.7810 C.ar  127  TYR127      0.0417
     94  CE2       -9.7590   25.5780   82.9220 C.ar  127  TYR127      0.0417
     95  CZ        -9.8700   25.2460   84.2750 C.ar  127  TYR127      0.1957
     96  OH        -8.8360   25.4780   85.1240 O.3   127  TYR127     -0.2866
     97  N        -14.5820   29.0690   85.8370 N.3   131  ASN131     -0.1225
     98  CA       -13.1320   29.3350   85.8090 C.3   131  ASN131      0.1785
     99  C        -12.8260   30.6600   85.1080 C.2   131  ASN131      0.2597
    100  O        -13.5980   31.0920   84.2630 O.2   131  ASN131     -0.2718
    101  CB       -12.3360   28.1870   85.1860 C.3   131  ASN131      0.1169
    102  CG       -10.8380   28.4230   85.2630 C.2   131  ASN131      0.2627
    103  OD1      -10.1650   28.5860   84.2260 O.2   131  ASN131     -0.2716
    104  ND2      -10.3030   28.4710   86.4890 N.am  131  ASN131     -0.0877
    105  N        -11.7110   31.2940   85.5000 N.am  132  GLU132     -0.1979
    106  CA       -11.2020   32.5920   84.9800 C.3   132  GLU132      0.1602
    107  C        -11.7450   33.8080   85.7290 C.2   132  GLU132      0.2287
    108  O        -11.1150   34.8720   85.7340 O.2   132  GLU132     -0.2864
    109  CB       -11.4190   32.7870   83.4750 C.3   132  GLU132      0.0415
    110  CG       -11.0040   31.6270   82.5860 C.3   132  GLU132      0.1163
    111  CD       -11.1680   31.9400   81.1010 C.2   132  GLU132      0.3649
    112  OE1      -10.8590   33.0760   80.6810 O.co2 132  GLU132     -0.2457
    113  OE2      -11.5760   31.0290   80.3510 O.co2 132  GLU132     -0.2457
    114  N        -13.9470   35.6340   84.7070 N.3   134  MET134     -0.1245
    115  CA       -14.2820   36.6810   83.7370 C.3   134  MET134      0.1570
    116  C        -15.7870   37.0310   83.7250 C.2   134  MET134      0.2261
    117  O        -16.1720   38.1120   83.2530 O.2   134  MET134     -0.2867
    118  CB       -13.8060   36.3120   82.3170 C.3   134  MET134      0.0387
    119  CG       -13.8770   37.4960   81.3600 C.3   134  MET134      0.0595
    120  SD       -13.2270   37.1160   79.7120 S.3   134  MET134     -0.1393
    121  CE       -13.9470   38.4750   78.7800 C.3   134  MET134      0.0692
    122  N        -11.0460   17.6180   83.1920 N.3   206  VAL206     -0.1245
    123  CA       -11.5930   18.2930   81.9990 C.3   206  VAL206      0.1561
    124  C        -11.4860   17.3050   80.8300 C.2   206  VAL206      0.2260
    125  O        -10.3850   16.9540   80.3610 O.2   206  VAL206     -0.2867
    126  CB       -10.9060   19.6520   81.6940 C.3   206  VAL206      0.0252
    127  CG1      -11.5850   20.3800   80.5180 C.3   206  VAL206      0.0019
    128  CG2      -10.8930   20.5620   82.9170 C.3   206  VAL206      0.0019
    129  N        -14.9300   23.2140   72.5350 N.3   280  HIS280     -0.1226
    130  CA       -13.6060   23.3840   73.1470 C.3   280  HIS280      0.1752
    131  C        -13.6650   23.4010   74.6980 C.2   280  HIS280      0.2596
    132  O        -12.6270   23.2100   75.3470 O.2   280  HIS280     -0.2718
    133  CB       -12.8870   24.6050   72.5680 C.3   280  HIS280      0.0759
    134  CG       -13.3100   25.9160   73.1610 C.ar  280  HIS280      0.0818
    135  ND1      -14.5630   26.4640   72.9640 N.ar  280  HIS280     -0.2268
    136  CD2      -12.6200   26.8130   73.9030 C.ar  280  HIS280      0.1154
    137  CE1      -14.6290   27.6330   73.5760 C.ar  280  HIS280      0.1986
    138  NE2      -13.4600   27.8710   74.1500 N.ar  280  HIS280     -0.2212
    139  N        -14.8600   23.6080   75.2730 N.am  281  TRP281     -0.1976
    140  CA       -15.0460   23.5230   76.7690 C.3   281  TRP281      0.1640
    141  C        -15.1270   22.0790   77.3070 C.2   281  TRP281      0.2290
    142  O        -15.0480   21.8540   78.5420 O.2   281  TRP281     -0.2864
    143  CB       -16.3140   24.2590   77.2110 C.3   281  TRP281      0.0576
    144  CG       -16.2240   25.7510   77.2040 C.ar  281  TRP281      0.0006
    145  CD1      -15.6000   26.5370   78.1200 C.ar  281  TRP281      0.0946
    146  CD2      -16.7920   26.6370   76.2380 C.ar  281  TRP281      0.0152
    147  NE1      -15.7310   27.8550   77.7860 N.ar  281  TRP281     -0.2442
    148  CE2      -16.4630   27.9470   76.6340 C.ar  281  TRP281      0.0810
    149  CE3      -17.5490   26.4490   75.0750 C.ar  281  TRP281      0.0012
    150  CZ2      -16.8650   29.0740   75.9140 C.ar  281  TRP281      0.0191
    151  CZ3      -17.9530   27.5740   74.3540 C.ar  281  TRP281      0.0001
    152  CH2      -17.6060   28.8710   74.7760 C.ar  281  TRP281      0.0015
    153  N         -8.0010   33.8700   90.0200 N.3   312  GLN312     -0.1245
    154  CA        -8.9970   33.9320   88.9250 C.3   312  GLN312      0.1566
    155  C         -9.7590   32.6340   88.7790 C.2   312  GLN312      0.2260
    156  O        -10.0750   32.1990   87.6700 O.2   312  GLN312     -0.2867
    157  CB        -8.3300   34.3210   87.5960 C.3   312  GLN312      0.0367
    158  CG        -7.6470   35.6760   87.6960 C.3   312  GLN312      0.0905
    159  CD        -6.8060   35.9890   86.4880 C.2   312  GLN312      0.2608
    160  OE1       -7.2680   36.6590   85.5710 O.2   312  GLN312     -0.2717
    161  NE2       -5.5810   35.5080   86.4720 N.am  312  GLN312     -0.0878
    162  N         -8.5630   25.9220   89.3020 N.3   336  LYS336     -0.1245
    163  CA        -7.4870   26.5660   88.5240 C.3   336  LYS336      0.1561
    164  C         -6.4740   25.5590   88.0220 C.2   336  LYS336      0.2260
    165  O         -5.8160   25.8100   87.0030 O.2   336  LYS336     -0.2867
    166  CB        -6.7620   27.6530   89.3530 C.3   336  LYS336      0.0271
    167  CG        -5.6950   28.4730   88.6050 C.3   336  LYS336      0.0035
    168  CD        -6.3030   29.3280   87.4810 C.3   336  LYS336      0.0206
    169  CE        -5.2800   30.2330   86.7920 C.3   336  LYS336      0.1093
    170  NZ        -4.6540   31.2680   87.6810 N.3   336  LYS336     -0.1314
    171  N         -6.2670   18.0780   82.5380 N.3   340  PHE340     -0.1241
    172  CA        -6.7930   18.2610   81.1890 C.3   340  PHE340      0.1605
    173  C         -6.7150   16.9150   80.4670 C.2   340  PHE340      0.2264
    174  O         -5.8560   16.7010   79.5880 O.2   340  PHE340     -0.2867
    175  CB        -6.0350   19.3650   80.4450 C.3   340  PHE340      0.0534
    176  CG        -6.1240   20.7180   81.0980 C.ar  340  PHE340     -0.0203
    177  CD1       -7.2560   21.5120   80.9370 C.ar  340  PHE340     -0.0042
    178  CD2       -5.0690   21.2060   81.8520 C.ar  340  PHE340     -0.0042
    179  CE1       -7.3420   22.7630   81.5300 C.ar  340  PHE340     -0.0003
    180  CE2       -5.1510   22.4590   82.4590 C.ar  340  PHE340     -0.0003
    181  CZ        -6.2760   23.2440   82.2890 C.ar  340  PHE340     -0.0000
    182  N         -8.4620   15.3270   78.2860 N.3   342  TYR342     -0.1227
    183  CA        -8.6900   15.2000   76.8360 C.3   342  TYR342      0.1736
    184  C         -7.3920   15.2420   75.9960 C.2   342  TYR342      0.2596
    185  O         -7.4010   14.7990   74.8570 O.2   342  TYR342     -0.2718
    186  CB        -9.6670   16.2650   76.3380 C.3   342  TYR342      0.0548
    187  CG        -9.1190   17.6800   76.3660 C.ar  342  TYR342     -0.0200
    188  CD1       -8.4190   18.2120   75.2700 C.ar  342  TYR342     -0.0009
    189  CD2       -9.3050   18.4940   77.4850 C.ar  342  TYR342     -0.0009
    190  CE1       -7.9320   19.5120   75.2920 C.ar  342  TYR342      0.0417
    191  CE2       -8.8150   19.7860   77.5210 C.ar  342  TYR342      0.0417
    192  CZ        -8.1330   20.2930   76.4310 C.ar  342  TYR342      0.1957
    193  OH        -7.6540   21.5810   76.5080 O.3   342  TYR342     -0.2866
    194  N         -6.3080   15.7950   76.5490 N.am  343  THR343     -0.1953
    195  CA        -5.0110   15.8810   75.8460 C.3   343  THR343      0.1897
    196  C         -4.2980   14.5260   75.6800 C.2   343  THR343      0.2313
    197  O         -4.6710   13.5220   76.3110 O.2   343  THR343     -0.2863
    198  CB        -4.0400   16.8750   76.5220 C.3   343  THR343      0.1794
    199  OG1       -3.7900   16.4750   77.8720 O.3   343  THR343     -0.2208
    200  CG2       -4.5870   18.2930   76.5140 C.3   343  THR343      0.0378
@<TRIPOS>BOND
     1    45    46    1
     2    56    55    2
     3    55    54    1
     4    46    47    1
     5    46    49    1
     6    48    47    2
     7    47    53   am
     8    53    54    1
     9    54    57    1
    10    49    50    1
    11    36    37    1
    12    51    50    2
    13    38    39    2
    14    38    37    1
    15    50    52   am
    16    57    58    1
    17    37    40    1
    18   129   130    1
    19   133   130    1
    20   133   134    1
    21    58    59    1
    22    60    59    1
    23    40    41    1
    24   135   134   ar
    25   135   137   ar
    26   130   131    1
    27   134   136   ar
    28    27    26    2
    29   137   138   ar
    30   136   138   ar
    31    41    42    1
    32    43    42    2
    33    42    44   am
    34    68    67   ar
    35    65    66    1
    36    65    62    1
    37   151   152   ar
    38   151   149   ar
    39    66    67    1
    40    26    25    1
    41   131   139   am
    42   131   132    2
    43   152   150   ar
    44   185   184    2
    45    67    69   ar
    46   149   146   ar
    47    16    15    2
    48   188   190   ar
    49   188   187   ar
    50   139   140    1
    51   190   192   ar
    52    61    62    1
    53    25    28    1
    54    25    24    1
    55    62    63    1
    56   196   195    1
    57   196   197    2
    58   195   198    1
    59   195   194    1
    60    30    32   ar
    61    30    29   ar
    62   150   148   ar
    63   184   194   am
    64   184   183    1
    65    28    29    1
    66   146   148   ar
    67   146   144   ar
    68    15    24   am
    69    15    14    1
    70   186   187    1
    71   186   183    1
    72   187   189   ar
    73    32    34   ar
    74   192   193    1
    75   192   191   ar
    76   200   198    1
    77   198   199    1
    78    64    63    2
    79   148   147   ar
    80    84    83    1
    81    29    31   ar
    82   140   143    1
    83   140   141    1
    84    63    70   am
    85   183   182    1
    86    23    22   ar
    87    23    21   ar
    88   144   143    1
    89   144   145   ar
    90    22    20   ar
    91   141   142    2
    92    21    19   ar
    93   189   191   ar
    94    14    13    1
    95    14    17    1
    96    34    35    1
    97    34    33   ar
    98    20    18   ar
    99   147   145   ar
   100    19    18   ar
   101    83    82    1
   102    70    76    1
   103    70    71    1
   104    18    17    1
   105    31    33   ar
   106    76    75    1
   107   121   120    1
   108    80    79    2
   109    71    72    1
   110    71    74    1
   111    82    81    1
   112    77    72   am
   113    77    78    1
   114    81    78    1
   115   174   173    2
   116   120   119    1
   117    75    74    1
   118     4     3    2
   119    72    73    2
   120    78    79    1
   121   113   111   ar
   122   125   124    2
   123   175   176    1
   124   175   172    1
   125   173   172    1
   126   127   126    1
   127   112   111   ar
   128   124   123    1
   129     3     2    1
   130   177   176   ar
   131   177   179   ar
   132   176   178   ar
   133   111   110    1
   134   172   171    1
   135    12    11    1
   136   119   118    1
   137    85    86    1
   138   179   181   ar
   139    89    86    1
   140    89    90    1
   141   126   123    1
   142   126   128    1
   143    86    87    1
   144    10    11   ar
   145    10     8   ar
   146    11     9   ar
   147   178   180   ar
   148   123   122    1
   149    92    90   ar
   150    92    94   ar
   151     8     6   ar
   152     2     1    1
   153     2     5    1
   154     9     7   ar
   155   181   180   ar
   156   118   115    1
   157    90    91   ar
   158   110   109    1
   159     6     7   ar
   160     6     5    1
   161    94    95   ar
   162    87    88    2
   163   117   116    2
   164   109   106    1
   165   116   115    1
   166   115   114    1
   167    91    93   ar
   168   103   102    2
   169   100    99    2
   170    95    93   ar
   171    95    96    1
   172   106   105    1
   173   106   107    1
   174    99   105   am
   175    99    98    1
   176   101   102    1
   177   101    98    1
   178   102   104   am
   179   160   159    2
   180   107   108    2
   181    98    97    1
   182   161   159   am
   183   159   158    1
   184   169   168    1
   185   169   170    1
   186   165   164    2
   187   168   167    1
   188   157   158    1
   189   157   154    1
   190   156   155    2
   191   164   163    1
   192   163   162    1
   193   163   166    1
   194   167   166    1
   195   155   154    1
   196   154   153    1
