@<TRIPOS>MOLECULE
tmp/6armA00.pdb
 91 85 0 0 0
SMALL
GASTEIGER

@<TRIPOS>ATOM
      1  N         68.8080   74.3120  242.2050 N.3     1  PHE1       -0.1227
      2  CA        67.3910   74.5740  241.9750 C.3     1  PHE1        0.1736
      3  C         66.6570   74.6870  243.3000 C.2     1  PHE1        0.2596
      4  O         66.8860   73.8800  244.2070 O.2     1  PHE1       -0.2718
      5  CB        66.7900   73.4630  241.1070 C.3     1  PHE1        0.0547
      6  CG        65.3020   73.5780  240.9010 C.ar    1  PHE1       -0.0202
      7  CD1       64.4220   72.7870  241.6220 C.ar    1  PHE1       -0.0042
      8  CD2       64.7760   74.4670  239.9640 C.ar    1  PHE1       -0.0042
      9  CE1       63.0520   72.8880  241.4330 C.ar    1  PHE1       -0.0003
     10  CE2       63.4050   74.5710  239.7710 C.ar    1  PHE1       -0.0003
     11  CZ        62.5420   73.7800  240.5110 C.ar    1  PHE1       -0.0000
     12  N         65.7920   75.6950  243.4140 N.am    2  SER2       -0.1952
     13  CA        65.0840   75.9780  244.6610 C.3     2  SER2        0.1924
     14  C         63.6540   76.4410  244.3850 C.2     2  SER2        0.2314
     15  O         63.3710   77.0600  243.3540 O.2     2  SER2       -0.2863
     16  CB        65.8120   77.0570  245.4740 C.3     2  SER2        0.2116
     17  OG        67.1510   76.6920  245.7420 O.3     2  SER2       -0.2180
     18  N         64.7380   72.8120  248.7380 N.3    12  GLY12      -0.1225
     19  CA        65.5870   72.1350  247.7750 C.3    12  GLY12       0.1811
     20  C         65.1400   70.7250  247.4360 C.2    12  GLY12       0.2280
     21  O         65.5990   70.1350  246.4680 O.2    12  GLY12      -0.2866
     22  N         66.2560   79.0540  239.1380 N.3    44  ASN44      -0.1225
     23  CA        67.5850   78.5290  238.9030 C.3    44  ASN44       0.1785
     24  C         68.5370   79.2120  239.8790 C.2    44  ASN44       0.2597
     25  O         68.4640   80.4320  240.0550 O.2    44  ASN44      -0.2718
     26  CB        67.9960   78.7830  237.4570 C.3    44  ASN44       0.1169
     27  CG        69.2950   78.1240  237.1080 C.2    44  ASN44       0.2627
     28  OD1       70.3660   78.5860  237.5190 O.2    44  ASN44      -0.2716
     29  ND2       69.2250   77.0330  236.3410 N.am   44  ASN44      -0.0877
     30  N         69.4100   78.4540  240.5310 N.am   45  ASP45      -0.1960
     31  CA        70.1870   79.0380  241.6170 C.3    45  ASP45       0.1840
     32  C         71.4390   79.7690  241.1280 C.2    45  ASP45       0.2622
     33  O         72.1320   80.4020  241.9220 O.2    45  ASP45      -0.2715
     34  CB        70.5450   77.9710  242.6530 C.3    45  ASP45       0.1450
     35  CG        69.4350   77.7730  243.6820 C.2    45  ASP45       0.3671
     36  OD1       68.9760   78.7700  244.2760 O.co2  45  ASP45      -0.2456
     37  OD2       68.9990   76.6220  243.8770 O.co2  45  ASP45      -0.2456
     38  N         71.7020   79.7160  239.8280 N.am   46  TYR46      -0.1974
     39  CA        72.7440   80.5580  239.2220 C.3    46  TYR46       0.1639
     40  C         72.1690   81.6760  238.3810 C.2    46  TYR46       0.2290
     41  O         72.6780   82.8010  238.3930 O.2    46  TYR46      -0.2864
     42  CB        73.6710   79.7500  238.3250 C.3    46  TYR46       0.0560
     43  CG        74.2230   78.5240  238.9660 C.ar   46  TYR46      -0.0198
     44  CD1       74.6190   78.5340  240.2940 C.ar   46  TYR46      -0.0009
     45  CD2       74.3260   77.3430  238.2500 C.ar   46  TYR46      -0.0009
     46  CE1       75.1150   77.3970  240.8860 C.ar   46  TYR46       0.0417
     47  CE2       74.8210   76.2150  238.8240 C.ar   46  TYR46       0.0417
     48  CZ        75.2110   76.2410  240.1420 C.ar   46  TYR46       0.1957
     49  OH        75.6980   75.0930  240.7100 O.3    46  TYR46      -0.2866
     50  N         73.3870   76.3150  234.0330 N.3    51  ASP51      -0.1239
     51  CA        73.0550   74.9240  234.3560 C.3    51  ASP51       0.1674
     52  C         71.5340   74.8120  234.4590 C.2    51  ASP51       0.2266
     53  O         70.9730   74.8780  235.5560 O.2    51  ASP51      -0.2867
     54  CB        73.7280   74.5000  235.6680 C.3    51  ASP51       0.1410
     55  CG        73.5430   73.0290  235.9800 C.2    51  ASP51       0.3668
     56  OD1       73.0550   72.2870  235.1000 O.co2  51  ASP51      -0.2456
     57  OD2       73.9160   72.6170  237.1060 O.co2  51  ASP51      -0.2456
     58  N         67.6940   73.9950  234.7440 N.3    53  ASP53      -0.1239
     59  CA        66.8710   72.9890  235.4320 C.3    53  ASP53       0.1674
     60  C         65.6980   72.5120  234.5860 C.2    53  ASP53       0.2266
     61  O         65.1120   73.2790  233.8260 O.2    53  ASP53      -0.2867
     62  CB        66.3390   73.5430  236.7500 C.3    53  ASP53       0.1410
     63  CG        67.4520   73.8690  237.7300 C.2    53  ASP53       0.3668
     64  OD1       68.2960   72.9850  237.9650 O.co2  53  ASP53      -0.2456
     65  OD2       67.4890   75.0100  238.2350 O.co2  53  ASP53      -0.2456
     66  N         63.0040   67.1320  239.5530 N.3   127  LYS127     -0.1245
     67  CA        63.9690   68.0680  239.0090 C.3   127  LYS127      0.1561
     68  C         65.2340   67.3460  238.5730 C.2   127  LYS127      0.2260
     69  O         65.7550   66.5070  239.3020 O.2   127  LYS127     -0.2867
     70  CB        64.3340   69.1420  240.0410 C.3   127  LYS127      0.0271
     71  CG        65.5960   69.9430  239.6900 C.3   127  LYS127      0.0035
     72  CD        66.8140   69.4730  240.4960 C.3   127  LYS127      0.0206
     73  CE        68.0940   70.1000  239.9290 C.3   127  LYS127      0.1093
     74  NZ        69.2670   69.9010  240.8350 N.3   127  LYS127     -0.1314
     75  N         68.9320   68.7670  236.4600 N.3   129  ALA129     -0.1245
     76  CA        69.5780   69.8740  235.7630 C.3   129  ALA129      0.1562
     77  C         70.3250   69.3780  234.5210 C.2   129  ALA129      0.2260
     78  O         69.9740   68.3460  233.9480 O.2   129  ALA129     -0.2867
     79  CB        70.5130   70.6230  236.7080 C.3   129  ALA129      0.0290
     80  N         73.2330   65.9940  236.8580 N.3   134  GLY134     -0.1210
     81  CA        71.9930   66.7430  236.8520 C.3   134  GLY134      0.1956
     82  C         71.4630   66.8850  238.2570 C.2   134  GLY134      0.2611
     83  O         70.5070   67.6340  238.4900 O.2   134  GLY134     -0.2717
     84  N         72.0700   66.1560  239.1970 N.am  135  ASN135     -0.1974
     85  CA        71.7420   66.3240  240.6070 C.3   135  ASN135      0.1688
     86  C         70.2230   66.2470  240.8490 C.2   135  ASN135      0.2292
     87  O         69.5970   67.1850  241.3510 O.2   135  ASN135     -0.2864
     88  CB        72.3250   67.6620  241.0920 C.3   135  ASN135      0.1181
     89  CG        72.0210   67.9490  242.5340 C.2   135  ASN135      0.2629
     90  OD1       71.8830   67.0350  243.3530 O.2   135  ASN135     -0.2716
     91  ND2       71.8990   69.2310  242.8610 N.am  135  ASN135     -0.0877
@<TRIPOS>BOND
     1    61    60    2
     2    78    77    2
     3    50    51    1
     4    51    52    1
     5    51    54    1
     6    52    53    2
     7    77    76    1
     8    60    59    1
     9    58    59    1
    10    56    55   ar
    11    59    62    1
    12    54    55    1
    13    76    75    1
    14    76    79    1
    15    55    57   ar
    16    29    27   am
    17    62    63    1
    18    81    80    1
    19    81    82    1
    20    27    26    1
    21    27    28    2
    22    26    23    1
    23    63    64   ar
    24    63    65   ar
    25    45    47   ar
    26    45    43   ar
    27    82    83    2
    28    82    84   am
    29    42    43    1
    30    42    39    1
    31    40    41    2
    32    40    39    1
    33    68    67    1
    34    68    69    2
    35    47    48   ar
    36    23    22    1
    37    23    24    1
    38    43    44   ar
    39    67    66    1
    40    67    70    1
    41    84    85    1
    42    39    38    1
    43    71    70    1
    44    71    72    1
    45    10     8   ar
    46    10    11   ar
    47    38    32   am
    48    24    25    2
    49    24    30   am
    50    73    72    1
    51    73    74    1
    52     8     6   ar
    53    48    49    1
    54    48    46   ar
    55    44    46   ar
    56    11     9   ar
    57    30    31    1
    58    85    86    1
    59    85    88    1
    60    86    87    2
    61     6     5    1
    62     6     7   ar
    63    88    89    1
    64     5     2    1
    65    32    31    1
    66    32    33    2
    67     9     7   ar
    68    31    34    1
    69     2     1    1
    70     2     3    1
    71    89    91   am
    72    89    90    2
    73    34    35    1
    74     3    12   am
    75     3     4    2
    76    15    14    2
    77    12    13    1
    78    35    37   ar
    79    35    36   ar
    80    14    13    1
    81    13    16    1
    82    16    17    1
    83    21    20    2
    84    20    19    1
    85    19    18    1
