@<TRIPOS>MOLECULE
tmp/6arnA00.pdb
 100 93 0 0 0
SMALL
GASTEIGER

@<TRIPOS>ATOM
      1  N          2.4390  245.1580    6.5060 N.3     1  PHE1       -0.1227
      2  CA         2.2570  244.9220    7.9360 C.3     1  PHE1        0.1736
      3  C          2.1610  246.2510    8.6510 C.2     1  PHE1        0.2596
      4  O          2.9760  247.1410    8.4180 O.2     1  PHE1       -0.2718
      5  CB         3.4250  244.1080    8.4990 C.3     1  PHE1        0.0547
      6  CG         3.3490  243.8910    9.9840 C.ar    1  PHE1       -0.0202
      7  CD1        4.1310  244.6400   10.8560 C.ar    1  PHE1       -0.0042
      8  CD2        2.4940  242.9420   10.5080 C.ar    1  PHE1       -0.0042
      9  CE1        4.0600  244.4430   12.2230 C.ar    1  PHE1       -0.0003
     10  CE2        2.4130  242.7410   11.8750 C.ar    1  PHE1       -0.0003
     11  CZ         3.2130  243.4850   12.7320 C.ar    1  PHE1       -0.0000
     12  N          1.1670  246.3950    9.5180 N.am    2  SER2       -0.1952
     13  CA         0.9820  247.6410   10.2410 C.3     2  SER2        0.1924
     14  C          0.4940  247.3710   11.6600 C.2     2  SER2        0.2314
     15  O         -0.0880  246.3220   11.9390 O.2     2  SER2       -0.2863
     16  CB        -0.0250  248.5410    9.5260 C.3     2  SER2        0.2116
     17  OG         0.3640  248.8010    8.1890 O.3     2  SER2       -0.2180
     18  N          4.1340  251.6440   10.4420 N.3    12  GLY12      -0.1225
     19  CA         4.8080  250.6580    9.6160 C.3    12  GLY12       0.1811
     20  C          6.2220  250.3310   10.0580 C.2    12  GLY12       0.2280
     21  O          6.8220  249.3870    9.5530 O.2    12  GLY12      -0.2866
     22  N         -2.0560  242.1460    9.0840 N.3    44  ASN44      -0.1225
     23  CA        -1.5330  241.9390    7.7570 C.3    44  ASN44       0.1785
     24  C         -2.2580  242.8860    6.8120 C.2    44  ASN44       0.2597
     25  O         -3.4820  243.0130    6.8830 O.2    44  ASN44      -0.2718
     26  CB        -1.7850  240.4900    7.3600 C.3    44  ASN44       0.1169
     27  CG        -1.1680  240.1420    6.0440 C.2    44  ASN44       0.2627
     28  OD1       -1.6930  240.5130    4.9950 O.2    44  ASN44      -0.2716
     29  ND2       -0.0480  239.4250    6.0770 N.am   44  ASN44      -0.0877
     30  N         -1.5220  243.5550    5.9330 N.am   45  ASP45      -0.1960
     31  CA        -2.1270  244.6090    5.1260 C.3    45  ASP45       0.1840
     32  C         -2.8850  244.1060    3.9010 C.2    45  ASP45       0.2622
     33  O         -3.6040  244.8800    3.2720 O.2    45  ASP45      -0.2715
     34  CB        -1.1010  245.6840    4.7500 C.3    45  ASP45       0.1450
     35  CG        -0.8840  246.6870    5.8630 C.2    45  ASP45       0.3671
     36  OD1       -1.8440  247.3880    6.2440 O.co2  45  ASP45      -0.2456
     37  OD2        0.2550  246.7870    6.3520 O.co2  45  ASP45      -0.2456
     38  N         -2.7360  242.8240    3.5720 N.am   46  TYR46      -0.1974
     39  CA        -3.5480  242.2110    2.5190 C.3    46  TYR46       0.1639
     40  C         -4.7000  241.3920    3.0840 C.2    46  TYR46       0.2290
     41  O         -5.7970  241.3600    2.5150 O.2    46  TYR46      -0.2864
     42  CB        -2.7110  241.2720    1.6560 C.3    46  TYR46       0.0560
     43  CG        -1.5580  241.9080    0.9360 C.ar   46  TYR46      -0.0198
     44  CD1       -1.7550  242.9730    0.0640 C.ar   46  TYR46      -0.0009
     45  CD2       -0.2710  241.4140    1.0940 C.ar   46  TYR46      -0.0009
     46  CE1       -0.6880  243.5430   -0.6090 C.ar   46  TYR46       0.0417
     47  CE2        0.7920  241.9710    0.4270 C.ar   46  TYR46       0.0417
     48  CZ         0.5820  243.0340   -0.4200 C.ar   46  TYR46       0.1957
     49  OH         1.6600  243.5830   -1.0770 O.3    46  TYR46      -0.2866
     50  N          0.5800  237.0470    1.9380 N.3    51  ASP51      -0.1239
     51  CA         1.9750  237.3490    2.2400 C.3    51  ASP51       0.1674
     52  C          2.0610  237.4710    3.7580 C.2    51  ASP51       0.2266
     53  O          1.8970  238.5520    4.3100 O.2    51  ASP51      -0.2867
     54  CB         2.3990  238.6510    1.5580 C.3    51  ASP51       0.1410
     55  CG         3.8700  238.9560    1.7310 C.2    51  ASP51       0.3668
     56  OD1        4.6030  238.0910    2.2520 O.co2  51  ASP51      -0.2456
     57  OD2        4.2920  240.0630    1.3250 O.co2  51  ASP51      -0.2456
     58  N          2.9440  237.7580    7.6290 N.3    53  ASP53      -0.1239
     59  CA         3.9420  238.4480    8.4380 C.3    53  ASP53       0.1674
     60  C          4.4180  237.5930    9.6000 C.2    53  ASP53       0.2266
     61  O          3.6470  236.8460   10.2070 O.2    53  ASP53      -0.2867
     62  CB         3.3860  239.7720    8.9470 C.3    53  ASP53       0.1410
     63  CG         3.0370  240.7140    7.8170 C.2    53  ASP53       0.3668
     64  OD1        3.9530  241.0270    7.0290 O.co2  53  ASP53      -0.2456
     65  OD2        1.8510  241.1070    7.7020 O.co2  53  ASP53      -0.2456
     66  N         -6.3790  240.6330    8.1260 N.3    97  LYS97      -0.1245
     67  CA        -6.4450  242.0920    8.1190 C.3    97  LYS97       0.1561
     68  C         -7.0780  242.6060    9.4150 C.2    97  LYS97       0.2260
     69  O         -6.8380  243.7370    9.8410 O.2    97  LYS97      -0.2867
     70  CB        -7.2340  242.5800    6.8990 C.3    97  LYS97       0.0271
     71  CG        -7.3780  244.0920    6.8020 C.3    97  LYS97       0.0035
     72  CD        -6.1910  244.7250    6.0920 C.3    97  LYS97       0.0206
     73  CE        -6.3080  246.2470    6.0390 C.3    97  LYS97       0.1093
     74  NZ        -5.0850  246.8940    5.4670 N.3    97  LYS97      -0.1314
     75  N          9.7810  242.5190   12.2660 N.3   126  LYS126     -0.1245
     76  CA         8.8630  241.9790   11.2880 C.3   126  LYS126      0.1561
     77  C          9.5750  241.5930    9.9760 C.2   126  LYS126      0.2260
     78  O         10.3680  242.3250    9.4690 O.2   126  LYS126     -0.2867
     79  CB         7.8180  243.0460   10.9060 C.3   126  LYS126      0.0271
     80  CG         6.9520  242.6940    9.6790 C.3   126  LYS126      0.0035
     81  CD         7.3690  243.4690    8.4110 C.3   126  LYS126      0.0206
     82  CE         6.8000  242.8650    7.1250 C.3   126  LYS126      0.1093
     83  NZ         6.9220  243.8080    5.9590 N.3   126  LYS126     -0.1314
     84  N          8.1900  239.4440    6.3180 N.3   128  ALA128     -0.1245
     85  CA         7.0980  238.7540    5.6640 C.3   128  ALA128      0.1562
     86  C          7.5590  237.5060    4.9550 C.2   128  ALA128      0.2260
     87  O          8.5360  236.9740    5.2790 O.2   128  ALA128     -0.2867
     88  CB         6.2850  239.6950    4.7810 C.3   128  ALA128      0.0290
     89  N         10.8870  239.7350    2.0670 N.3   133  GLY133     -0.1210
     90  CA        10.1180  239.8150    3.2940 C.3   133  GLY133      0.1956
     91  C          9.9750  241.2340    3.8110 C.2   133  GLY133      0.2611
     92  O          9.2660  241.4600    4.7890 O.2   133  GLY133     -0.2717
     93  N         10.6580  242.1860    3.1720 N.am  134  ASN134     -0.1974
     94  CA        10.5330  243.5950    3.5350 C.3   134  ASN134      0.1688
     95  C         10.6400  243.8110    5.0460 C.2   134  ASN134      0.2292
     96  O          9.7010  244.2990    5.6710 O.2   134  ASN134     -0.2864
     97  CB         9.2000  244.1440    3.0090 C.3   134  ASN134      0.1181
     98  CG         9.0550  245.6410    3.2090 C.2   134  ASN134      0.2629
     99  OD1       10.0420  246.3760    3.2610 O.2   134  ASN134     -0.2716
    100  ND2        7.8150  246.1030    3.3170 N.am  134  ASN134     -0.0877
@<TRIPOS>BOND
     1    49    48    1
     2    46    48   ar
     3    46    44   ar
     4    48    47   ar
     5    44    43   ar
     6    47    45   ar
     7    43    45   ar
     8    43    42    1
     9    57    55   ar
    10    54    55    1
    11    54    51    1
    12    42    39    1
    13    55    56   ar
    14    50    51    1
    15    89    90    1
    16    51    52    1
    17    41    40    2
    18    39    40    1
    19    39    38    1
    20    97    98    1
    21    97    94    1
    22    93    94    1
    23    93    91   am
    24    98    99    2
    25    98   100   am
    26    33    32    2
    27    90    91    1
    28    94    95    1
    29    38    32   am
    30    52    53    2
    31    91    92    2
    32    32    31    1
    33    34    31    1
    34    34    35    1
    35    88    85    1
    36    86    87    2
    37    86    85    1
    38    28    27    2
    39    95    96    2
    40    31    30    1
    41    74    73    1
    42    85    84    1
    43    35    36   ar
    44    35    37   ar
    45    30    24   am
    46    83    82    1
    47    73    72    1
    48    27    29   am
    49    27    26    1
    50    72    71    1
    51     1     2    1
    52    71    70    1
    53    24    25    2
    54    24    23    1
    55    70    67    1
    56    64    63   ar
    57    82    81    1
    58    26    23    1
    59    58    59    1
    60    65    63   ar
    61    23    22    1
    62    63    62    1
    63     2     5    1
    64     2     3    1
    65    67    66    1
    66    67    68    1
    67    17    16    1
    68    81    80    1
    69     4     3    2
    70    59    62    1
    71    59    60    1
    72     5     6    1
    73     3    12   am
    74    68    69    2
    75    78    77    2
    76    12    13    1
    77    16    13    1
    78    21    20    2
    79    60    61    2
    80    19    20    1
    81    19    18    1
    82    80    79    1
    83    77    76    1
    84     6     8   ar
    85     6     7   ar
    86    13    14    1
    87     8    10   ar
    88     7     9   ar
    89    79    76    1
    90    76    75    1
    91    14    15    2
    92    10    11   ar
    93     9    11   ar
