@<TRIPOS>MOLECULE
tmp/6aroA00.pdb
 106 98 0 0 0
SMALL
GASTEIGER

@<TRIPOS>ATOM
      1  N         18.6410   74.4280  129.1760 N.3     1  PHE1       -0.1227
      2  CA        17.2120   74.6860  128.9160 C.3     1  PHE1        0.1736
      3  C         16.5180   74.8120  130.2530 C.2     1  PHE1        0.2596
      4  O         16.7600   73.9790  131.1670 O.2     1  PHE1       -0.2718
      5  CB        16.6330   73.4990  128.1430 C.3     1  PHE1        0.0547
      6  CG        15.1610   73.5920  127.9220 C.ar    1  PHE1       -0.0202
      7  CD1       14.2800   72.8140  128.6800 C.ar    1  PHE1       -0.0042
      8  CD2       14.6560   74.4560  126.9670 C.ar    1  PHE1       -0.0042
      9  CE1       12.9200   72.8900  128.4750 C.ar    1  PHE1       -0.0003
     10  CE2       13.2890   74.5280  126.7580 C.ar    1  PHE1       -0.0003
     11  CZ        12.4190   73.7190  127.5060 C.ar    1  PHE1       -0.0000
     12  N         15.6650   75.8090  130.4140 N.am    2  SER2       -0.1952
     13  CA        14.9680   75.9650  131.6660 C.3     2  SER2        0.1924
     14  C         13.5510   76.4520  131.4080 C.2     2  SER2        0.2314
     15  O         13.2620   77.0370  130.3520 O.2     2  SER2       -0.2863
     16  CB        15.6670   76.9630  132.5770 C.3     2  SER2        0.2116
     17  OG        17.0070   76.5640  132.8550 O.3     2  SER2       -0.2180
     18  N         13.5150   78.9940  138.2170 N.3    10  SER10      -0.1217
     19  CA        13.8200   78.1550  137.0640 C.3    10  SER10       0.1889
     20  C         13.7890   76.6680  137.3800 C.2    10  SER10       0.2288
     21  O         14.1650   76.2340  138.4720 O.2    10  SER10      -0.2866
     22  CB        15.1550   78.5700  136.4900 C.3    10  SER10       0.2089
     23  OG        15.0970   79.9610  136.2940 O.3    10  SER10      -0.2183
     24  N         14.7730   72.8420  135.6920 N.3    12  GLY12      -0.1225
     25  CA        15.5470   72.1340  134.6820 C.3    12  GLY12       0.1811
     26  C         15.1140   70.7010  134.4000 C.2    12  GLY12       0.2280
     27  O         15.6010   70.0950  133.4560 O.2    12  GLY12      -0.2866
     28  N         16.0790   78.9480  126.1380 N.3    44  ASN44      -0.1225
     29  CA        17.4340   78.4560  125.9540 C.3    44  ASN44       0.1785
     30  C         18.3610   79.2020  126.9120 C.2    44  ASN44       0.2597
     31  O         18.3060   80.4240  127.0140 O.2    44  ASN44      -0.2718
     32  CB        17.8100   78.6830  124.4960 C.3    44  ASN44       0.1169
     33  CG        19.1290   78.1250  124.1640 C.2    44  ASN44       0.2627
     34  OD1       20.1680   78.6640  124.5670 O.2    44  ASN44      -0.2716
     35  ND2       19.1290   77.0440  123.4010 N.am   44  ASN44      -0.0877
     36  N         19.2210   78.4600  127.6110 N.am   45  ASP45      -0.1960
     37  CA        20.0210   79.0760  128.6580 C.3    45  ASP45       0.1840
     38  C         21.2210   79.8350  128.1260 C.2    45  ASP45       0.2622
     39  O         21.8020   80.6170  128.8850 O.2    45  ASP45      -0.2715
     40  CB        20.4080   78.0470  129.7160 C.3    45  ASP45       0.1450
     41  CG        19.3070   77.8200  130.6900 C.2    45  ASP45       0.3671
     42  OD1       18.8290   78.7800  131.3000 O.co2  45  ASP45      -0.2456
     43  OD2       18.9190   76.6610  130.8340 O.co2  45  ASP45      -0.2456
     44  N         21.5720   79.6910  126.8580 N.am   46  TYR46      -0.1974
     45  CA        22.6120   80.5210  126.2410 C.3    46  TYR46       0.1639
     46  C         22.0510   81.6440  125.4020 C.2    46  TYR46       0.2290
     47  O         22.6440   82.7360  125.3560 O.2    46  TYR46      -0.2864
     48  CB        23.5000   79.6890  125.3230 C.3    46  TYR46       0.0560
     49  CG        24.2260   78.5370  125.9630 C.ar   46  TYR46      -0.0198
     50  CD1       25.1060   78.7310  127.0360 C.ar   46  TYR46      -0.0009
     51  CD2       24.1210   77.2610  125.4230 C.ar   46  TYR46      -0.0009
     52  CE1       25.7910   77.6540  127.5780 C.ar   46  TYR46       0.0417
     53  CE2       24.7880   76.1820  125.9450 C.ar   46  TYR46       0.0417
     54  CZ        25.6320   76.4000  127.0270 C.ar   46  TYR46       0.1957
     55  OH        26.3330   75.3470  127.5670 O.3    46  TYR46      -0.2866
     56  N         23.2410   76.2320  121.0920 N.3    51  ASP51      -0.1239
     57  CA        22.9590   74.8380  121.4310 C.3    51  ASP51       0.1674
     58  C         21.4150   74.7780  121.5250 C.2    51  ASP51       0.2266
     59  O         20.8350   74.8800  122.6050 O.2    51  ASP51      -0.2867
     60  CB        23.6160   74.4710  122.7550 C.3    51  ASP51       0.1410
     61  CG        23.4600   73.0440  123.1220 C.2    51  ASP51       0.3668
     62  OD1       22.9550   72.2520  122.2840 O.co2  51  ASP51      -0.2456
     63  OD2       23.8650   72.6690  124.2570 O.co2  51  ASP51      -0.2456
     64  N         17.5800   73.9810  121.8340 N.3    53  ASP53      -0.1239
     65  CA        16.7680   72.9740  122.5210 C.3    53  ASP53       0.1674
     66  C         15.6030   72.5130  121.6460 C.2    53  ASP53       0.2266
     67  O         15.0230   73.2960  120.8820 O.2    53  ASP53      -0.2867
     68  CB        16.2630   73.5520  123.8250 C.3    53  ASP53       0.1410
     69  CG        17.4120   73.9120  124.7550 C.2    53  ASP53       0.3668
     70  OD1       18.1780   72.9880  125.0510 O.co2  53  ASP53      -0.2456
     71  OD2       17.5270   75.0890  125.1330 O.co2  53  ASP53      -0.2456
     72  N         17.0730   83.2790  124.6470 N.3    97  LYS97      -0.1245
     73  CA        17.0250   83.2990  126.0930 C.3    97  LYS97       0.1561
     74  C         15.7660   83.9970  126.6180 C.2    97  LYS97       0.2260
     75  O         15.3320   83.7680  127.7460 O.2    97  LYS97      -0.2867
     76  CB        18.3200   83.9240  126.6500 C.3    97  LYS97       0.0271
     77  CG        18.5040   83.7230  128.1500 C.3    97  LYS97       0.0035
     78  CD        19.9610   83.9260  128.5490 C.3    97  LYS97       0.0206
     79  CE        20.1450   83.8840  130.0620 C.3    97  LYS97       0.1093
     80  NZ        21.5860   83.9190  130.4540 N.3    97  LYS97      -0.1314
     81  N         12.9220   67.2090  126.6050 N.3   132  LYS132     -0.1245
     82  CA        13.9040   68.1420  126.0640 C.3   132  LYS132      0.1561
     83  C         15.1770   67.4190  125.6560 C.2   132  LYS132      0.2260
     84  O         15.6890   66.6190  126.4500 O.2   132  LYS132     -0.2867
     85  CB        14.2730   69.1790  127.1280 C.3   132  LYS132      0.0271
     86  CG        15.5050   70.0380  126.8020 C.3   132  LYS132      0.0035
     87  CD        16.7690   69.5900  127.6010 C.3   132  LYS132      0.0206
     88  CE        18.0110   70.1680  126.9200 C.3   132  LYS132      0.1093
     89  NZ        19.2210   69.9940  127.8320 N.3   132  LYS132     -0.1314
     90  N         18.9160   68.7680  123.5510 N.3   134  ALA134     -0.1245
     91  CA        19.5360   69.8850  122.8620 C.3   134  ALA134      0.1562
     92  C         20.2940   69.4080  121.6240 C.2   134  ALA134      0.2260
     93  O         19.9580   68.3650  121.0660 O.2   134  ALA134     -0.2867
     94  CB        20.4200   70.7050  123.8370 C.3   134  ALA134      0.0290
     95  N         23.1880   66.0060  123.8760 N.3   139  GLY139     -0.1210
     96  CA        21.9360   66.7380  123.9800 C.3   139  GLY139      0.1956
     97  C         21.4200   66.8710  125.3980 C.2   139  GLY139      0.2611
     98  O         20.4660   67.6070  125.5870 O.2   139  GLY139     -0.2717
     99  N         22.0130   66.2010  126.3910 N.am  140  ASN140     -0.1974
    100  CA        21.6240   66.3950  127.7920 C.3   140  ASN140      0.1688
    101  C         20.0960   66.2980  127.9630 C.2   140  ASN140      0.2292
    102  O         19.4380   67.2450  128.3860 O.2   140  ASN140     -0.2864
    103  CB        22.1830   67.7380  128.3180 C.3   140  ASN140      0.1181
    104  CG        21.8720   68.0100  129.8000 C.2   140  ASN140      0.2629
    105  OD1       21.7260   67.0950  130.6260 O.2   140  ASN140     -0.2716
    106  ND2       21.7880   69.2910  130.1440 N.am  140  ASN140     -0.0877
@<TRIPOS>BOND
     1    67    66    2
     2    93    92    2
     3    56    57    1
     4    57    58    1
     5    57    60    1
     6    58    59    2
     7    92    91    1
     8    66    65    1
     9    64    65    1
    10    62    61   ar
    11    65    68    1
    12    60    61    1
    13    91    90    1
    14    91    94    1
    15    61    63   ar
    16    35    33   am
    17    68    69    1
    18    95    96    1
    19    96    97    1
    20    33    32    1
    21    33    34    2
    22    32    29    1
    23    72    73    1
    24    69    70   ar
    25    69    71   ar
    26    48    49    1
    27    48    45    1
    28    47    46    2
    29    97    98    2
    30    97    99   am
    31    46    45    1
    32    51    53   ar
    33    51    49   ar
    34    83    82    1
    35    83    84    2
    36    53    54   ar
    37    29    28    1
    38    29    30    1
    39    49    50   ar
    40    82    81    1
    41    82    85    1
    42    73    74    1
    43    73    76    1
    44    45    44    1
    45    99   100    1
    46    74    75    2
    47    76    77    1
    48    10     8   ar
    49    10    11   ar
    50    86    85    1
    51    86    87    1
    52    44    38   am
    53    30    31    2
    54    30    36   am
    55    88    87    1
    56    88    89    1
    57     8     6   ar
    58    54    55    1
    59    54    52   ar
    60    50    52   ar
    61    11     9   ar
    62    36    37    1
    63   100   101    1
    64   100   103    1
    65     6     5    1
    66     6     7   ar
    67   101   102    2
    68    38    37    1
    69    38    39    2
    70     5     2    1
    71    77    78    1
    72   103   104    1
    73     9     7   ar
    74    78    79    1
    75    37    40    1
    76     2     1    1
    77     2     3    1
    78    40    41    1
    79   104   106   am
    80   104   105    2
    81    79    80    1
    82     3    12   am
    83     3     4    2
    84    15    14    2
    85    12    13    1
    86    41    43   ar
    87    41    42   ar
    88    14    13    1
    89    13    16    1
    90    16    17    1
    91    27    26    2
    92    26    25    1
    93    25    24    1
    94    23    22    1
    95    22    19    1
    96    19    20    1
    97    19    18    1
    98    20    21    2
