@<TRIPOS>MOLECULE
tmp/6arvD01.pdb
 213 210 0 0 0
SMALL
GASTEIGER

@<TRIPOS>ATOM
      1  N          0.2590   35.9430   83.9410 N.3    15  GLN15      -0.1231
      2  CA         0.0540   34.6810   83.2530 C.3    15  GLN15       0.1698
      3  C         -1.2710   34.6130   82.4600 C.2    15  GLN15       0.2592
      4  O         -1.2870   34.1090   81.3440 O.2    15  GLN15      -0.2718
      5  CB         0.1630   33.5430   84.2650 C.3    15  GLN15       0.0381
      6  CG        -0.3260   32.1870   83.7870 C.3    15  GLN15       0.0905
      7  CD        -0.1530   31.1220   84.8520 C.2    15  GLN15       0.2608
      8  OE1       -0.2650   31.4010   86.0550 O.2    15  GLN15      -0.2717
      9  NE2        0.1360   29.8930   84.4220 N.am   15  GLN15      -0.0878
     10  N         -2.3590   35.1420   83.0250 N.am   16  TYR16      -0.1976
     11  CA        -3.6740   35.1450   82.3510 C.3    16  TYR16       0.1639
     12  C         -3.6330   35.9100   81.0170 C.2    16  TYR16       0.2290
     13  O         -4.0760   35.4160   79.9790 O.2    16  TYR16      -0.2864
     14  CB        -4.7290   35.7730   83.2770 C.3    16  TYR16       0.0560
     15  CG        -6.1280   35.8070   82.7140 C.ar   16  TYR16      -0.0198
     16  CD1       -6.6660   36.9870   82.1960 C.ar   16  TYR16      -0.0009
     17  CD2       -6.9320   34.6700   82.7250 C.ar   16  TYR16      -0.0009
     18  CE1       -7.9590   37.0250   81.6830 C.ar   16  TYR16       0.0417
     19  CE2       -8.2280   34.6950   82.2260 C.ar   16  TYR16       0.0417
     20  CZ        -8.7420   35.8730   81.7110 C.ar   16  TYR16       0.1957
     21  OH       -10.0290   35.8870   81.2000 O.3    16  TYR16      -0.2866
     22  N         -1.4270   34.3820   78.2560 N.3    19  PHE19      -0.1227
     23  CA        -2.1920   33.3050   77.6250 C.3    19  PHE19       0.1736
     24  C         -3.0720   33.8150   76.4880 C.2    19  PHE19       0.2595
     25  O         -2.9810   33.2900   75.3720 O.2    19  PHE19      -0.2718
     26  CB        -3.0150   32.5580   78.6790 C.3    19  PHE19       0.0547
     27  CG        -3.7360   31.3470   78.1530 C.ar   19  PHE19      -0.0202
     28  CD1       -3.0510   30.1460   77.9340 C.ar   19  PHE19      -0.0042
     29  CD2       -5.1050   31.3940   77.9030 C.ar   19  PHE19      -0.0042
     30  CE1       -3.7230   29.0260   77.4690 C.ar   19  PHE19      -0.0003
     31  CE2       -5.7850   30.2740   77.4430 C.ar   19  PHE19      -0.0003
     32  CZ        -5.0900   29.0910   77.2190 C.ar   19  PHE19      -0.0000
     33  N         -3.8740   34.8610   76.7450 N.am   20  TYR20      -0.1976
     34  CA        -4.7890   35.4000   75.7220 C.3    20  TYR20       0.1639
     35  C         -4.1330   36.3100   74.6680 C.2    20  TYR20       0.2290
     36  O         -4.7780   36.7070   73.6840 O.2    20  TYR20      -0.2864
     37  CB        -6.0320   36.0480   76.3710 C.3    20  TYR20       0.0560
     38  CG        -6.9860   34.9890   76.8690 C.ar   20  TYR20      -0.0198
     39  CD1       -7.6350   34.1470   75.9680 C.ar   20  TYR20      -0.0009
     40  CD2       -7.2220   34.7990   78.2370 C.ar   20  TYR20      -0.0009
     41  CE1       -8.4910   33.1500   76.4070 C.ar   20  TYR20       0.0417
     42  CE2       -8.0850   33.8030   78.6910 C.ar   20  TYR20       0.0417
     43  CZ        -8.7230   32.9860   77.7690 C.ar   20  TYR20       0.1957
     44  OH        -9.5710   31.9750   78.1660 O.3    20  TYR20      -0.2866
     45  N         -4.2620   31.0250   70.6360 N.3    25  GLN25      -0.1245
     46  CA        -5.3210   30.8450   71.6360 C.3    25  GLN25       0.1566
     47  C         -6.6560   31.5020   71.1830 C.2    25  GLN25       0.2260
     48  O         -7.7280   30.8900   71.2850 O.2    25  GLN25      -0.2867
     49  CB        -4.8740   31.3430   73.0160 C.3    25  GLN25       0.0367
     50  CG        -5.9780   31.2780   74.0730 C.3    25  GLN25       0.0905
     51  CD        -6.6510   29.9070   74.1530 C.2    25  GLN25       0.2608
     52  OE1       -7.8710   29.8110   74.3490 O.2    25  GLN25      -0.2717
     53  NE2       -5.8580   28.8360   73.9950 N.am   25  GLN25      -0.0878
     54  N        -10.4650   29.4110   70.1700 N.3    29  MET29      -0.1245
     55  CA       -11.8430   29.8180   70.4860 C.3    29  MET29       0.1570
     56  C        -12.6180   30.1420   69.2030 C.2    29  MET29       0.2261
     57  O        -13.7640   29.7190   69.0460 O.2    29  MET29      -0.2867
     58  CB       -11.8550   31.0290   71.4260 C.3    29  MET29       0.0387
     59  CG       -11.1750   30.7720   72.7670 C.3    29  MET29       0.0595
     60  SD       -11.2190   32.2070   73.8480 S.3    29  MET29      -0.1393
     61  CE       -10.1450   33.3640   72.9870 C.3    29  MET29       0.0692
     62  N        -17.7970   37.1220   75.5110 N.3   124  GLU124     -0.1231
     63  CA       -17.6770   35.6880   75.7570 C.3   124  GLU124      0.1684
     64  C        -16.7410   35.5210   76.9600 C.2   124  GLU124      0.2434
     65  O        -15.5210   35.4480   76.7870 O.2   124  GLU124     -0.2733
     66  CB       -17.1920   34.9300   74.5100 C.3   124  GLU124      0.0402
     67  CG       -17.4130   33.4080   74.5630 C.3   124  GLU124      0.1161
     68  CD       -16.2950   32.6880   75.3250 C.2   124  GLU124      0.3649
     69  OE1      -15.3740   32.1500   74.6590 O.co2 124  GLU124     -0.2457
     70  OE2      -16.3310   32.6510   76.5840 O.co2 124  GLU124     -0.2457
     71  N        -17.3120   35.5110   78.1930 N.am  125  PRO125     -0.2718
     72  CA       -16.5060   35.4700   79.4150 C.3   125  PRO125      0.1535
     73  C        -16.6280   34.1770   80.2300 C.2   125  PRO125      0.2598
     74  O        -16.3010   34.1700   81.4250 O.2   125  PRO125     -0.2715
     75  CB       -17.1120   36.6160   80.2230 C.3   125  PRO125      0.0310
     76  CG       -18.5730   36.5420   79.8860 C.3   125  PRO125      0.0237
     77  CD       -18.6960   35.9310   78.5110 C.3   125  PRO125      0.0939
     78  N        -17.1260   33.1140   79.6130 N.am  126  MET126     -0.1978
     79  CA       -17.3460   31.8470   80.3080 C.3   126  MET126      0.1605
     80  C        -16.0410   31.0390   80.2670 C.2   126  MET126      0.2287
     81  O        -15.5260   30.7430   79.1790 O.2   126  MET126     -0.2864
     82  CB       -18.4650   31.0410   79.6170 C.3   126  MET126      0.0413
     83  CG       -19.8410   31.7070   79.5180 C.3   126  MET126      0.0598
     84  SD       -20.1460   32.7230   78.0520 S.3   126  MET126     -0.1393
     85  CE       -20.3570   31.4760   76.7660 C.3   126  MET126      0.0692
     86  N        -13.9590   27.3450   81.6460 N.3   128  TYR128     -0.1241
     87  CA       -14.4460   25.9610   81.8560 C.3   128  TYR128      0.1605
     88  C        -15.2280   25.8840   83.1870 C.2   128  TYR128      0.2264
     89  O        -14.9560   26.6670   84.1110 O.2   128  TYR128     -0.2867
     90  CB       -13.3360   24.8830   81.7240 C.3   128  TYR128      0.0534
     91  CG       -12.1360   25.0560   82.6490 C.ar  128  TYR128     -0.0201
     92  CD1      -12.1770   24.6130   83.9780 C.ar  128  TYR128     -0.0009
     93  CD2      -10.9470   25.6530   82.1830 C.ar  128  TYR128     -0.0009
     94  CE1      -11.0860   24.7780   84.8240 C.ar  128  TYR128      0.0417
     95  CE2       -9.8450   25.8220   83.0210 C.ar  128  TYR128      0.0417
     96  CZ        -9.9190   25.3860   84.3330 C.ar  128  TYR128      0.1957
     97  OH        -8.8440   25.5550   85.1570 O.3   128  TYR128     -0.2866
     98  N        -14.6100   29.4280   85.9970 N.3   132  ASN132     -0.1225
     99  CA       -13.1690   29.6340   85.9700 C.3   132  ASN132      0.1785
    100  C        -12.8190   30.9390   85.2720 C.2   132  ASN132      0.2597
    101  O        -13.5100   31.3490   84.3360 O.2   132  ASN132     -0.2718
    102  CB       -12.4260   28.4640   85.3210 C.3   132  ASN132      0.1169
    103  CG       -10.9160   28.5960   85.4780 C.2   132  ASN132      0.2627
    104  OD1      -10.1640   28.7440   84.4880 O.2   132  ASN132     -0.2716
    105  ND2      -10.4620   28.5890   86.7230 N.am  132  ASN132     -0.0877
    106  N        -11.7640   31.5850   85.7670 N.am  133  GLU133     -0.1979
    107  CA       -11.1880   32.8400   85.2380 C.3   133  GLU133      0.1602
    108  C        -11.7450   34.0830   85.9260 C.2   133  GLU133      0.2287
    109  O        -11.1410   35.1700   85.8560 O.2   133  GLU133     -0.2864
    110  CB       -11.3410   32.9910   83.7150 C.3   133  GLU133      0.0415
    111  CG       -10.6370   31.9460   82.8580 C.3   133  GLU133      0.1163
    112  CD       -10.7360   32.2450   81.3620 C.2   133  GLU133      0.3649
    113  OE1      -10.9320   33.4310   80.9810 O.co2 133  GLU133     -0.2457
    114  OE2      -10.6020   31.2880   80.5660 O.co2 133  GLU133     -0.2457
    115  N        -14.0490   35.8820   84.9310 N.3   135  MET135     -0.1245
    116  CA       -14.3580   36.9390   83.9560 C.3   135  MET135      0.1570
    117  C        -15.8360   37.3260   83.9780 C.2   135  MET135      0.2261
    118  O        -16.1920   38.4150   83.5550 O.2   135  MET135     -0.2867
    119  CB       -13.8930   36.6000   82.5310 C.3   135  MET135      0.0387
    120  CG       -13.8990   37.8240   81.6020 C.3   135  MET135      0.0595
    121  SD       -13.3470   37.4740   79.9150 S.3   135  MET135     -0.1393
    122  CE       -14.2210   38.7200   78.9730 C.3   135  MET135      0.0692
    123  N        -11.1040   17.7030   83.3050 N.3   207  VAL207     -0.1245
    124  CA       -11.6610   18.3860   82.1210 C.3   207  VAL207      0.1561
    125  C        -11.5420   17.4550   80.9130 C.2   207  VAL207      0.2260
    126  O        -10.4370   17.1490   80.4310 O.2   207  VAL207     -0.2867
    127  CB       -11.0130   19.7730   81.8530 C.3   207  VAL207      0.0252
    128  CG1      -11.7370   20.5270   80.7380 C.3   207  VAL207      0.0019
    129  CG2      -10.9920   20.6200   83.1160 C.3   207  VAL207      0.0019
    130  N        -14.9660   23.4780   72.8530 N.3   281  HIS281     -0.1226
    131  CA       -13.6420   23.6640   73.4580 C.3   281  HIS281      0.1752
    132  C        -13.6960   23.7260   74.9750 C.2   281  HIS281      0.2596
    133  O        -12.6570   23.6430   75.6440 O.2   281  HIS281     -0.2718
    134  CB       -12.9440   24.8920   72.8650 C.3   281  HIS281      0.0759
    135  CG       -13.3850   26.2050   73.4770 C.ar  281  HIS281      0.0818
    136  ND1      -14.5970   26.7630   73.2240 N.ar  281  HIS281     -0.2268
    137  CD2      -12.7270   27.0770   74.3510 C.ar  281  HIS281      0.1154
    138  CE1      -14.7100   27.9260   73.9000 C.ar  281  HIS281      0.1986
    139  NE2      -13.5680   28.1180   74.5940 N.ar  281  HIS281     -0.2212
    140  N        -14.9000   23.8610   75.5420 N.am  282  TRP282     -0.1962
    141  CA       -15.0690   23.7900   76.9990 C.3   282  TRP282      0.1771
    142  C        -15.1390   22.3740   77.5080 C.2   282  TRP282      0.2619
    143  O        -14.9840   22.1480   78.7140 O.2   282  TRP282     -0.2715
    144  CB       -16.3230   24.5230   77.4550 C.3   282  TRP282      0.0590
    145  CG       -16.2450   26.0240   77.4170 C.ar  282  TRP282      0.0006
    146  CD1      -15.5920   26.8690   78.3090 C.ar  282  TRP282      0.0946
    147  CD2      -16.8880   26.9130   76.4460 C.ar  282  TRP282      0.0152
    148  NE1      -15.7730   28.1830   77.9610 N.ar  282  TRP282     -0.2442
    149  CE2      -16.5340   28.2800   76.8470 C.ar  282  TRP282      0.0810
    150  CE3      -17.6740   26.7200   75.3190 C.ar  282  TRP282      0.0012
    151  CZ2      -16.9750   29.3920   76.1380 C.ar  282  TRP282      0.0191
    152  CZ3      -18.1150   27.8460   74.6150 C.ar  282  TRP282      0.0001
    153  CH2      -17.7810   29.1480   75.0200 C.ar  282  TRP282      0.0015
    154  N        -15.3960   21.4160   76.6130 N.am  283  TYR283     -0.1974
    155  CA       -15.6040   20.0210   76.9940 C.3   283  TYR283      0.1639
    156  C        -16.6650   19.9600   78.1100 C.2   283  TYR283      0.2290
    157  O        -17.6710   20.6540   78.0260 O.2   283  TYR283     -0.2864
    158  CB       -14.2800   19.3830   77.4320 C.3   283  TYR283      0.0560
    159  CG       -13.3150   19.1630   76.2960 C.ar  283  TYR283     -0.0198
    160  CD1      -12.5390   20.2090   75.7970 C.ar  283  TYR283     -0.0009
    161  CD2      -13.1760   17.9040   75.7190 C.ar  283  TYR283     -0.0009
    162  CE1      -11.6470   20.0020   74.7530 C.ar  283  TYR283      0.0417
    163  CE2      -12.2920   17.6870   74.6690 C.ar  283  TYR283      0.0417
    164  CZ       -11.5330   18.7300   74.1930 C.ar  283  TYR283      0.1957
    165  OH       -10.6540   18.5060   73.1510 O.3   283  TYR283     -0.2866
    166  N         -7.9940   34.0780   90.2630 N.3   313  GLN313     -0.1245
    167  CA        -8.9600   34.1240   89.1530 C.3   313  GLN313      0.1566
    168  C         -9.7350   32.8340   88.9980 C.2   313  GLN313      0.2260
    169  O        -10.0300   32.4230   87.8860 O.2   313  GLN313     -0.2867
    170  CB        -8.2680   34.4810   87.8280 C.3   313  GLN313      0.0367
    171  CG        -7.6260   35.8560   87.8450 C.3   313  GLN313      0.0905
    172  CD        -6.8110   36.1410   86.5930 C.2   313  GLN313      0.2608
    173  OE1       -7.2910   36.7910   85.6620 O.2   313  GLN313     -0.2717
    174  NE2       -5.5930   35.6390   86.5570 N.am  313  GLN313     -0.0878
    175  N         -8.5530   26.1130   89.4720 N.3   337  LYS337     -0.1245
    176  CA        -7.4610   26.7190   88.7040 C.3   337  LYS337      0.1561
    177  C         -6.4820   25.6570   88.2230 C.2   337  LYS337      0.2260
    178  O         -5.8140   25.8430   87.2000 O.2   337  LYS337     -0.2867
    179  CB        -6.7100   27.7520   89.5520 C.3   337  LYS337      0.0271
    180  CG        -5.6800   28.6010   88.8000 C.3   337  LYS337      0.0035
    181  CD        -6.3130   29.4350   87.6890 C.3   337  LYS337      0.0206
    182  CE        -5.3110   30.3850   87.0310 C.3   337  LYS337      0.1093
    183  NZ        -4.8270   31.4830   87.9270 N.3   337  LYS337     -0.1314
    184  N         -6.3480   18.3000   82.6070 N.3   341  PHE341     -0.1241
    185  CA        -6.8290   18.3540   81.2170 C.3   341  PHE341      0.1605
    186  C         -6.5950   17.0040   80.5660 C.2   341  PHE341      0.2264
    187  O         -5.5840   16.7810   79.8820 O.2   341  PHE341     -0.2867
    188  CB        -6.1480   19.4740   80.4190 C.3   341  PHE341      0.0534
    189  CG        -6.3560   20.8550   80.9930 C.ar  341  PHE341     -0.0203
    190  CD1       -5.3960   21.4230   81.8330 C.ar  341  PHE341     -0.0042
    191  CD2       -7.5080   21.5950   80.6920 C.ar  341  PHE341     -0.0042
    192  CE1       -5.5760   22.6980   82.3640 C.ar  341  PHE341     -0.0003
    193  CE2       -7.6940   22.8670   81.2160 C.ar  341  PHE341     -0.0003
    194  CZ        -6.7250   23.4220   82.0470 C.ar  341  PHE341     -0.0000
    195  N         -8.2680   15.2700   78.2260 N.3   343  TYR343     -0.1227
    196  CA        -8.3850   15.1590   76.7580 C.3   343  TYR343      0.1736
    197  C         -7.0460   15.2710   76.0060 C.2   343  TYR343      0.2596
    198  O         -6.8880   14.6660   74.9370 O.2   343  TYR343     -0.2718
    199  CB        -9.3840   16.1760   76.1940 C.3   343  TYR343      0.0548
    200  CG        -9.0030   17.6360   76.4020 C.ar  343  TYR343     -0.0200
    201  CD1       -8.1690   18.3120   75.4950 C.ar  343  TYR343     -0.0009
    202  CD2       -9.5020   18.3540   77.4930 C.ar  343  TYR343     -0.0009
    203  CE1       -7.8390   19.6540   75.6850 C.ar  343  TYR343      0.0417
    204  CE2       -9.1790   19.6910   77.6870 C.ar  343  TYR343      0.0417
    205  CZ        -8.3480   20.3400   76.7900 C.ar  343  TYR343      0.1957
    206  OH        -8.0370   21.6730   77.0100 O.3   343  TYR343     -0.2866
    207  N         -6.1040   16.0500   76.5550 N.am  344  THR344     -0.1953
    208  CA        -4.7770   16.1970   75.9530 C.3   344  THR344      0.1897
    209  C         -4.0260   14.8800   76.0790 C.2   344  THR344      0.2313
    210  O         -3.0900   14.6290   75.3330 O.2   344  THR344     -0.2863
    211  CB        -3.9250   17.3210   76.6020 C.3   344  THR344      0.1794
    212  OG1       -3.6740   17.0070   77.9760 O.3   344  THR344     -0.2208
    213  CG2       -4.5920   18.7020   76.5000 C.3   344  THR344      0.0378
@<TRIPOS>BOND
     1    57    56    2
     2    56    55    1
     3    54    55    1
     4    55    58    1
     5    45    46    1
     6    47    48    2
     7    47    46    1
     8    58    59    1
     9    46    49    1
    10    59    60    1
    11   130   131    1
    12   134   131    1
    13   134   135    1
    14    61    60    1
    15    49    50    1
    16   165   164    1
    17   136   135   ar
    18   136   138   ar
    19   131   132    1
    20   135   137   ar
    21    36    35    2
    22   138   139   ar
    23    53    51   am
    24    50    51    1
    25    51    52    2
    26   164   163   ar
    27   164   162   ar
    28   137   139   ar
    29    66    67    1
    30    66    63    1
    31    67    68    1
    32   152   153   ar
    33   152   150   ar
    34    69    68   ar
    35    35    34    1
    36   163   161   ar
    37   162   160   ar
    38   198   197    2
    39   132   140   am
    40   132   133    2
    41   153   151   ar
    42   150   147   ar
    43    68    70   ar
    44   210   209    2
    45    25    24    2
    46   201   203   ar
    47   201   200   ar
    48    62    63    1
    49   140   141    1
    50   203   205   ar
    51   161   159   ar
    52    34    37    1
    53    34    33    1
    54    63    64    1
    55   160   159   ar
    56   208   209    1
    57   208   207    1
    58   208   211    1
    59    39    41   ar
    60    39    38   ar
    61   197   207   am
    62   197   196    1
    63   151   149   ar
    64   199   200    1
    65   199   196    1
    66   159   158    1
    67    37    38    1
    68   200   202   ar
    69    41    43   ar
    70   147   149   ar
    71   147   145   ar
    72    24    33   am
    73    24    23    1
    74   213   211    1
    75   211   212    1
    76   154   155    1
    77   154   142   am
    78   196   195    1
    79    85    84    1
    80    65    64    2
    81   205   206    1
    82   205   204   ar
    83   149   148   ar
    84    38    40   ar
    85    64    71   am
    86   155   158    1
    87   155   156    1
    88   141   144    1
    89   141   142    1
    90    32    31   ar
    91    32    30   ar
    92   145   144    1
    93   145   146   ar
    94    31    29   ar
    95    30    28   ar
    96   202   204   ar
    97   142   143    2
    98    23    22    1
    99    23    26    1
   100    43    44    1
   101    43    42   ar
   102    29    27   ar
   103    28    27   ar
   104   148   146   ar
   105   157   156    2
   106    84    83    1
   107    27    26    1
   108    71    77    1
   109    71    72    1
   110    40    42   ar
   111    77    76    1
   112   122   121    1
   113    81    80    2
   114    72    75    1
   115    72    73    1
   116    83    82    1
   117    78    73   am
   118    78    79    1
   119    82    79    1
   120   187   186    2
   121    76    75    1
   122   121   120    1
   123    13    12    2
   124    73    74    2
   125    80    79    1
   126   188   189    1
   127   188   185    1
   128   126   125    2
   129   186   185    1
   130   114   112   ar
   131   191   189   ar
   132   191   193   ar
   133   128   127    1
   134   125   124    1
   135   113   112   ar
   136   189   190   ar
   137    12    11    1
   138    21    20    1
   139   193   194   ar
   140   185   184    1
   141     4     3    2
   142   112   111    1
   143   120   119    1
   144    86    87    1
   145    18    20   ar
   146    18    16   ar
   147    20    19   ar
   148    90    87    1
   149    90    91    1
   150   190   192   ar
   151   127   124    1
   152   127   129    1
   153    87    88    1
   154   194   192   ar
   155   124   123    1
   156    93    91   ar
   157    93    95   ar
   158    16    15   ar
   159    19    17   ar
   160    11    10    1
   161    11    14    1
   162     3    10   am
   163     3     2    1
   164   119   116    1
   165    91    92   ar
   166    15    17   ar
   167    15    14    1
   168   111   110    1
   169    95    96   ar
   170    88    89    2
   171     2     1    1
   172     2     5    1
   173   118   117    2
   174   110   107    1
   175     6     5    1
   176     6     7    1
   177   116   117    1
   178   116   115    1
   179    92    94   ar
   180    96    94   ar
   181    96    97    1
   182   101   100    2
   183     9     7   am
   184   104   103    2
   185     7     8    2
   186   107   106    1
   187   107   108    1
   188   100   106   am
   189   100    99    1
   190   102   103    1
   191   102    99    1
   192   103   105   am
   193   173   172    2
   194   109   108    2
   195    99    98    1
   196   174   172   am
   197   172   171    1
   198   182   181    1
   199   182   183    1
   200   178   177    2
   201   181   180    1
   202   170   171    1
   203   170   167    1
   204   169   168    2
   205   177   176    1
   206   176   175    1
   207   176   179    1
   208   180   179    1
   209   168   167    1
   210   167   166    1
