@<TRIPOS>MOLECULE
tmp/6arvD00.pdb
 221 211 0 0 0
SMALL
GASTEIGER

@<TRIPOS>ATOM
      1  N        -10.0930   45.3440   89.8220 N.3     4  PHE4       -0.1241
      2  CA        -9.4370   44.1420   89.2910 C.3     4  PHE4        0.1605
      3  C         -8.2190   43.7640   90.1170 C.2     4  PHE4        0.2264
      4  O         -8.1250   42.6290   90.5750 O.2     4  PHE4       -0.2867
      5  CB        -9.0620   44.2520   87.8000 C.3     4  PHE4        0.0534
      6  CG        -8.4360   42.9840   87.2360 C.ar    4  PHE4       -0.0203
      7  CD1       -7.0670   42.7320   87.3790 C.ar    4  PHE4       -0.0042
      8  CD2       -9.2200   42.0300   86.5870 C.ar    4  PHE4       -0.0042
      9  CE1       -6.4940   41.5780   86.8680 C.ar    4  PHE4       -0.0003
     10  CE2       -8.6460   40.8760   86.0760 C.ar    4  PHE4       -0.0003
     11  CZ        -7.2780   40.6530   86.2210 C.ar    4  PHE4       -0.0000
     12  N         -2.3590   35.1420   83.0250 N.3    16  TYR16      -0.1227
     13  CA        -3.6740   35.1450   82.3510 C.3    16  TYR16       0.1736
     14  C         -3.6330   35.9100   81.0170 C.2    16  TYR16       0.2595
     15  O         -4.0760   35.4160   79.9790 O.2    16  TYR16      -0.2718
     16  CB        -4.7290   35.7730   83.2770 C.3    16  TYR16       0.0548
     17  CG        -6.1280   35.8070   82.7140 C.ar   16  TYR16      -0.0200
     18  CD1       -6.6660   36.9870   82.1960 C.ar   16  TYR16      -0.0009
     19  CD2       -6.9320   34.6700   82.7250 C.ar   16  TYR16      -0.0009
     20  CE1       -7.9590   37.0250   81.6830 C.ar   16  TYR16       0.0417
     21  CE2       -8.2280   34.6950   82.2260 C.ar   16  TYR16       0.0417
     22  CZ        -8.7420   35.8730   81.7110 C.ar   16  TYR16       0.1957
     23  OH       -10.0290   35.8870   81.2000 O.3    16  TYR16      -0.2866
     24  N         -3.1010   37.1230   81.0530 N.am   17  PHE17      -0.1976
     25  CA        -3.0610   37.9540   79.8620 C.3    17  PHE17       0.1639
     26  C         -1.9630   37.5580   78.8590 C.2    17  PHE17       0.2290
     27  O         -2.0910   37.8390   77.6650 O.2    17  PHE17      -0.2864
     28  CB        -3.0730   39.4370   80.2310 C.3    17  PHE17       0.0560
     29  CG        -4.3610   39.8570   80.8910 C.ar   17  PHE17      -0.0200
     30  CD1       -4.3940   40.1980   82.2440 C.ar   17  PHE17      -0.0042
     31  CD2       -5.5680   39.8380   80.1720 C.ar   17  PHE17      -0.0042
     32  CE1       -5.5890   40.5540   82.8570 C.ar   17  PHE17      -0.0003
     33  CE2       -6.7730   40.1910   80.7890 C.ar   17  PHE17      -0.0003
     34  CZ        -6.7780   40.5490   82.1290 C.ar   17  PHE17      -0.0000
     35  N         -3.8740   34.8610   76.7450 N.3    20  TYR20      -0.1241
     36  CA        -4.7890   35.4000   75.7220 C.3    20  TYR20       0.1605
     37  C         -4.1330   36.3100   74.6680 C.2    20  TYR20       0.2264
     38  O         -4.7780   36.7070   73.6840 O.2    20  TYR20      -0.2867
     39  CB        -6.0320   36.0480   76.3710 C.3    20  TYR20       0.0534
     40  CG        -6.9860   34.9890   76.8690 C.ar   20  TYR20      -0.0201
     41  CD1       -7.6350   34.1470   75.9680 C.ar   20  TYR20      -0.0009
     42  CD2       -7.2220   34.7990   78.2370 C.ar   20  TYR20      -0.0009
     43  CE1       -8.4910   33.1500   76.4070 C.ar   20  TYR20       0.0417
     44  CE2       -8.0850   33.8030   78.6910 C.ar   20  TYR20       0.0417
     45  CZ        -8.7230   32.9860   77.7690 C.ar   20  TYR20       0.1957
     46  OH        -9.5710   31.9750   78.1660 O.3    20  TYR20      -0.2866
     47  N         -6.5870   32.7280   70.6770 N.3    26  GLN26      -0.1245
     48  CA        -7.7710   33.3430   70.0830 C.3    26  GLN26       0.1566
     49  C         -8.3360   32.4180   68.9920 C.2    26  GLN26       0.2260
     50  O         -9.5530   32.2400   68.8800 O.2    26  GLN26      -0.2867
     51  CB        -7.4350   34.7180   69.5150 C.3    26  GLN26       0.0367
     52  CG        -6.9450   35.7140   70.5680 C.3    26  GLN26       0.0905
     53  CD        -8.0240   36.1080   71.5920 C.2    26  GLN26       0.2608
     54  OE1       -9.2110   36.1980   71.2570 O.2    26  GLN26      -0.2717
     55  NE2       -7.6080   36.3680   72.8360 N.am   26  GLN26      -0.0878
     56  N        -10.4650   29.4110   70.1700 N.3    29  MET29      -0.1230
     57  CA       -11.8430   29.8180   70.4860 C.3    29  MET29       0.1702
     58  C        -12.6180   30.1420   69.2030 C.2    29  MET29       0.2592
     59  O        -13.7640   29.7190   69.0460 O.2    29  MET29      -0.2718
     60  CB       -11.8550   31.0290   71.4260 C.3    29  MET29       0.0401
     61  CG       -11.1750   30.7720   72.7670 C.3    29  MET29       0.0596
     62  SD       -11.2190   32.2070   73.8480 S.3    29  MET29      -0.1393
     63  CE       -10.1450   33.3640   72.9870 C.3    29  MET29       0.0692
     64  N        -11.9680   30.8590   68.2810 N.am   30  MET30      -0.1979
     65  CA       -12.5900   31.2300   67.0000 C.3    30  MET30       0.1605
     66  C        -13.0350   29.9930   66.2190 C.2    30  MET30       0.2287
     67  O        -14.1530   29.9680   65.6720 O.2    30  MET30      -0.2864
     68  CB       -11.6370   32.0970   66.1670 C.3    30  MET30       0.0413
     69  CG       -11.5220   33.5130   66.6800 C.3    30  MET30       0.0598
     70  SD       -10.0140   34.3490   66.1450 S.3    30  MET30      -0.1393
     71  CE       -10.4980   34.8220   64.4880 C.3    30  MET30       0.0692
     72  N        -19.5030   27.5490   69.1840 N.3    35  ARG35      -0.1245
     73  CA       -19.3610   28.8030   69.9300 C.3    35  ARG35       0.1563
     74  C        -19.4770   30.0370   69.0310 C.2    35  ARG35       0.2260
     75  O        -20.3380   30.8950   69.2450 O.2    35  ARG35      -0.2867
     76  CB       -18.0290   28.8150   70.7050 C.3    35  ARG35       0.0307
     77  CG       -17.7950   30.0540   71.5480 C.3    35  ARG35       0.0489
     78  CD       -16.3090   30.2680   71.8160 C.3    35  ARG35       0.2205
     79  NE       -15.7210   31.0600   70.7480 N.pl3  35  ARG35      -0.0865
     80  CZ       -15.3170   32.3210   70.8720 C.cat  35  ARG35       0.5346
     81  NH1      -15.3930   32.9470   72.0410 N.pl3  35  ARG35       0.1354
     82  NH2      -14.8350   32.9650   69.8080 N.pl3  35  ARG35       0.1354
     83  N        -18.0030   45.7090   73.7760 N.3    57  ASP57      -0.1225
     84  CA       -17.4650   44.3450   73.7170 C.3    57  ASP57       0.1805
     85  C        -16.4170   44.1760   74.8340 C.2    57  ASP57       0.2598
     86  O        -15.3210   44.7480   74.7790 O.2    57  ASP57      -0.2718
     87  CB       -16.9040   44.0180   72.3020 C.3    57  ASP57       0.1424
     88  CG       -16.3660   42.5560   72.1690 C.2    57  ASP57       0.3668
     89  OD1      -16.1200   42.0830   71.0370 O.co2  57  ASP57      -0.2456
     90  OD2      -16.1650   41.8660   73.1880 O.co2  57  ASP57      -0.2456
     91  N        -16.7800   43.4110   75.8570 N.am   58  VAL58      -0.1966
     92  CA       -15.9240   43.1970   77.0300 C.3    58  VAL58       0.1727
     93  C        -14.9360   42.0710   76.7470 C.2    58  VAL58       0.2617
     94  O        -15.3230   40.8930   76.6970 O.2    58  VAL58      -0.2715
     95  CB       -16.7770   42.8690   78.2870 C.3    58  VAL58       0.0290
     96  CG1      -15.8890   42.6150   79.5140 C.3    58  VAL58       0.0023
     97  CG2      -17.7690   44.0030   78.5490 C.3    58  VAL58       0.0023
     98  N        -13.6670   42.4350   76.5540 N.am   59  GLY59      -0.1940
     99  CA       -12.6140   41.4470   76.2450 C.3    59  GLY59       0.2014
    100  C        -12.6960   40.9800   74.7950 C.2    59  GLY59       0.2639
    101  O        -12.8810   39.7900   74.5370 O.2    59  GLY59      -0.2714
    102  N        -12.5550   41.9190   73.8530 N.am   60  CYS60      -0.1953
    103  CA       -12.7970   41.6420   72.4240 C.3    60  CYS60       0.1843
    104  C        -11.8910   40.5450   71.7850 C.2    60  CYS60       0.2626
    105  O        -12.2620   39.9310   70.7770 O.2    60  CYS60      -0.2714
    106  CB       -12.7830   42.9380   71.6010 C.3    60  CYS60       0.0997
    107  SG       -11.1580   43.7450   71.4270 S.3    60  CYS60      -0.0797
    108  N        -10.7350   40.2750   72.3850 N.am   61  GLY61      -0.1940
    109  CA        -9.7860   39.3520   71.7680 C.3    61  GLY61       0.2014
    110  C         -9.4160   39.8150   70.3660 C.2    61  GLY61       0.2639
    111  O         -8.9550   40.9500   70.1850 O.2    61  GLY61      -0.2714
    112  N         -9.6520   38.9470   69.3760 N.am   62  SER62      -0.1949
    113  CA        -9.4300   39.2510   67.9500 C.3    62  SER62       0.1924
    114  C        -10.3250   40.3880   67.4450 C.2    62  SER62       0.2314
    115  O        -10.0130   41.0480   66.4420 O.2    62  SER62      -0.2863
    116  CB        -9.6780   38.0050   67.1070 C.3    62  SER62       0.2116
    117  OG       -11.0420   37.6380   67.1700 O.3    62  SER62      -0.2180
    118  N        -13.6300   39.6200   67.0040 N.3    64  ILE64      -0.1231
    119  CA       -14.6340   38.8470   66.2350 C.3    64  ILE64       0.1692
    120  C        -16.1080   39.1980   66.5440 C.2    64  ILE64       0.2591
    121  O        -16.9220   39.3580   65.6220 O.2    64  ILE64      -0.2718
    122  CB       -14.3690   37.3080   66.2960 C.3    64  ILE64       0.0266
    123  CG1      -15.3070   36.5230   65.3580 C.3    64  ILE64       0.0019
    124  CG2      -14.4320   36.7690   67.7320 C.3    64  ILE64       0.0020
    125  CD1      -15.0320   36.7170   63.8760 C.3    64  ILE64       0.0001
    126  N        -16.4350   39.3100   67.8300 N.am   65  LEU65      -0.1980
    127  CA       -17.7980   39.6130   68.2630 C.3    65  LEU65       0.1596
    128  C        -18.2120   41.0220   67.8570 C.2    65  LEU65       0.2287
    129  O        -19.3470   41.2200   67.4430 O.2    65  LEU65      -0.2864
    130  CB       -17.9670   39.4140   69.7890 C.3    65  LEU65       0.0297
    131  CG       -17.7200   38.0210   70.3920 C.3    65  LEU65       0.0022
    132  CD1      -18.0920   37.9690   71.8770 C.3    65  LEU65       0.0001
    133  CD2      -18.4520   36.9250   69.6190 C.3    65  LEU65       0.0001
    134  N        -12.9950   46.5860   74.2100 N.3    80  VAL80      -0.1231
    135  CA       -12.0360   46.6280   75.3230 C.3    80  VAL80       0.1692
    136  C        -11.3080   45.2810   75.4210 C.2    80  VAL80       0.2592
    137  O        -11.9410   44.2220   75.4070 O.2    80  VAL80      -0.2718
    138  CB       -12.7730   46.8900   76.6620 C.3    80  VAL80       0.0266
    139  CG1      -11.8380   46.7620   77.8610 C.3    80  VAL80       0.0020
    140  CG2      -13.4490   48.2590   76.6440 C.3    80  VAL80       0.0020
    141  N         -9.9820   45.3410   75.5240 N.am   81  GLU81      -0.1966
    142  CA        -9.1390   44.1530   75.5680 C.3    81  GLU81       0.1733
    143  C         -7.8620   44.4740   76.3180 C.2    81  GLU81       0.2616
    144  O         -7.1470   45.4240   75.9690 O.2    81  GLU81      -0.2715
    145  CB        -8.8260   43.6350   74.1510 C.3    81  GLU81       0.0429
    146  CG        -7.7890   42.5130   74.1020 C.3    81  GLU81       0.1163
    147  CD        -8.1850   41.2850   74.9090 C.2    81  GLU81       0.3649
    148  OE1       -9.3230   40.7830   74.7350 O.co2  81  GLU81      -0.2457
    149  OE2       -7.3390   40.8080   75.7060 O.co2  81  GLU81      -0.2457
    150  N         -7.5640   43.6690   77.3340 N.am   82  ALA82      -0.1963
    151  CA        -6.4530   43.9790   78.2410 C.3    82  ALA82       0.1728
    152  C         -5.1230   43.2920   77.8860 C.2    82  ALA82       0.2616
    153  O         -4.0780   43.7260   78.3600 O.2    82  ALA82      -0.2715
    154  CB        -6.8460   43.6940   79.6900 C.3    82  ALA82       0.0334
    155  N         -5.1590   42.2270   77.0820 N.am   83  SER83      -0.1950
    156  CA        -3.9110   41.5770   76.6210 C.3    83  SER83       0.1924
    157  C         -3.3230   42.3310   75.4230 C.2    83  SER83       0.2314
    158  O         -3.9120   43.3020   74.9340 O.2    83  SER83      -0.2863
    159  CB        -4.1430   40.1210   76.2390 C.3    83  SER83       0.2116
    160  OG        -4.6910   40.0510   74.9270 O.3    83  SER83      -0.2180
    161  N         -6.8160   47.8640   77.6160 N.3   107  GLY107     -0.1210
    162  CA        -6.7960   47.9380   79.0770 C.3   107  GLY107      0.1956
    163  C         -7.8910   47.0870   79.6850 C.2   107  GLY107      0.2612
    164  O         -8.6630   46.4320   78.9680 O.2   107  GLY107     -0.2717
    165  N         -7.9500   47.0960   81.0110 N.am  108  LYS108     -0.1965
    166  CA        -8.9430   46.3160   81.7510 C.3   108  LYS108      0.1728
    167  C        -10.2690   47.0770   81.7930 C.2   108  LYS108      0.2616
    168  O        -10.2820   48.2960   82.0000 O.2   108  LYS108     -0.2715
    169  CB        -8.4120   46.0100   83.1600 C.3   108  LYS108      0.0311
    170  CG        -7.0790   45.2640   83.1200 C.3   108  LYS108      0.0038
    171  CD        -6.5650   44.9320   84.5020 C.3   108  LYS108      0.0206
    172  CE        -5.2950   44.1060   84.4260 C.3   108  LYS108      0.1093
    173  NZ        -4.1750   44.8830   83.8300 N.3   108  LYS108     -0.1314
    174  N        -11.3750   46.3740   81.5710 N.am  109  VAL109     -0.1963
    175  CA       -12.7010   47.0180   81.5590 C.3   109  VAL109      0.1727
    176  C        -13.0090   47.7510   82.8790 C.2   109  VAL109      0.2616
    177  O        -13.8100   48.6950   82.9140 O.2   109  VAL109     -0.2715
    178  CB       -13.8210   46.0040   81.2110 C.3   109  VAL109      0.0290
    179  CG1      -14.0980   45.0590   82.3700 C.3   109  VAL109      0.0023
    180  CG2      -15.0990   46.7190   80.7870 C.3   109  VAL109      0.0023
    181  N        -12.3980   47.2990   83.9700 N.am  110  GLU110     -0.1977
    182  CA       -12.5960   47.9650   85.2480 C.3   110  GLU110      0.1602
    183  C        -11.6200   49.1210   85.4860 C.2   110  GLU110      0.2287
    184  O        -11.6940   49.7920   86.5190 O.2   110  GLU110     -0.2864
    185  CB       -12.6970   46.9670   86.4300 C.3   110  GLU110      0.0415
    186  CG       -11.7530   45.7660   86.4900 C.3   110  GLU110      0.1163
    187  CD       -12.0270   44.6640   85.4580 C.2   110  GLU110      0.3649
    188  OE1      -12.7520   43.6710   85.7510 O.co2 110  GLU110     -0.2457
    189  OE2      -11.4810   44.7810   84.3420 O.co2 110  GLU110     -0.2457
    190  N        -17.7970   37.1220   75.5110 N.3   124  GLU124     -0.1245
    191  CA       -17.6770   35.6880   75.7570 C.3   124  GLU124      0.1567
    192  C        -16.7410   35.5210   76.9600 C.2   124  GLU124      0.2260
    193  O        -15.5210   35.4480   76.7870 O.2   124  GLU124     -0.2867
    194  CB       -17.1920   34.9300   74.5100 C.3   124  GLU124      0.0388
    195  CG       -17.4130   33.4080   74.5630 C.3   124  GLU124      0.1160
    196  CD       -16.2950   32.6880   75.3250 C.2   124  GLU124      0.3649
    197  OE1      -15.3740   32.1500   74.6590 O.co2 124  GLU124     -0.2457
    198  OE2      -16.3310   32.6510   76.5840 O.co2 124  GLU124     -0.2457
    199  N        -11.7640   31.5850   85.7670 N.3   133  GLU133     -0.1245
    200  CA       -11.1880   32.8400   85.2380 C.3   133  GLU133      0.1567
    201  C        -11.7450   34.0830   85.9260 C.2   133  GLU133      0.2260
    202  O        -11.1410   35.1700   85.8560 O.2   133  GLU133     -0.2867
    203  CB       -11.3410   32.9910   83.7150 C.3   133  GLU133      0.0388
    204  CG       -10.6370   31.9460   82.8580 C.3   133  GLU133      0.1160
    205  CD       -10.7360   32.2450   81.3620 C.2   133  GLU133      0.3649
    206  OE1      -10.9320   33.4310   80.9810 O.co2 133  GLU133     -0.2457
    207  OE2      -10.6020   31.2880   80.5660 O.co2 133  GLU133     -0.2457
    208  N        -14.0490   35.8820   84.9310 N.3   135  MET135     -0.1245
    209  CA       -14.3580   36.9390   83.9560 C.3   135  MET135      0.1570
    210  C        -15.8360   37.3260   83.9780 C.2   135  MET135      0.2261
    211  O        -16.1920   38.4150   83.5550 O.2   135  MET135     -0.2867
    212  CB       -13.8930   36.6000   82.5310 C.3   135  MET135      0.0387
    213  CG       -13.8990   37.8240   81.6020 C.3   135  MET135      0.0595
    214  SD       -13.3470   37.4740   79.9150 S.3   135  MET135     -0.1393
    215  CE       -14.2210   38.7200   78.9730 C.3   135  MET135      0.0692
    216  N        -16.0660   40.6480   85.5420 N.3   138  SER138     -0.1217
    217  CA       -15.6780   41.7720   84.6720 C.3   138  SER138      0.1889
    218  C        -16.8710   42.1660   83.8030 C.2   138  SER138      0.2288
    219  O        -17.1310   43.3510   83.6040 O.2   138  SER138     -0.2866
    220  CB       -14.4750   41.4020   83.8000 C.3   138  SER138      0.2089
    221  OG       -13.3090   41.1910   84.6040 O.3   138  SER138     -0.2183
@<TRIPOS>BOND
     1   125   123    1
     2    71    70    1
     3   123   122    1
     4   121   120    2
     5    67    66    2
     6    70    69    1
     7    68    69    1
     8    68    65    1
     9    66    65    1
    10   119   122    1
    11   119   120    1
    12   119   118    1
    13   122   124    1
    14   115   114    2
    15   120   126   am
    16    65    64    1
    17   116   117    1
    18   116   113    1
    19   129   128    2
    20   114   113    1
    21   126   127    1
    22   128   127    1
    23   113   112    1
    24   127   130    1
    25    64    58   am
    26    50    49    2
    27    49    48    1
    28    74    75    2
    29    74    73    1
    30    59    58    2
    31    72    73    1
    32    58    57    1
    33   112   110   am
    34    51    48    1
    35    51    52    1
    36   133   131    1
    37   130   131    1
    38    82    80    1
    39    73    76    1
    40    48    47    1
    41    56    57    1
    42   111   110    2
    43   110   109    1
    44   131   132    1
    45    57    60    1
    46    52    53    1
    47    76    77    1
    48    79    80    2
    49    79    78    1
    50   105   104    2
    51    80    81    1
    52    89    88   ar
    53    54    53    2
    54    60    61    1
    55   107   106    1
    56    77    78    1
    57    53    55   am
    58   106   103    1
    59   109   108    1
    60   104   108   am
    61   104   103    1
    62    88    87    1
    63    88    90   ar
    64    87    84    1
    65   103   102    1
    66    61    62    1
    67    63    62    1
    68    38    37    2
    69    84    83    1
    70    84    85    1
    71   102   100   am
    72   146   145    1
    73   146   147    1
    74   145   142    1
    75   134   135    1
    76   194   195    1
    77   194   191    1
    78   101   100    2
    79   195   196    1
    80   197   196   ar
    81    37    36    1
    82   148   147   ar
    83    86    85    2
    84   100    99    1
    85    85    91   am
    86   147   149   ar
    87   160   159    1
    88   158   157    2
    89   135   136    1
    90   135   138    1
    91   196   198   ar
    92   137   136    2
    93   136   141   am
    94   157   156    1
    95   190   191    1
    96   141   142    1
    97   142   143    1
    98    36    39    1
    99    36    35    1
   100   191   192    1
   101    91    92    1
   102    41    43   ar
   103    41    40   ar
   104   144   143    2
   105   159   156    1
   106    99    98    1
   107   143   150   am
   108    39    40    1
   109    43    45   ar
   110    98    93   am
   111   156   155    1
   112   140   138    1
   113   138   139    1
   114    94    93    2
   115    93    92    1
   116   193   192    2
   117    40    42   ar
   118    92    95    1
   119   155   152   am
   120   150   151    1
   121   161   162    1
   122    27    26    2
   123    45    46    1
   124    45    44   ar
   125   152   151    1
   126   152   153    2
   127    42    44   ar
   128   151   154    1
   129    95    97    1
   130    95    96    1
   131    26    25    1
   132   164   163    2
   133   215   214    1
   134   162   163    1
   135   163   165   am
   136    25    28    1
   137    25    24    1
   138   214   213    1
   139    15    14    2
   140    31    33   ar
   141    31    29   ar
   142    28    29    1
   143   207   205   ar
   144   180   178    1
   145    33    34   ar
   146    29    30   ar
   147   206   205   ar
   148   165   166    1
   149    14    24   am
   150    14    13    1
   151    23    22    1
   152   178   175    1
   153   178   179    1
   154   205   204    1
   155   175   174    1
   156   175   176    1
   157   174   167   am
   158   213   212    1
   159    20    22   ar
   160    20    18   ar
   161    22    21   ar
   162   166   167    1
   163   166   169    1
   164   167   168    2
   165    34    32   ar
   166    18    17   ar
   167    21    19   ar
   168    30    32   ar
   169    13    12    1
   170    13    16    1
   171   212   209    1
   172    17    19   ar
   173    17    16    1
   174   204   203    1
   175   176   177    2
   176   176   181   am
   177   170   169    1
   178   170   171    1
   179   211   210    2
   180   219   218    2
   181   203   200    1
   182   220   221    1
   183   220   217    1
   184   218   217    1
   185   173   172    1
   186   209   210    1
   187   209   208    1
   188   181   182    1
   189   189   187   ar
   190   172   171    1
   191   217   216    1
   192   200   199    1
   193   200   201    1
   194   182   183    1
   195   182   185    1
   196   187   188   ar
   197   187   186    1
   198   183   184    2
   199   202   201    2
   200    10    11   ar
   201    10     8   ar
   202    11     9   ar
   203   185   186    1
   204     8     6   ar
   205     9     7   ar
   206     6     7   ar
   207     6     5    1
   208     5     2    1
   209     2     1    1
   210     2     3    1
   211     3     4    2
