@<TRIPOS>MOLECULE
tmp/6aryB00.pdb
 153 151 0 0 0
SMALL
GASTEIGER

@<TRIPOS>ATOM
      1  N        -80.2530   53.5750   -2.0970 N.3    83  TRP83      -0.1241
      2  CA       -81.5610   53.8120   -2.7180 C.3    83  TRP83       0.1605
      3  C        -82.7110   53.8430   -1.7160 C.2    83  TRP83       0.2264
      4  O        -83.8680   54.0260   -2.1180 O.2    83  TRP83      -0.2867
      5  CB       -81.8720   52.7320   -3.7760 C.3    83  TRP83       0.0550
      6  CG       -80.7870   52.5860   -4.7950 C.ar   83  TRP83       0.0003
      7  CD1      -80.0240   51.4860   -5.0170 C.ar   83  TRP83       0.0946
      8  CD2      -80.3250   53.5900   -5.7190 C.ar   83  TRP83       0.0152
      9  NE1      -79.1260   51.7270   -6.0350 N.ar   83  TRP83      -0.2442
     10  CE2      -79.2810   53.0170   -6.4700 C.ar   83  TRP83       0.0810
     11  CE3      -80.6950   54.9140   -5.9800 C.ar   83  TRP83       0.0012
     12  CZ2      -78.6040   53.7170   -7.4650 C.ar   83  TRP83       0.0191
     13  CZ3      -80.0070   55.6150   -6.9540 C.ar   83  TRP83       0.0001
     14  CH2      -78.9750   55.0100   -7.6870 C.ar   83  TRP83       0.0015
     15  N        -86.3140   57.9190  -10.1980 N.3   116  GLY116     -0.1210
     16  CA       -86.9000   56.6160  -10.4270 C.3   116  GLY116      0.1956
     17  C        -86.9990   55.7820   -9.1540 C.2   116  GLY116      0.2612
     18  O        -86.7970   56.2610   -8.0330 O.2   116  GLY116     -0.2717
     19  N        -87.3320   54.5000   -9.3500 N.am  117  GLY117     -0.1942
     20  CA       -87.6160   53.5640   -8.2690 C.3   117  GLY117      0.2014
     21  C        -88.8430   52.6970   -8.5360 C.2   117  GLY117      0.2639
     22  O        -89.5840   52.3280   -7.6120 O.2   117  GLY117     -0.2714
     23  N        -89.1060   52.4130   -9.8140 N.am  118  SER118     -0.1949
     24  CA       -90.1470   51.4730  -10.2310 C.3   118  SER118      0.1924
     25  C        -91.5500   51.9470   -9.8620 C.2   118  SER118      0.2314
     26  O        -92.4650   51.1300   -9.7190 O.2   118  SER118     -0.2863
     27  CB       -89.8920   50.0780   -9.6430 C.3   118  SER118      0.2116
     28  OG       -88.5170   49.7330   -9.7310 O.3   118  SER118     -0.2180
     29  N        -88.3720   55.5950   -3.9350 N.3   122  GLY122     -0.1225
     30  CA       -87.5350   56.6910   -4.3950 C.3   122  GLY122      0.1811
     31  C        -87.8050   57.9930   -3.6740 C.2   122  GLY122      0.2280
     32  O        -88.8430   58.1390   -3.0230 O.2   122  GLY122     -0.2866
     33  N        -82.1420   61.6950   -1.8140 N.3   126  LEU126     -0.1245
     34  CA       -81.0180   60.7670   -1.7450 C.3   126  LEU126      0.1561
     35  C        -79.6880   61.4880   -1.9280 C.2   126  LEU126      0.2260
     36  O        -79.5500   62.3560   -2.7960 O.2   126  LEU126     -0.2867
     37  CB       -81.1590   59.6990   -2.8300 C.3   126  LEU126      0.0270
     38  CG       -82.3020   58.7000   -2.7380 C.3   126  LEU126      0.0019
     39  CD1      -82.1380   57.7340   -3.8870 C.3   126  LEU126      0.0001
     40  CD2      -82.2610   57.9740   -1.3730 C.3   126  LEU126      0.0001
     41  N        -78.2260   61.9080   -5.3880 N.3   129  TYR129     -0.1241
     42  CA       -78.7920   62.9720   -6.2090 C.3   129  TYR129      0.1605
     43  C        -78.3980   64.3630   -5.7360 C.2   129  TYR129      0.2264
     44  O        -79.0390   65.3300   -6.1410 O.2   129  TYR129     -0.2867
     45  CB       -80.3250   62.9250   -6.2140 C.3   129  TYR129      0.0534
     46  CG       -80.9710   61.6370   -6.6580 C.ar  129  TYR129     -0.0201
     47  CD1      -80.3990   60.8320   -7.6350 C.ar  129  TYR129     -0.0009
     48  CD2      -82.1660   61.2280   -6.0760 C.ar  129  TYR129     -0.0009
     49  CE1      -81.0070   59.6530   -8.0000 C.ar  129  TYR129      0.0417
     50  CE2      -82.7780   60.0690   -6.4520 C.ar  129  TYR129      0.0417
     51  CZ       -82.2060   59.2880   -7.4120 C.ar  129  TYR129      0.1957
     52  OH       -82.8480   58.1320   -7.7730 O.3   129  TYR129     -0.2866
     53  N        -84.3050   59.0920  -14.5340 N.3   197  GLU197     -0.1231
     54  CA       -83.7370   57.7780  -14.7670 C.3   197  GLU197      0.1699
     55  C        -84.7880   56.7530  -14.3880 C.2   197  GLU197      0.2593
     56  O        -85.5350   56.9700  -13.4340 O.2   197  GLU197     -0.2718
     57  CB       -82.4400   57.6010  -13.9720 C.3   197  GLU197      0.0402
     58  CG       -81.6780   56.3330  -14.2240 C.3   197  GLU197      0.1161
     59  CD       -82.1380   55.1890  -13.3050 C.2   197  GLU197      0.3649
     60  OE1      -82.9000   55.4480  -12.3470 O.co2 197  GLU197     -0.2457
     61  OE2      -81.7330   54.0270  -13.5380 O.co2 197  GLU197     -0.2457
     62  N        -84.9100   55.6900  -15.1950 N.am  198  SER198     -0.1938
     63  CA       -85.7900   54.5590  -14.9040 C.3   198  SER198      0.2055
     64  C        -87.2590   54.9770  -14.9190 C.2   198  SER198      0.2642
     65  O        -87.7350   55.5050  -15.9290 O.2   198  SER198     -0.2714
     66  CB       -85.4110   53.9370  -13.5680 C.3   198  SER198      0.2130
     67  OG       -85.7340   52.5490  -13.4440 O.3   198  SER198     -0.2179
     68  N        -87.9940   54.7420  -13.8180 N.am  199  ALA199     -0.1977
     69  CA       -89.3700   55.2320  -13.7540 C.3   199  ALA199      0.1597
     70  C        -89.4260   56.7640  -13.8360 C.2   199  ALA199      0.2287
     71  O        -90.4240   57.3250  -14.3070 O.2   199  ALA199     -0.2864
     72  CB       -90.0540   54.7400  -12.4670 C.3   199  ALA199      0.0319
     73  N        -93.3460   47.3320  -18.3810 N.3   231  TRP231     -0.1241
     74  CA       -93.7020   47.6830  -17.0130 C.3   231  TRP231      0.1605
     75  C        -94.1710   49.1240  -16.8590 C.2   231  TRP231      0.2264
     76  O        -94.6050   49.4960  -15.7630 O.2   231  TRP231     -0.2867
     77  CB       -92.4980   47.4650  -16.1000 C.3   231  TRP231      0.0550
     78  CG       -91.2460   48.1210  -16.6490 C.ar  231  TRP231      0.0003
     79  CD1      -90.3270   47.5630  -17.5180 C.ar  231  TRP231      0.0946
     80  CD2      -90.7670   49.4450  -16.3570 C.ar  231  TRP231      0.0152
     81  NE1      -89.3100   48.4710  -17.7840 N.ar  231  TRP231     -0.2442
     82  CE2      -89.5620   49.6310  -17.0910 C.ar  231  TRP231      0.0810
     83  CE3      -91.2500   50.4980  -15.5690 C.ar  231  TRP231      0.0012
     84  CZ2      -88.8420   50.8220  -17.0550 C.ar  231  TRP231      0.0191
     85  CZ3      -90.5230   51.6800  -15.5210 C.ar  231  TRP231      0.0001
     86  CH2      -89.3250   51.8280  -16.2530 C.ar  231  TRP231      0.0015
     87  N        -94.3720   45.8730  -11.9120 N.3   287  PHE287     -0.1241
     88  CA       -94.5890   46.6400  -10.7020 C.3   287  PHE287      0.1605
     89  C        -96.0720   46.9010  -10.5020 C.2   287  PHE287      0.2264
     90  O        -96.7620   47.2680  -11.4590 O.2   287  PHE287     -0.2867
     91  CB       -93.8190   47.9440  -10.7850 C.3   287  PHE287      0.0534
     92  CG       -92.4120   47.7700  -11.2750 C.ar  287  PHE287     -0.0203
     93  CD1      -91.5890   46.7990  -10.7300 C.ar  287  PHE287     -0.0042
     94  CD2      -91.9120   48.5760  -12.2890 C.ar  287  PHE287     -0.0042
     95  CE1      -90.2820   46.6320  -11.1760 C.ar  287  PHE287     -0.0003
     96  CE2      -90.6130   48.4210  -12.7350 C.ar  287  PHE287     -0.0003
     97  CZ       -89.7920   47.4390  -12.1750 C.ar  287  PHE287     -0.0000
     98  N        -79.4410   43.7850  -11.9910 N.3   327  TYR327     -0.1227
     99  CA       -80.0540   44.3280  -10.7880 C.3   327  TYR327      0.1736
    100  C        -81.3890   43.6480  -10.4930 C.2   327  TYR327      0.2595
    101  O        -81.6460   43.2040   -9.3650 O.2   327  TYR327     -0.2718
    102  CB       -80.2380   45.8460  -10.9240 C.3   327  TYR327      0.0548
    103  CG       -80.8700   46.4930   -9.6920 C.ar  327  TYR327     -0.0200
    104  CD1      -80.0940   46.8880   -8.6020 C.ar  327  TYR327     -0.0009
    105  CD2      -82.2450   46.6740   -9.6100 C.ar  327  TYR327     -0.0009
    106  CE1      -80.6710   47.4730   -7.4610 C.ar  327  TYR327      0.0417
    107  CE2      -82.8310   47.2370   -8.4840 C.ar  327  TYR327      0.0417
    108  CZ       -82.0410   47.6330   -7.4140 C.ar  327  TYR327      0.1957
    109  OH       -82.6390   48.2010   -6.3220 O.3   327  TYR327     -0.2866
    110  N        -82.2350   43.5130  -11.5000 N.am  328  PHE328     -0.1976
    111  CA       -83.5560   42.9640  -11.2320 C.3   328  PHE328      0.1639
    112  C        -83.5310   41.4540  -11.0440 C.2   328  PHE328      0.2290
    113  O        -84.3360   40.9300  -10.2610 O.2   328  PHE328     -0.2864
    114  CB       -84.5220   43.3760  -12.3540 C.3   328  PHE328      0.0560
    115  CG       -84.6130   44.8720  -12.5210 C.ar  328  PHE328     -0.0200
    116  CD1      -83.7670   45.5390  -13.4070 C.ar  328  PHE328     -0.0042
    117  CD2      -85.4800   45.6250  -11.7150 C.ar  328  PHE328     -0.0042
    118  CE1      -83.8030   46.9170  -13.5220 C.ar  328  PHE328     -0.0003
    119  CE2      -85.5360   47.0160  -11.8250 C.ar  328  PHE328     -0.0003
    120  CZ       -84.6950   47.6660  -12.7290 C.ar  328  PHE328     -0.0000
    121  N        -85.6210   47.0880  -21.0230 N.3   398  PHE398     -0.1241
    122  CA       -85.0200   48.4140  -21.0180 C.3   398  PHE398      0.1605
    123  C        -84.5190   48.8700  -22.3910 C.2   398  PHE398      0.2264
    124  O        -85.1360   49.7380  -23.0110 O.2   398  PHE398     -0.2867
    125  CB       -83.9200   48.4650  -19.9620 C.3   398  PHE398      0.0534
    126  CG       -84.4690   48.3230  -18.5750 C.ar  398  PHE398     -0.0203
    127  CD1      -84.9970   49.4270  -17.9140 C.ar  398  PHE398     -0.0042
    128  CD2      -84.5580   47.0740  -17.9690 C.ar  398  PHE398     -0.0042
    129  CE1      -85.5610   49.3080  -16.6470 C.ar  398  PHE398     -0.0003
    130  CE2      -85.1320   46.9400  -16.6880 C.ar  398  PHE398     -0.0003
    131  CZ       -85.6320   48.0590  -16.0400 C.ar  398  PHE398     -0.0000
    132  N        -78.0090   48.9070  -14.2290 N.3   438  HIS438     -0.1226
    133  CA       -79.0420   49.9290  -14.1540 C.3   438  HIS438      0.1752
    134  C        -78.7570   50.9170  -13.0260 C.2   438  HIS438      0.2596
    135  O        -78.5260   50.5190  -11.8810 O.2   438  HIS438     -0.2718
    136  CB       -80.3800   49.2240  -13.9360 C.3   438  HIS438      0.0759
    137  CG       -81.5820   50.0720  -14.1980 C.ar  438  HIS438      0.0818
    138  ND1      -81.8490   50.6200  -15.4320 N.ar  438  HIS438     -0.2268
    139  CD2      -82.6270   50.4080  -13.4020 C.ar  438  HIS438      0.1154
    140  CE1      -82.9950   51.2750  -15.3830 C.ar  438  HIS438      0.1986
    141  NE2      -83.4890   51.1610  -14.1620 N.ar  438  HIS438     -0.2212
    142  N        -78.6970   52.2090  -13.3700 N.am  439  GLY439     -0.1957
    143  CA       -78.4870   53.2800  -12.4150 C.3   439  GLY439      0.1869
    144  C        -77.0520   53.7370  -12.2330 C.2   439  GLY439      0.2309
    145  O        -76.8290   54.7890  -11.6240 O.2   439  GLY439     -0.2863
    146  N        -75.8070   57.4980  -12.6650 N.3   442  ILE442     -0.1245
    147  CA       -76.3480   58.5970  -11.8750 C.3   442  ILE442      0.1561
    148  C        -75.2520   59.2890  -11.0550 C.2   442  ILE442      0.2260
    149  O        -75.2120   60.5240  -10.9670 O.2   442  ILE442     -0.2867
    150  CB       -77.4850   58.0690  -10.9890 C.3   442  ILE442      0.0252
    151  CG1      -78.6870   57.6540  -11.8490 C.3   442  ILE442      0.0019
    152  CG2      -77.8460   59.0860   -9.9400 C.3   442  ILE442      0.0019
    153  CD1      -79.7760   56.8320  -11.0510 C.3   442  ILE442      0.0001
@<TRIPOS>BOND
     1   124   123    2
     2   123   122    1
     3   121   122    1
     4   122   125    1
     5   125   126    1
     6   126   128   ar
     7   126   127   ar
     8    73    74    1
     9   128   130   ar
    10   127   129   ar
    11    81    79   ar
    12    81    82   ar
    13    79    78   ar
    14    82    84   ar
    15    82    80   ar
    16    84    86   ar
    17    74    75    1
    18    74    77    1
    19    75    76    2
    20   130   131   ar
    21    78    80   ar
    22    78    77    1
    23   129   131   ar
    24    80    83   ar
    25    86    85   ar
    26    65    64    2
    27    83    85   ar
    28   138   140   ar
    29   138   137   ar
    30   140   141   ar
    31    62    63    1
    32    62    55   am
    33    64    63    1
    34    64    68   am
    35    63    66    1
    36    54    53    1
    37    54    55    1
    38    54    57    1
    39    55    56    2
    40    71    70    2
    41   132   133    1
    42    58    57    1
    43    58    59    1
    44   137   136    1
    45   137   139   ar
    46   141   139   ar
    47   133   136    1
    48   133   134    1
    49    70    69    1
    50    68    69    1
    51    69    72    1
    52    66    67    1
    53    61    59   ar
    54   118   116   ar
    55   118   120   ar
    56   116   115   ar
    57   142   134   am
    58   142   143    1
    59    59    60   ar
    60   134   135    2
    61    96    94   ar
    62    96    97   ar
    63   120   119   ar
    64   146   147    1
    65   115   114    1
    66   115   117   ar
    67   143   144    1
    68   114   111    1
    69    94    92   ar
    70   144   145    2
    71    97    95   ar
    72    98    99    1
    73    87    88    1
    74   147   148    1
    75   147   150    1
    76   151   153    1
    77   151   150    1
    78   119   117   ar
    79   110   111    1
    80   110   100   am
    81    90    89    2
    82    92    91    1
    83    92    93   ar
    84   111   112    1
    85    95    93   ar
    86   148   149    2
    87   112   113    2
    88   150   152    1
    89   102    99    1
    90   102   103    1
    91    99   100    1
    92    91    88    1
    93    88    89    1
    94   100   101    2
    95    16    15    1
    96    16    17    1
    97    24    25    1
    98    24    23    1
    99    24    27    1
   100    25    26    2
   101    23    21   am
   102    28    27    1
   103   103   105   ar
   104   103   104   ar
   105   105   107   ar
   106    19    17   am
   107    19    20    1
   108    17    18    2
   109   104   106   ar
   110    21    20    1
   111    21    22    2
   112   107   108   ar
   113    49    47   ar
   114    49    51   ar
   115    52    51    1
   116    14    12   ar
   117    14    13   ar
   118    47    46   ar
   119    12    10   ar
   120   106   108   ar
   121   108   109    1
   122    51    50   ar
   123    13    11   ar
   124    46    45    1
   125    46    48   ar
   126    10     9   ar
   127    10     8   ar
   128    50    48   ar
   129    45    42    1
   130    42    43    1
   131    42    41    1
   132    44    43    2
   133     9     7   ar
   134    11     8   ar
   135     8     6   ar
   136     7     6   ar
   137     6     5    1
   138    30    29    1
   139    30    31    1
   140    39    38    1
   141     5     2    1
   142    31    32    2
   143    37    38    1
   144    37    34    1
   145    36    35    2
   146    38    40    1
   147     2     1    1
   148     2     3    1
   149     4     3    2
   150    35    34    1
   151    33    34    1
