@<TRIPOS>MOLECULE
tmp/6arzA00.pdb
 90 87 0 0 0
SMALL
GASTEIGER

@<TRIPOS>ATOM
      1  N         26.2000   31.0470   24.2180 N.3    38  GLN38      -0.1231
      2  CA        27.1390   31.9280   24.9000 C.3    38  GLN38       0.1698
      3  C         26.5490   33.3010   25.1350 C.2    38  GLN38       0.2592
      4  O         26.7090   33.8730   26.2090 O.2    38  GLN38      -0.2718
      5  CB        28.4360   32.0410   24.1050 C.3    38  GLN38       0.0381
      6  CG        29.2440   30.7540   24.1380 C.3    38  GLN38       0.0905
      7  CD        30.6940   30.9580   23.7930 C.2    38  GLN38       0.2608
      8  OE1       31.1720   32.0910   23.7250 O.2    38  GLN38      -0.2717
      9  NE2       31.4100   29.8630   23.5700 N.am   38  GLN38      -0.0878
     10  N         25.8140   33.7940   24.1510 N.am   39  ALA39      -0.1966
     11  CA        25.1400   35.0770   24.2630 C.3    39  ALA39       0.1728
     12  C         24.0930   35.0580   25.3720 C.2    39  ALA39       0.2616
     13  O         23.9560   36.0120   26.1380 O.2    39  ALA39      -0.2715
     14  CB        24.4940   35.4460   22.9380 C.3    39  ALA39       0.0334
     15  N         23.3720   33.9510   25.4710 N.am   40  GLU40      -0.1977
     16  CA        22.3160   33.8440   26.4630 C.3    40  GLU40       0.1602
     17  C         22.8770   33.6870   27.8720 C.2    40  GLU40       0.2287
     18  O         22.2730   34.1550   28.8180 O.2    40  GLU40      -0.2864
     19  CB        21.3680   32.7060   26.0940 C.3    40  GLU40       0.0415
     20  CG        20.5380   33.0920   24.9090 C.3    40  GLU40       0.1163
     21  CD        19.4490   32.1140   24.5410 C.2    40  GLU40       0.3649
     22  OE1       19.5570   30.9070   24.8620 O.co2  40  GLU40      -0.2457
     23  OE2       18.4470   32.5780   23.9510 O.co2  40  GLU40      -0.2457
     24  N         25.8260   35.1310   28.8800 N.3    42  LEU42      -0.1231
     25  CA        26.2800   36.4590   29.2780 C.3    42  LEU42       0.1693
     26  C         25.0910   37.3620   29.5970 C.2    42  LEU42       0.2593
     27  O         25.1300   38.1140   30.5450 O.2    42  LEU42      -0.2718
     28  CB        27.1290   37.0890   28.1790 C.3    42  LEU42       0.0284
     29  CG        27.8710   38.3730   28.5420 C.3    42  LEU42       0.0019
     30  CD1       29.1310   38.5200   27.7250 C.3    42  LEU42       0.0001
     31  CD2       27.0060   39.5880   28.3340 C.3    42  LEU42       0.0001
     32  N         24.0410   37.2700   28.7880 N.am   43  SER43      -0.1938
     33  CA        22.8180   38.0440   28.9720 C.3    43  SER43       0.2055
     34  C         22.1660   37.7910   30.3460 C.2    43  SER43       0.2643
     35  O         21.6740   38.7240   30.9820 O.2    43  SER43      -0.2714
     36  CB        21.8250   37.7270   27.8490 C.3    43  SER43       0.2130
     37  OG        20.5980   38.3940   28.0340 O.3    43  SER43      -0.2179
     38  N         22.1300   36.5280   30.7730 N.am   44  ASP44      -0.1971
     39  CA        21.6260   36.1870   32.0930 C.3    44  ASP44       0.1709
     40  C         22.5030   36.8150   33.2000 C.2    44  ASP44       0.2293
     41  O         21.9810   37.3800   34.1580 O.2    44  ASP44      -0.2864
     42  CB        21.5450   34.6640   32.2720 C.3    44  ASP44       0.1436
     43  CG        20.3110   34.0490   31.5930 C.2    44  ASP44       0.3671
     44  OD1       19.2870   34.7770   31.4310 O.co2  44  ASP44      -0.2456
     45  OD2       20.3700   32.8430   31.2060 O.co2  44  ASP44      -0.2456
     46  N         17.5560   42.7160   25.9950 N.3    71  ARG71      -0.1245
     47  CA        17.1010   41.3880   26.2310 C.3    71  ARG71       0.1563
     48  C         15.7680   41.1660   25.6200 C.2    71  ARG71       0.2260
     49  O         15.5010   40.1310   25.1260 O.2    71  ARG71      -0.2867
     50  CB        17.0670   41.0840   27.7140 C.3    71  ARG71       0.0307
     51  CG        18.4300   40.8920   28.2970 C.3    71  ARG71       0.0489
     52  CD        18.3780   40.7220   29.7800 C.3    71  ARG71       0.2205
     53  NE        18.4940   39.3280   30.0840 N.pl3  71  ARG71      -0.0865
     54  CZ        17.5830   38.6590   30.7330 C.cat  71  ARG71       0.5346
     55  NH1       16.5170   39.2590   31.1340 N.pl3  71  ARG71       0.1354
     56  NH2       17.7430   37.4070   30.9660 N.pl3  71  ARG71       0.1354
     57  N         16.3050   40.6960   22.0010 N.3    74  TRP74      -0.1227
     58  CA        16.8970   39.3770   21.7460 C.3    74  TRP74       0.1737
     59  C         15.8230   38.2970   21.6300 C.2    74  TRP74       0.2595
     60  O         15.8440   37.4760   20.7100 O.2    74  TRP74      -0.2718
     61  CB        17.9050   39.0090   22.8460 C.3    74  TRP74       0.0564
     62  CG        18.4850   37.6180   22.6980 C.ar   74  TRP74       0.0003
     63  CD1       18.0040   36.4680   23.2700 C.ar   74  TRP74       0.0946
     64  CD2       19.6440   37.2210   21.9430 C.ar   74  TRP74       0.0152
     65  NE1       18.7760   35.3970   22.9100 N.ar   74  TRP74      -0.2442
     66  CE2       19.7920   35.8300   22.1010 C.ar   74  TRP74       0.0810
     67  CE3       20.5700   37.9050   21.1530 C.ar   74  TRP74       0.0012
     68  CZ2       20.8250   35.1110   21.4960 C.ar   74  TRP74       0.0191
     69  CZ3       21.5930   37.1810   20.5430 C.ar   74  TRP74       0.0001
     70  CH2       21.7060   35.8060   20.7190 C.ar   74  TRP74       0.0015
     71  N         14.8730   38.3270   22.5600 N.am   75  VAL75      -0.1980
     72  CA        13.7830   37.3590   22.6040 C.3    75  VAL75       0.1595
     73  C         12.9030   37.4530   21.3420 C.2    75  VAL75       0.2287
     74  O         12.3320   36.4610   20.9040 O.2    75  VAL75      -0.2864
     75  CB        12.9390   37.5450   23.8810 C.3    75  VAL75       0.0276
     76  CG1       11.7260   36.6820   23.8420 C.3    75  VAL75       0.0022
     77  CG2       13.7640   37.1990   25.1140 C.3    75  VAL75       0.0022
     78  N         13.6640   34.0270   20.6720 N.3    79  GLY79      -0.1210
     79  CA        12.7550   33.3590   21.5740 C.3    79  GLY79       0.1956
     80  C         13.3670   33.1940   22.9570 C.2    79  GLY79       0.2611
     81  O         14.2520   33.9560   23.3450 O.2    79  GLY79      -0.2717
     82  N         12.8960   32.1890   23.6950 N.am   80  GLU80      -0.1979
     83  CA        13.3300   31.9630   25.0590 C.3    80  GLU80       0.1602
     84  C         13.0730   30.5070   25.4290 C.2    80  GLU80       0.2287
     85  O         11.9970   29.9730   25.1840 O.2    80  GLU80      -0.2864
     86  CB        12.6090   32.9180   26.0190 C.3    80  GLU80       0.0415
     87  CG        12.8740   32.6680   27.4870 C.3    80  GLU80       0.1163
     88  CD        12.0070   33.5280   28.4010 C.2    80  GLU80       0.3649
     89  OE1       12.1040   34.7700   28.2980 O.co2  80  GLU80      -0.2457
     90  OE2       11.2330   32.9790   29.2260 O.co2  80  GLU80      -0.2457
@<TRIPOS>BOND
     1    69    70   ar
     2    69    67   ar
     3    78    79    1
     4    60    59    2
     5    70    68   ar
     6    74    73    2
     7    67    64   ar
     8    73    72    1
     9    68    66   ar
    10    79    80    1
    11    59    58    1
    12    59    71   am
    13    58    57    1
    14    58    61    1
    15    64    66   ar
    16    64    62   ar
    17    66    65   ar
    18    71    72    1
    19    72    75    1
    20    62    61    1
    21    62    63   ar
    22    65    63   ar
    23    14    11    1
    24    80    81    2
    25    80    82   am
    26     9     7   am
    27    82    83    1
    28     8     7    2
    29     7     6    1
    30    76    75    1
    31    75    77    1
    32    23    21   ar
    33     5     6    1
    34     5     2    1
    35    10    11    1
    36    10     3   am
    37     1     2    1
    38    11    12    1
    39    21    22   ar
    40    21    20    1
    41     2     3    1
    42    20    19    1
    43    83    84    1
    44    83    86    1
    45    49    48    2
    46     3     4    2
    47    85    84    2
    48    12    15   am
    49    12    13    2
    50    15    16    1
    51    48    47    1
    52    46    47    1
    53    86    87    1
    54    19    16    1
    55    47    50    1
    56    16    17    1
    57    87    88    1
    58    50    51    1
    59    30    29    1
    60    36    37    1
    61    36    33    1
    62    17    18    2
    63    28    29    1
    64    28    25    1
    65    51    52    1
    66    89    88   ar
    67    31    29    1
    68    88    90   ar
    69    32    33    1
    70    32    26   am
    71    24    25    1
    72    33    34    1
    73    25    26    1
    74    26    27    2
    75    52    53    1
    76    53    54    2
    77    34    38   am
    78    34    35    2
    79    54    56    1
    80    54    55    1
    81    38    39    1
    82    45    43   ar
    83    44    43   ar
    84    43    42    1
    85    39    42    1
    86    39    40    1
    87    40    41    2
