@<TRIPOS>MOLECULE
tmp/6as5C02.pdb
 96 88 0 0 0
SMALL
GASTEIGER

@<TRIPOS>ATOM
      1  N          1.4050   37.2250   25.3610 N.3    10  PHE10      -0.1241
      2  CA         0.2550   37.7500   24.6440 C.3    10  PHE10       0.1605
      3  C         -0.1460   39.1020   25.2030 C.2    10  PHE10       0.2264
      4  O         -0.0490   39.3480   26.4060 O.2    10  PHE10      -0.2867
      5  CB        -0.9370   36.8310   24.8310 C.3    10  PHE10       0.0534
      6  CG        -1.0370   35.7510   23.8180 C.ar   10  PHE10      -0.0203
      7  CD1       -1.2350   36.0530   22.4900 C.ar   10  PHE10      -0.0042
      8  CD2       -0.9780   34.4210   24.1980 C.ar   10  PHE10      -0.0042
      9  CE1       -1.3580   35.0340   21.5430 C.ar   10  PHE10      -0.0003
     10  CE2       -1.0930   33.4070   23.2580 C.ar   10  PHE10      -0.0003
     11  CZ        -1.2850   33.7190   21.9360 C.ar   10  PHE10      -0.0000
     12  N         -8.8080   35.6910   19.5450 N.3    35  ASP35      -0.1239
     13  CA        -9.7590   35.4670   20.6520 C.3    35  ASP35       0.1674
     14  C         -9.7020   36.4990   21.7860 C.2    35  ASP35       0.2266
     15  O        -10.7320   36.8180   22.3770 O.2    35  ASP35      -0.2867
     16  CB        -9.7000   34.0330   21.1930 C.3    35  ASP35       0.1410
     17  CG       -10.3890   33.0250   20.2700 C.2    35  ASP35       0.3668
     18  OD1      -11.0170   33.4620   19.2760 O.co2  35  ASP35      -0.2456
     19  OD2      -10.3130   31.8000   20.5410 O.co2  35  ASP35      -0.2456
     20  N         -0.7840   37.5360   16.1950 N.3    62  ARG62      -0.1245
     21  CA        -1.7510   36.4770   15.9720 C.3    62  ARG62       0.1563
     22  C         -2.9510   37.0390   15.2240 C.2    62  ARG62       0.2260
     23  O         -3.7150   37.8570   15.7480 O.2    62  ARG62      -0.2867
     24  CB        -2.2100   35.8140   17.2620 C.3    62  ARG62       0.0307
     25  CG        -3.1940   34.6760   16.9800 C.3    62  ARG62       0.0489
     26  CD        -3.4050   33.7970   18.2010 C.3    62  ARG62       0.2205
     27  NE        -4.3010   34.4180   19.1630 N.pl3  62  ARG62      -0.0865
     28  CZ        -4.8800   33.7620   20.1640 C.cat  62  ARG62       0.5346
     29  NH1       -4.6460   32.4640   20.3320 N.pl3  62  ARG62       0.1354
     30  NH2       -5.6860   34.4070   21.0010 N.pl3  62  ARG62       0.1354
     31  N         -0.5870   27.6380   15.4170 N.3   108  LEU108     -0.1245
     32  CA        -1.2220   27.2570   16.6660 C.3   108  LEU108      0.1561
     33  C         -2.2310   26.1540   16.3580 C.2   108  LEU108      0.2260
     34  O         -3.2970   26.4160   15.8020 O.2   108  LEU108     -0.2867
     35  CB        -1.9000   28.4530   17.3490 C.3   108  LEU108      0.0270
     36  CG        -2.8820   28.2160   18.5160 C.3   108  LEU108      0.0019
     37  CD1       -2.2380   27.5590   19.7370 C.3   108  LEU108      0.0001
     38  CD2       -3.5480   29.5260   18.9070 C.3   108  LEU108      0.0001
     39  N         -4.8910   23.7270   17.5680 N.3   110  GLU110     -0.1245
     40  CA        -5.7600   23.7660   18.7160 C.3   110  GLU110      0.1567
     41  C         -7.0980   23.1960   18.3260 C.2   110  GLU110      0.2260
     42  O         -8.1220   23.5520   18.8990 O.2   110  GLU110     -0.2867
     43  CB        -5.8860   25.2050   19.2230 C.3   110  GLU110      0.0388
     44  CG        -6.1230   26.2060   18.1040 C.3   110  GLU110      0.1160
     45  CD        -6.2700   27.6260   18.6080 C.2   110  GLU110      0.3649
     46  OE1       -6.2980   27.8220   19.8420 O.co2 110  GLU110     -0.2457
     47  OE2       -6.3580   28.5420   17.7670 O.co2 110  GLU110     -0.2457
     48  N          2.7240   25.8640   18.0820 N.3   131  MET131     -0.1245
     49  CA         2.2530   26.0340   19.4470 C.3   131  MET131      0.1570
     50  C          1.0140   25.1520   19.5520 C.2   131  MET131      0.2261
     51  O          0.4390   24.7970   18.5390 O.2   131  MET131     -0.2867
     52  CB         1.9100   27.5090   19.6950 C.3   131  MET131      0.0387
     53  CG         1.5820   27.8650   21.1440 C.3   131  MET131      0.0595
     54  SD         1.0330   29.5870   21.3060 S.3   131  MET131     -0.1393
     55  CE         0.3290   29.5860   22.9570 C.3   131  MET131      0.0692
     56  N         -2.8460   24.5970   21.7400 N.3   133  GLY133     -0.1210
     57  CA        -3.8130   25.2780   22.5800 C.3   133  GLY133      0.1956
     58  C         -4.7490   24.2430   23.1480 C.2   133  GLY133      0.2612
     59  O         -5.4370   23.5670   22.3920 O.2   133  GLY133     -0.2717
     60  N         -4.7770   24.1090   24.4750 N.am  134  ALA134     -0.1965
     61  CA        -5.5920   23.0800   25.1050 C.3   134  ALA134      0.1728
     62  C         -7.0730   23.4510   25.1440 C.2   134  ALA134      0.2616
     63  O         -7.9350   22.5720   25.0470 O.2   134  ALA134     -0.2715
     64  CB        -5.0890   22.7950   26.4970 C.3   134  ALA134      0.0334
     65  N         -7.3620   24.7480   25.2670 N.am  135  GLU135     -0.1963
     66  CA        -8.7330   25.2130   25.4760 C.3   135  GLU135      0.1733
     67  C         -9.6130   25.1770   24.2080 C.2   135  GLU135      0.2616
     68  O        -10.7370   24.6720   24.2460 O.2   135  GLU135     -0.2715
     69  CB        -8.7360   26.5970   26.1380 C.3   135  GLU135      0.0429
     70  CG        -7.7110   26.7420   27.2770 C.3   135  GLU135      0.1163
     71  CD        -7.9170   25.7310   28.4060 C.2   135  GLU135      0.3649
     72  OE1       -9.0560   25.2340   28.5470 O.co2 135  GLU135     -0.2457
     73  OE2       -6.9400   25.4300   29.1440 O.co2 135  GLU135     -0.2457
     74  N         -9.1190   25.7060   23.0880 N.am  136  ASP136     -0.1971
     75  CA        -9.8480   25.5350   21.8320 C.3   136  ASP136      0.1709
     76  C         -9.9260   24.0330   21.5170 C.2   136  ASP136      0.2293
     77  O        -10.9540   23.5210   21.0780 O.2   136  ASP136     -0.2864
     78  CB        -9.2000   26.3270   20.6950 C.3   136  ASP136      0.1436
     79  CG        -9.8870   27.6750   20.4410 C.2   136  ASP136      0.3671
     80  OD1      -11.1190   27.7820   20.6190 O.co2 136  ASP136     -0.2456
     81  OD2       -9.1950   28.6320   20.0480 O.co2 136  ASP136     -0.2456
     82  N         -0.3710   28.3130   27.0820 N.3   179  VAL179     -0.1245
     83  CA        -0.5890   29.2810   28.1470 C.3   179  VAL179      0.1561
     84  C         -1.1300   28.6640   29.4220 C.2   179  VAL179      0.2260
     85  O         -1.8410   27.6610   29.3990 O.2   179  VAL179     -0.2867
     86  CB        -1.6010   30.3400   27.7090 C.3   179  VAL179      0.0252
     87  CG1       -1.1360   31.0000   26.4180 C.3   179  VAL179      0.0019
     88  CG2       -2.9520   29.6900   27.5190 C.3   179  VAL179      0.0019
     89  N         -3.5520   29.5520   32.3430 N.3   181  LEU181     -0.1245
     90  CA        -4.6370   30.5110   32.4360 C.3   181  LEU181      0.1561
     91  C         -4.8480   30.9820   33.8590 C.2   181  LEU181      0.2260
     92  O         -5.4040   32.0550   34.0850 O.2   181  LEU181     -0.2867
     93  CB        -5.9250   29.9030   31.8680 C.3   181  LEU181      0.0270
     94  CG        -5.9240   29.6560   30.3520 C.3   181  LEU181      0.0019
     95  CD1       -7.2930   29.2520   29.8700 C.3   181  LEU181      0.0001
     96  CD2       -5.4670   30.9000   29.6090 C.3   181  LEU181      0.0001
@<TRIPOS>BOND
     1    22    23    2
     2    22    21    1
     3    31    32    1
     4    34    33    2
     5    21    20    1
     6    21    24    1
     7    33    32    1
     8    32    35    1
     9    25    24    1
    10    25    26    1
    11    35    36    1
    12    39    40    1
    13    47    45   ar
    14    48    49    1
    15    44    45    1
    16    44    43    1
    17    26    27    1
    18    41    40    1
    19    41    42    2
    20    36    38    1
    21    36    37    1
    22    51    50    2
    23    45    46   ar
    24    40    43    1
    25    27    28    2
    26    18    17   ar
    27    49    50    1
    28    49    52    1
    29    12    13    1
    30    52    53    1
    31    81    79   ar
    32    28    29    1
    33    28    30    1
    34    17    19   ar
    35    17    16    1
    36    79    80   ar
    37    79    78    1
    38    13    16    1
    39    13    14    1
    40    78    75    1
    41    77    76    2
    42    53    54    1
    43    54    55    1
    44    76    75    1
    45     9    11   ar
    46     9     7   ar
    47    56    57    1
    48    14    15    2
    49    75    74    1
    50    11    10   ar
    51    59    58    2
    52     7     6   ar
    53    57    58    1
    54    74    67   am
    55    58    60   am
    56    10     8   ar
    57     6     8   ar
    58     6     5    1
    59    67    68    2
    60    67    66    1
    61    60    61    1
    62     2     5    1
    63     2     3    1
    64     2     1    1
    65    63    62    2
    66    61    62    1
    67    61    64    1
    68    62    65   am
    69     3     4    2
    70    65    66    1
    71    66    69    1
    72    69    70    1
    73    87    86    1
    74    82    83    1
    75    70    71    1
    76    88    86    1
    77    86    83    1
    78    83    84    1
    79    71    72   ar
    80    71    73   ar
    81    85    84    2
    82    96    94    1
    83    95    94    1
    84    94    93    1
    85    93    90    1
    86    89    90    1
    87    90    91    1
    88    91    92    2
