@<TRIPOS>MOLECULE
tmp/6as6A00.pdb
 169 159 0 0 0
SMALL
GASTEIGER

@<TRIPOS>ATOM
      1  N         26.8110   80.6940   61.1750 N.3   117  VAL117     -0.1245
      2  CA        27.7370   80.4630   60.0640 C.3   117  VAL117      0.1561
      3  C         27.3290   79.1790   59.3580 C.2   117  VAL117      0.2260
      4  O         27.0800   78.1650   60.0150 O.2   117  VAL117     -0.2867
      5  CB        29.1920   80.3690   60.5580 C.3   117  VAL117      0.0252
      6  CG1       30.1230   80.2400   59.3690 C.3   117  VAL117      0.0019
      7  CG2       29.5640   81.5860   61.3870 C.3   117  VAL117      0.0019
      8  N         28.0560   76.6880   55.5690 N.3   119  PRO119     -0.2116
      9  CA        28.7660   76.5000   54.2920 C.3   119  PRO119      0.1372
     10  C         27.8790   76.8860   53.1170 C.2   119  PRO119      0.2244
     11  O         26.7950   76.3300   52.9290 O.2   119  PRO119     -0.2868
     12  CB        29.0710   74.9950   54.2780 C.3   119  PRO119      0.0268
     13  CG        28.0280   74.4040   55.1830 C.3   119  PRO119      0.0207
     14  CD        27.8920   75.4130   56.2900 C.3   119  PRO119      0.0892
     15  N         34.8760   79.9830   53.1010 N.3   272  GLU272     -0.1231
     16  CA        36.1820   79.6660   53.6700 C.3   272  GLU272      0.1699
     17  C         36.2000   78.3290   54.4030 C.2   272  GLU272      0.2592
     18  O         35.9980   77.2770   53.7970 O.2   272  GLU272     -0.2718
     19  CB        36.6580   80.8040   54.5850 C.3   272  GLU272      0.0402
     20  CG        38.1690   80.8690   54.7680 C.3   272  GLU272      0.1161
     21  CD        38.5990   81.0880   56.2170 C.2   272  GLU272      0.3649
     22  OE1       37.7610   80.9800   57.1470 O.co2 272  GLU272     -0.2457
     23  OE2       39.7970   81.3640   56.4220 O.co2 272  GLU272     -0.2457
     24  N         36.4060   78.3580   55.7180 N.am  273  ASP273     -0.1960
     25  CA        36.8550   77.1510   56.4150 C.3   273  ASP273      0.1840
     26  C         35.8140   76.0390   56.5100 C.2   273  ASP273      0.2622
     27  O         36.1890   74.8990   56.8250 O.2   273  ASP273     -0.2715
     28  CB        37.4170   77.4850   57.7990 C.3   273  ASP273      0.1450
     29  CG        38.9040   77.8050   57.7650 C.2   273  ASP273      0.3671
     30  OD1       39.5180   77.8940   58.8530 O.co2 273  ASP273     -0.2456
     31  OD2       39.4680   78.0020   56.6650 O.co2 273  ASP273     -0.2456
     32  N         34.5350   76.3090   56.2400 N.am  274  SER274     -0.1950
     33  CA        33.5310   75.2540   56.2890 C.3   274  SER274      0.1924
     34  C         33.1860   74.6690   54.9150 C.2   274  SER274      0.2314
     35  O         32.2650   73.8520   54.8230 O.2   274  SER274     -0.2863
     36  CB        32.2640   75.7170   57.0300 C.3   274  SER274      0.2116
     37  OG        31.5150   76.6640   56.2670 O.3   274  SER274     -0.2180
     38  N         31.6410   85.1860   53.9090 N.3   328  ARG328     -0.1245
     39  CA        33.0390   85.0370   54.3180 C.3   328  ARG328      0.1563
     40  C         33.8520   84.6450   53.0940 C.2   328  ARG328      0.2260
     41  O         33.7450   83.5150   52.6010 O.2   328  ARG328     -0.2867
     42  CB        33.2620   84.0570   55.4780 C.3   328  ARG328      0.0307
     43  CG        34.7410   84.0300   55.9000 C.3   328  ARG328      0.0489
     44  CD        35.0460   83.4700   57.2800 C.3   328  ARG328      0.2205
     45  NE        34.6270   82.0830   57.4230 N.pl3 328  ARG328     -0.0865
     46  CZ        34.8600   81.3810   58.5340 C.cat 328  ARG328      0.5346
     47  NH1       35.4900   81.9480   59.5600 N.pl3 328  ARG328      0.1354
     48  NH2       34.4580   80.1250   58.6190 N.pl3 328  ARG328      0.1354
     49  N         38.1430   89.1660   61.1980 N.3   419  MET419     -0.1245
     50  CA        38.4620   88.0860   62.1220 C.3   419  MET419      0.1570
     51  C         39.7500   88.4340   62.8400 C.2   419  MET419      0.2261
     52  O         40.7500   88.7830   62.2020 O.2   419  MET419     -0.2867
     53  CB        38.6500   86.7650   61.3710 C.3   419  MET419      0.0387
     54  CG        37.4300   86.2900   60.6100 C.3   419  MET419      0.0595
     55  SD        35.9490   86.0370   61.6190 S.3   419  MET419     -0.1393
     56  CE        36.5390   84.8600   62.8350 C.3   419  MET419      0.0692
     57  N         42.0660   86.3810   64.4630 N.3   421  GLU421     -0.1245
     58  CA        42.2840   84.9460   64.5770 C.3   421  GLU421      0.1567
     59  C         43.7230   84.5620   64.2520 C.2   421  GLU421      0.2260
     60  O         44.0050   83.3730   64.0350 O.2   421  GLU421     -0.2867
     61  CB        41.2780   84.1550   63.7530 C.3   421  GLU421      0.0388
     62  CG        41.4310   84.2760   62.2440 C.3   421  GLU421      0.1160
     63  CD        40.2870   83.5830   61.4910 C.2   421  GLU421      0.3649
     64  OE1       40.0870   83.8700   60.2760 O.co2 421  GLU421     -0.2457
     65  OE2       39.5630   82.7470   62.1010 O.co2 421  GLU421     -0.2457
     66  N         38.0880   84.6250   66.3780 N.3   446  GLY446     -0.1210
     67  CA        38.0970   83.2830   65.8180 C.3   446  GLY446      0.1956
     68  C         39.1190   82.4630   66.5820 C.2   446  GLY446      0.2612
     69  O         40.2700   82.3090   66.1510 O.2   446  GLY446     -0.2717
     70  N         38.7070   81.9800   67.7590 N.am  447  PHE447     -0.1962
     71  CA        39.6600   81.4420   68.7240 C.3   447  PHE447      0.1771
     72  C         40.2800   80.1230   68.2860 C.2   447  PHE447      0.2619
     73  O         41.3450   79.7540   68.7970 O.2   447  PHE447     -0.2715
     74  CB        38.9960   81.2980   70.1040 C.3   447  PHE447      0.0574
     75  CG        38.0850   80.0980   70.2220 C.ar  447  PHE447     -0.0200
     76  CD1       38.4160   79.0330   71.0500 C.ar  447  PHE447     -0.0042
     77  CD2       36.9000   80.0310   69.5000 C.ar  447  PHE447     -0.0042
     78  CE1       37.5740   77.9330   71.1670 C.ar  447  PHE447     -0.0003
     79  CE2       36.0550   78.9290   69.5930 C.ar  447  PHE447     -0.0003
     80  CZ        36.3970   77.8730   70.4360 C.ar  447  PHE447     -0.0000
     81  N         39.6580   79.4040   67.3540 N.am  448  LEU448     -0.1963
     82  CA        40.2530   78.1350   66.9540 C.3   448  LEU448      0.1728
     83  C         41.4230   78.3710   66.0080 C.2   448  LEU448      0.2616
     84  O         42.5370   77.8860   66.2530 O.2   448  LEU448     -0.2715
     85  CB        39.1890   77.1930   66.3890 C.3   448  LEU448      0.0311
     86  CG        38.2250   76.8770   67.5370 C.3   448  LEU448      0.0022
     87  CD1       36.8920   76.4310   67.0430 C.3   448  LEU448      0.0001
     88  CD2       38.7780   75.8460   68.5110 C.3   448  LEU448      0.0001
     89  N         41.2200   79.1790   64.9590 N.am  449  ASP449     -0.1971
     90  CA        42.3570   79.5920   64.1470 C.3   449  ASP449      0.1709
     91  C         43.4100   80.2590   65.0160 C.2   449  ASP449      0.2293
     92  O         44.6150   80.0630   64.8190 O.2   449  ASP449     -0.2864
     93  CB        41.9130   80.5580   63.0450 C.3   449  ASP449      0.1436
     94  CG        41.6650   79.8600   61.7330 C.2   449  ASP449      0.3671
     95  OD1       40.6230   80.1640   61.1190 O.co2 449  ASP449     -0.2456
     96  OD2       42.4900   78.9970   61.3400 O.co2 449  ASP449     -0.2456
     97  N         33.3800   83.4300   69.5470 N.3   501  GLY501     -0.1210
     98  CA        33.5690   82.3020   68.6490 C.3   501  GLY501      0.1956
     99  C         32.5220   81.2040   68.7320 C.2   501  GLY501      0.2611
    100  O         31.5300   81.2870   69.4590 O.2   501  GLY501     -0.2717
    101  N         32.7790   80.1390   67.9670 N.am  502  MET502     -0.1979
    102  CA        31.7940   79.1220   67.6480 C.3   502  MET502      0.1605
    103  C         31.6610   78.1030   68.7690 C.2   502  MET502      0.2287
    104  O         32.6580   77.6770   69.3670 O.2   502  MET502     -0.2864
    105  CB        32.2310   78.3920   66.3740 C.3   502  MET502      0.0413
    106  CG        31.3440   77.2270   65.9560 C.3   502  MET502      0.0598
    107  SD        29.7080   77.7750   65.4460 S.3   502  MET502     -0.1393
    108  CE        30.0820   78.4780   63.8530 C.3   502  MET502      0.0692
    109  N         30.9930   74.3350   69.2390 N.3   504  THR504     -0.1218
    110  CA        31.1860   73.2230   68.3140 C.3   504  THR504      0.1862
    111  C         30.5190   71.9180   68.7370 C.2   504  THR504      0.2287
    112  O         30.4850   70.9800   67.9300 O.2   504  THR504     -0.2866
    113  CB        32.6780   72.9580   68.0720 C.3   504  THR504      0.1770
    114  OG1       33.3090   72.6120   69.3070 O.3   504  THR504     -0.2211
    115  CG2       33.3630   74.1880   67.4810 C.3   504  THR504      0.0375
    116  N         29.0840   83.1090   67.6860 N.3   528  TRP528     -0.1241
    117  CA        28.8060   82.1790   66.6050 C.3   528  TRP528      0.1605
    118  C         28.1240   80.9040   67.0750 C.2   528  TRP528      0.2264
    119  O         28.5030   80.3050   68.1020 O.2   528  TRP528     -0.2867
    120  CB        30.0850   81.8200   65.8580 C.3   528  TRP528      0.0550
    121  CG        30.5380   82.9190   64.9590 C.ar  528  TRP528      0.0003
    122  CD1       30.0180   84.1820   64.8790 C.ar  528  TRP528      0.0946
    123  CD2       31.5990   82.8590   64.0010 C.ar  528  TRP528      0.0152
    124  NE1       30.7020   84.9140   63.9310 N.ar  528  TRP528     -0.2442
    125  CE2       31.6730   84.1210   63.3810 C.ar  528  TRP528      0.0810
    126  CE3       32.5000   81.8580   63.6130 C.ar  528  TRP528      0.0012
    127  CZ2       32.6190   84.4130   62.4010 C.ar  528  TRP528      0.0191
    128  CZ3       33.4280   82.1470   62.6210 C.ar  528  TRP528      0.0001
    129  CH2       33.4770   83.4110   62.0280 C.ar  528  TRP528      0.0015
    130  N         26.3140   77.0650   65.4330 N.3   530  PRO530     -0.2116
    131  CA        26.4880   76.1430   64.3000 C.3   530  PRO530      0.1372
    132  C         25.2150   75.7120   63.5750 C.2   530  PRO530      0.2244
    133  O         25.3020   75.0090   62.5590 O.2   530  PRO530     -0.2868
    134  CB        27.1340   74.9310   64.9800 C.3   530  PRO530      0.0268
    135  CG        26.4940   74.9010   66.3370 C.3   530  PRO530      0.0207
    136  CD        26.3810   76.3650   66.7320 C.3   530  PRO530      0.0892
    137  N         32.7610   70.7570   56.2540 N.3   606  ALA606     -0.1245
    138  CA        32.3990   70.7750   57.6640 C.3   606  ALA606      0.1562
    139  C         31.6270   69.5000   57.9610 C.2   606  ALA606      0.2260
    140  O         30.6770   69.1730   57.2440 O.2   606  ALA606     -0.2867
    141  CB        31.5570   72.0150   58.0010 C.3   606  ALA606      0.0290
    142  N         31.5230   69.6530   65.6040 N.3   618  MET618     -0.1245
    143  CA        31.4990   70.1820   64.2450 C.3   618  MET618      0.1570
    144  C         32.9150   70.6280   63.9160 C.2   618  MET618      0.2261
    145  O         33.4260   71.5820   64.5120 O.2   618  MET618     -0.2867
    146  CB        30.5260   71.3520   64.1510 C.3   618  MET618      0.0387
    147  CG        30.5220   72.0410   62.7990 C.3   618  MET618      0.0595
    148  SD        30.1410   70.9740   61.3870 S.3   618  MET618     -0.1393
    149  CE        28.6650   70.1340   61.8300 C.3   618  MET618      0.0692
    150  N         35.9170   71.9970   61.2980 N.3   620  ASP620     -0.1239
    151  CA        36.2590   72.6340   60.0300 C.3   620  ASP620      0.1674
    152  C         37.7720   72.8200   59.9850 C.2   620  ASP620      0.2266
    153  O         38.5010   72.2180   60.7790 O.2   620  ASP620     -0.2867
    154  CB        35.3540   73.8330   59.6920 C.3   620  ASP620      0.1410
    155  CG        35.7960   75.1430   60.3230 C.2   620  ASP620      0.3668
    156  OD1       36.7180   75.2040   61.1740 O.co2 620  ASP620     -0.2456
    157  OD2       35.1960   76.1720   59.9220 O.co2 620  ASP620     -0.2456
    158  N         39.7890   75.1070   60.8700 N.3   622  ALA622     -0.1231
    159  CA        40.4890   75.6640   62.0220 C.3   622  ALA622      0.1694
    160  C         40.7020   74.6180   63.1150 C.2   622  ALA622      0.2592
    161  O         41.7640   74.5940   63.7580 O.2   622  ALA622     -0.2718
    162  CB        39.7340   76.8770   62.5680 C.3   622  ALA622      0.0304
    163  N         39.7030   73.7610   63.3680 N.am  623  THR623     -0.1953
    164  CA        39.9290   72.6990   64.3450 C.3   623  THR623      0.1897
    165  C         40.9560   71.6970   63.8310 C.2   623  THR623      0.2313
    166  O         41.7330   71.1430   64.6230 O.2   623  THR623     -0.2863
    167  CB        38.6180   72.0210   64.7480 C.3   623  THR623      0.1794
    168  OG1       37.9600   71.4750   63.6040 O.3   623  THR623     -0.2208
    169  CG2       37.6800   73.0120   65.4620 C.3   623  THR623      0.0378
@<TRIPOS>BOND
     1    41    40    2
     2    11    10    2
     3    40    39    1
     4    15    16    1
     5    10     9    1
     6    16    17    1
     7    16    19    1
     8    18    17    2
     9    38    39    1
    10    12     9    1
    11    12    13    1
    12     9     8    1
    13    39    42    1
    14    17    24   am
    15    19    20    1
    16    20    21    1
    17    35    34    2
    18    34    33    1
    19    13    14    1
    20    42    43    1
    21     8    14    1
    22    24    25    1
    23    43    44    1
    24    21    23   ar
    25    21    22   ar
    26    32    33    1
    27    32    26   am
    28   137   138    1
    29    37    36    1
    30    33    36    1
    31    25    26    1
    32    25    28    1
    33    26    27    2
    34    31    29   ar
    35   140   139    2
    36    44    45    1
    37    45    46    2
    38   138   139    1
    39   138   141    1
    40    29    28    1
    41    29    30   ar
    42    46    48    1
    43    46    47    1
    44     3     4    2
    45     3     2    1
    46     6     5    1
    47   154   151    1
    48   154   155    1
    49   157   155   ar
    50   152   151    1
    51   152   153    2
    52   151   150    1
    53     2     5    1
    54     2     1    1
    55    64    63   ar
    56   155   156   ar
    57     5     7    1
    58    54    53    1
    59    54    55    1
    60   158   159    1
    61    95    94   ar
    62    49    50    1
    63    96    94   ar
    64    53    50    1
    65   148   149    1
    66   148   147    1
    67    63    65   ar
    68    63    62    1
    69    55    56    1
    70    94    93    1
    71   159   162    1
    72   159   160    1
    73   129   127   ar
    74   129   128   ar
    75    50    51    1
    76    52    51    2
    77    62    61    1
    78   127   125   ar
    79   133   132    2
    80   128   126   ar
    81   147   146    1
    82    93    90    1
    83   160   163   am
    84   160   161    2
    85   163   164    1
    86   125   124   ar
    87   125   123   ar
    88   132   131    1
    89   168   167    1
    90   126   123   ar
    91    61    58    1
    92   165   164    1
    93   165   166    2
    94   108   107    1
    95   144   143    1
    96   144   145    2
    97   124   122   ar
    98   123   121   ar
    99    60    59    2
   100    90    89    1
   101    90    91    1
   102   146   143    1
   103   143   142    1
   104    59    58    1
   105   131   134    1
   106   131   130    1
   107   164   167    1
   108    57    58    1
   109   167   169    1
   110    92    91    2
   111   122   121   ar
   112    89    83   am
   113   121   120    1
   114   134   135    1
   115   130   136    1
   116   107   106    1
   117    67    66    1
   118    67    68    1
   119   120   117    1
   120   106   105    1
   121    83    84    2
   122    83    82    1
   123    69    68    2
   124   135   136    1
   125   105   102    1
   126    85    82    1
   127    85    86    1
   128    68    70   am
   129   117   118    1
   130   117   116    1
   131    82    81    1
   132    87    86    1
   133   118   119    2
   134    81    72   am
   135   115   113    1
   136    86    88    1
   137   102   101    1
   138   102   103    1
   139    70    71    1
   140   112   111    2
   141   101    99   am
   142   113   110    1
   143   113   114    1
   144    72    71    1
   145    72    73    2
   146   110   111    1
   147   110   109    1
   148    98    99    1
   149    98    97    1
   150    71    74    1
   151    99   100    2
   152   103   104    2
   153    77    79   ar
   154    77    75   ar
   155    79    80   ar
   156    74    75    1
   157    75    76   ar
   158    80    78   ar
   159    76    78   ar
