@<TRIPOS>MOLECULE
tmp/6as7A00.pdb
 105 102 0 0 0
SMALL
GASTEIGER

@<TRIPOS>ATOM
      1  N         21.5200  -11.9330   16.1190 N.3   495  ASP495     -0.1225
      2  CA        22.8310  -11.7530   16.7030 C.3   495  ASP495      0.1805
      3  C         23.3340  -13.0580   17.2890 C.2   495  ASP495      0.2598
      4  O         22.6010  -13.7100   18.0150 O.2   495  ASP495     -0.2718
      5  CB        22.6790  -10.6840   17.7840 C.3   495  ASP495      0.1424
      6  CG        23.9880  -10.1140   18.2440 C.2   495  ASP495      0.3668
      7  OD1       23.9980   -8.9020   18.5540 O.co2 495  ASP495     -0.2456
      8  OD2       24.9860  -10.8600   18.3080 O.co2 495  ASP495     -0.2456
      9  N         24.5780  -13.4350   16.9930 N.am  496  PHE496     -0.1962
     10  CA        25.1530  -14.6850   17.5150 C.3   496  PHE496      0.1771
     11  C         25.2330  -14.8070   19.0520 C.2   496  PHE496      0.2620
     12  O         25.5490  -13.8440   19.7500 O.2   496  PHE496     -0.2715
     13  CB        26.5580  -14.8920   16.9500 C.3   496  PHE496      0.0574
     14  CG        26.5910  -15.4070   15.5350 C.ar  496  PHE496     -0.0200
     15  CD1       26.5280  -14.5350   14.4490 C.ar  496  PHE496     -0.0042
     16  CD2       26.7370  -16.7700   15.2830 C.ar  496  PHE496     -0.0042
     17  CE1       26.6190  -15.0200   13.1200 C.ar  496  PHE496     -0.0003
     18  CE2       26.8290  -17.2630   13.9710 C.ar  496  PHE496     -0.0003
     19  CZ        26.7730  -16.3920   12.8860 C.ar  496  PHE496     -0.0000
     20  N         24.9660  -16.0030   19.5770 N.am  497  ASN497     -0.1958
     21  CA        25.0310  -16.2380   21.0290 C.3   497  ASN497      0.1819
     22  C         26.4490  -16.6230   21.4610 C.2   497  ASN497      0.2622
     23  O         26.9090  -17.7470   21.2100 O.2   497  ASN497     -0.2715
     24  CB        24.0480  -17.3390   21.4610 C.3   497  ASN497      0.1195
     25  CG        22.6140  -17.0450   21.0310 C.2   497  ASN497      0.2630
     26  OD1       22.1370  -15.9110   21.1520 O.2   497  ASN497     -0.2716
     27  ND2       21.9140  -18.0710   20.5340 N.am  497  ASN497     -0.0877
     28  N         27.1350  -15.6870   22.1080 N.am  498  SER498     -0.1936
     29  CA        28.4980  -15.9180   22.5550 C.3   498  SER498      0.2055
     30  C         29.4120  -16.3060   21.4090 C.2   498  SER498      0.2643
     31  O         30.0040  -17.3810   21.3940 O.2   498  SER498     -0.2714
     32  CB        28.5180  -16.9820   23.6330 C.3   498  SER498      0.2130
     33  OG        27.7510  -16.5280   24.7310 O.3   498  SER498     -0.2179
     34  N         29.5340  -15.3860   20.4620 N.am  499  LEU499     -0.1963
     35  CA        30.3390  -15.5810   19.2710 C.3   499  LEU499      0.1728
     36  C         31.8150  -15.9110   19.4800 C.2   499  LEU499      0.2616
     37  O         32.4300  -16.5870   18.6560 O.2   499  LEU499     -0.2715
     38  CB        30.2330  -14.3460   18.3830 C.3   499  LEU499      0.0311
     39  CG        31.2080  -14.4310   17.2130 C.3   499  LEU499      0.0022
     40  CD1       30.6680  -15.4500   16.2150 C.3   499  LEU499      0.0001
     41  CD2       31.4010  -13.0520   16.5920 C.3   499  LEU499      0.0001
     42  N         32.3990  -15.4130   20.5580 N.am  500  TYR500     -0.1974
     43  CA        33.8050  -15.6770   20.7970 C.3   500  TYR500      0.1639
     44  C         33.9540  -16.9250   21.6350 C.2   500  TYR500      0.2290
     45  O         34.7250  -17.8360   21.3060 O.2   500  TYR500     -0.2864
     46  CB        34.4560  -14.4650   21.4620 C.3   500  TYR500      0.0560
     47  CG        34.8920  -13.4240   20.4600 C.ar  500  TYR500     -0.0198
     48  CD1       34.3840  -13.4200   19.1690 C.ar  500  TYR500     -0.0009
     49  CD2       35.8190  -12.4560   20.7930 C.ar  500  TYR500     -0.0009
     50  CE1       34.7970  -12.4750   18.2300 C.ar  500  TYR500      0.0417
     51  CE2       36.2370  -11.5020   19.8650 C.ar  500  TYR500      0.0417
     52  CZ        35.7290  -11.5130   18.5810 C.ar  500  TYR500      0.1957
     53  OH        36.1640  -10.5790   17.6440 O.3   500  TYR500     -0.2866
     54  N         28.2450  -16.4900   32.3110 N.3   572  LYS572     -0.1245
     55  CA        28.4090  -15.8190   31.0160 C.3   572  LYS572      0.1561
     56  C         29.5380  -14.7690   31.0030 C.2   572  LYS572      0.2260
     57  O         30.4440  -14.8200   30.1610 O.2   572  LYS572     -0.2867
     58  CB        27.0900  -15.1620   30.5630 C.3   572  LYS572      0.0271
     59  CG        27.0990  -14.7650   29.0770 C.3   572  LYS572      0.0035
     60  CD        25.7910  -14.1640   28.5960 C.3   572  LYS572      0.0206
     61  CE        25.8540  -13.8870   27.0880 C.3   572  LYS572      0.1093
     62  NZ        24.6090  -13.2400   26.5640 N.3   572  LYS572     -0.1314
     63  N         32.7560  -14.9870   28.3020 N.3   576  ASN576     -0.1240
     64  CA        33.0350  -13.9080   27.3770 C.3   576  ASN576      0.1653
     65  C         34.2980  -13.1380   27.7440 C.2   576  ASN576      0.2266
     66  O         34.8850  -12.4680   26.8970 O.2   576  ASN576     -0.2867
     67  CB        31.8220  -12.9760   27.2740 C.3   576  ASN576      0.1155
     68  CG        30.6840  -13.5850   26.4380 C.2   576  ASN576      0.2627
     69  OD1       29.6850  -14.0810   26.9790 O.2   576  ASN576     -0.2716
     70  ND2       30.8460  -13.5600   25.1090 N.am  576  ASN576     -0.0877
     71  N         38.2480  -14.5620   26.3220 N.3   579  TYR579     -0.1241
     72  CA        38.8430  -14.0330   25.0980 C.3   579  TYR579      0.1605
     73  C         39.7690  -12.8770   25.3770 C.2   579  TYR579      0.2264
     74  O         40.9350  -12.8920   24.9850 O.2   579  TYR579     -0.2867
     75  CB        37.7520  -13.5560   24.1260 C.3   579  TYR579      0.0534
     76  CG        38.2350  -12.5200   23.1130 C.ar  579  TYR579     -0.0201
     77  CD1       39.2170  -12.8360   22.1760 C.ar  579  TYR579     -0.0009
     78  CD2       37.7490  -11.2090   23.1380 C.ar  579  TYR579     -0.0009
     79  CE1       39.7130  -11.8770   21.2940 C.ar  579  TYR579      0.0417
     80  CE2       38.2380  -10.2390   22.2580 C.ar  579  TYR579      0.0417
     81  CZ        39.2240  -10.5830   21.3430 C.ar  579  TYR579      0.1957
     82  OH        39.7480   -9.6250   20.4970 O.3   579  TYR579     -0.2866
     83  N         30.3050   -6.7410   14.1990 N.3   625  THR625     -0.1203
     84  CA        31.1360   -7.7890   14.8280 C.3   625  THR625      0.1994
     85  C         30.5470   -9.1720   14.7620 C.2   625  THR625      0.2617
     86  O         31.2060  -10.1110   14.3440 O.2   625  THR625     -0.2717
     87  CB        31.3590   -7.5570   16.3440 C.3   625  THR625      0.1784
     88  OG1       32.1890   -6.4130   16.5750 O.3   625  THR625     -0.2211
     89  CG2       31.9860   -8.8030   16.9650 C.3   625  THR625      0.0376
     90  N         29.3040   -9.2700   15.2200 N.am  626  ASP626     -0.1973
     91  CA        28.5860  -10.5260   15.2880 C.3   626  ASP626      0.1709
     92  C         27.0650  -10.3390   15.1610 C.2   626  ASP626      0.2293
     93  O         26.3070  -11.2710   15.4550 O.2   626  ASP626     -0.2864
     94  CB        28.8400  -11.1510   16.6370 C.3   626  ASP626      0.1436
     95  CG        28.0270  -10.4790   17.7160 C.2   626  ASP626      0.3671
     96  OD1       27.7460  -11.1160   18.7450 O.co2 626  ASP626     -0.2456
     97  OD2       27.6530   -9.3010   17.5280 O.co2 626  ASP626     -0.2456
     98  N         17.7510  -11.3990   18.1670 N.3   663  ASP663     -0.1239
     99  CA        17.9520  -10.5510   19.3320 C.3   663  ASP663      0.1674
    100  C         16.7740   -9.5640   19.4420 C.2   663  ASP663      0.2266
    101  O         16.4500   -9.1420   20.5550 O.2   663  ASP663     -0.2867
    102  CB        19.3200   -9.8270   19.2670 C.3   663  ASP663      0.1410
    103  CG        20.0390   -9.7490   20.6460 C.2   663  ASP663      0.3668
    104  OD1       19.9560  -10.7230   21.4430 O.co2 663  ASP663     -0.2456
    105  OD2       20.7070   -8.7130   20.9160 O.co2 663  ASP663     -0.2456
@<TRIPOS>BOND
     1    19    17   ar
     2    19    18   ar
     3    17    15   ar
     4    18    16   ar
     5    83    84    1
     6    86    85    2
     7    15    14   ar
     8    85    84    1
     9    85    90   am
    10    84    87    1
    11    92    91    1
    12    92    93    2
    13    90    91    1
    14    16    14   ar
    15    91    94    1
    16    14    13    1
    17     1     2    1
    18    40    39    1
    19    87    88    1
    20    87    89    1
    21    41    39    1
    22    94    95    1
    23     2     3    1
    24     2     5    1
    25    13    10    1
    26     9     3   am
    27     9    10    1
    28    39    38    1
    29     3     4    2
    30    10    11    1
    31    97    95   ar
    32    53    52    1
    33    95    96   ar
    34     5     6    1
    35    98    99    1
    36    50    52   ar
    37    50    48   ar
    38     6     8   ar
    39     6     7   ar
    40    38    35    1
    41    52    51   ar
    42    37    36    2
    43    11    20   am
    44    11    12    2
    45    48    47   ar
    46   102    99    1
    47   102   103    1
    48    35    36    1
    49    35    34    1
    50    99   100    1
    51   100   101    2
    52    36    42   am
    53    20    21    1
    54    51    49   ar
    55    47    49   ar
    56    47    46    1
    57    34    30   am
    58    82    81    1
    59    27    25   am
    60    42    43    1
    61   103   105   ar
    62   103   104   ar
    63    43    46    1
    64    43    44    1
    65    21    22    1
    66    21    24    1
    67    25    26    2
    68    25    24    1
    69    23    22    2
    70    79    81   ar
    71    79    77   ar
    72    45    44    2
    73    81    80   ar
    74    31    30    2
    75    30    29    1
    76    22    28   am
    77    28    29    1
    78    77    76   ar
    79    80    78   ar
    80    29    32    1
    81    76    78   ar
    82    76    75    1
    83    32    33    1
    84    75    72    1
    85    74    73    2
    86    72    73    1
    87    72    71    1
    88    70    68   am
    89    68    69    2
    90    68    67    1
    91    62    61    1
    92    66    65    2
    93    61    60    1
    94    67    64    1
    95    64    65    1
    96    64    63    1
    97    60    59    1
    98    59    58    1
    99    57    56    2
   100    58    55    1
   101    56    55    1
   102    55    54    1
