@<TRIPOS>MOLECULE
tmp/6as8B00.pdb
 106 99 0 0 0
SMALL
GASTEIGER

@<TRIPOS>ATOM
      1  N         -5.6740   96.2500  130.5380 N.3     1  PHE1       -0.1227
      2  CA        -4.2040   96.0080  130.4900 C.3     1  PHE1        0.1736
      3  C         -3.6230   95.9170  131.8950 C.2     1  PHE1        0.2596
      4  O         -3.8730   96.7790  132.7370 O.2     1  PHE1       -0.2718
      5  CB        -3.5050   97.1160  129.7050 C.3     1  PHE1        0.0547
      6  CG        -2.0140   96.9530  129.6230 C.ar    1  PHE1       -0.0202
      7  CD1       -1.1740   97.7230  130.4110 C.ar    1  PHE1       -0.0042
      8  CD2       -1.4520   96.0290  128.7600 C.ar    1  PHE1       -0.0042
      9  CE1        0.1960   97.5770  130.3350 C.ar    1  PHE1       -0.0003
     10  CE2       -0.0820   95.8780  128.6820 C.ar    1  PHE1       -0.0003
     11  CZ         0.7420   96.6530  129.4700 C.ar    1  PHE1       -0.0000
     12  N         -2.8480   94.8640  132.1380 N.am    2  SER2       -0.1952
     13  CA        -2.2550   94.6290  133.4480 C.3     2  SER2        0.1924
     14  C         -0.8510   94.0550  133.3250 C.2     2  SER2        0.2314
     15  O         -0.5400   93.3390  132.3710 O.2     2  SER2       -0.2863
     16  CB        -3.1310   93.6810  134.2700 C.3     2  SER2        0.2116
     17  OG        -4.4110   94.2390  134.5060 O.3     2  SER2       -0.2180
     18  N         -0.7770   94.9440  138.1940 N.3    11  ILE11      -0.1231
     19  CA        -0.5190   96.3800  138.1890 C.3    11  ILE11       0.1692
     20  C         -1.2520   97.0290  137.0200 C.2    11  ILE11       0.2592
     21  O         -1.0860   96.6140  135.8730 O.2    11  ILE11      -0.2718
     22  CB         0.9920   96.6850  138.0780 C.3    11  ILE11       0.0266
     23  CG1        1.7800   95.8920  139.1270 C.3    11  ILE11       0.0019
     24  CG2        1.2470   98.1770  138.2370 C.3    11  ILE11       0.0020
     25  CD1        3.2810   95.9030  138.9080 C.3    11  ILE11       0.0001
     26  N         -2.0560   98.0470  137.3150 N.am   12  GLY12      -0.1957
     27  CA        -2.8510   98.7220  136.3030 C.3    12  GLY12       0.1869
     28  C         -2.2650  100.0610  135.8950 C.2    12  GLY12       0.2309
     29  O         -2.5350  100.5540  134.8000 O.2    12  GLY12      -0.2863
     30  N         -3.0680   91.3660  127.9640 N.3    44  ASN44      -0.1225
     31  CA        -4.3810   91.9260  127.6720 C.3    44  ASN44       0.1785
     32  C         -5.4320   91.2760  128.5700 C.2    44  ASN44       0.2597
     33  O         -5.4170   90.0630  128.7650 O.2    44  ASN44      -0.2718
     34  CB        -4.7290   91.7140  126.1970 C.3    44  ASN44       0.1169
     35  CG        -5.9610   92.4830  125.7690 C.2    44  ASN44       0.2627
     36  OD1       -7.0910   92.0440  125.9920 O.2    44  ASN44      -0.2716
     37  ND2       -5.7500   93.6320  125.1370 N.am   44  ASN44      -0.0877
     38  N         -6.3430   92.0750  129.1160 N.am   45  ASP45      -0.1960
     39  CA        -7.2990   91.5670  130.0980 C.3    45  ASP45       0.1840
     40  C         -8.5630   90.9670  129.4750 C.2    45  ASP45       0.2622
     41  O         -9.3630   90.3540  130.1800 O.2    45  ASP45      -0.2715
     42  CB        -7.6860   92.6790  131.0760 C.3    45  ASP45       0.1450
     43  CG        -6.6150   92.9330  132.1210 C.2    45  ASP45       0.3671
     44  OD1       -6.3610   92.0230  132.9380 O.co2  45  ASP45      -0.2456
     45  OD2       -6.0300   94.0370  132.1320 O.co2  45  ASP45      -0.2456
     46  N         -8.7380   91.1360  128.1660 N.am   46  TYR46      -0.1974
     47  CA        -9.8760   90.5430  127.4560 C.3    46  TYR46       0.1639
     48  C         -9.4460   89.3840  126.5620 C.2    46  TYR46       0.2290
     49  O        -10.1380   88.3700  126.4750 O.2    46  TYR46      -0.2864
     50  CB       -10.5910   91.5950  126.6040 C.3    46  TYR46       0.0560
     51  CG       -11.3720   92.6280  127.3830 C.ar   46  TYR46      -0.0198
     52  CD1      -12.0640   92.2890  128.5390 C.ar   46  TYR46      -0.0009
     53  CD2      -11.4210   93.9470  126.9540 C.ar   46  TYR46      -0.0009
     54  CE1      -12.7780   93.2360  129.2430 C.ar   46  TYR46       0.0417
     55  CE2      -12.1290   94.8970  127.6500 C.ar   46  TYR46       0.0417
     56  CZ       -12.8050   94.5370  128.7930 C.ar   46  TYR46       0.1957
     57  OH       -13.5120   95.4890  129.4840 O.3    46  TYR46      -0.2866
     58  N         -9.7060   94.2240  122.1920 N.3    51  ASP51      -0.1239
     59  CA        -9.2820   95.5890  122.4890 C.3    51  ASP51       0.1674
     60  C         -7.7710   95.6040  122.7100 C.2    51  ASP51       0.2266
     61  O         -7.2960   95.6010  123.8450 O.2    51  ASP51      -0.2867
     62  CB       -10.0180   96.1330  123.7150 C.3    51  ASP51       0.1410
     63  CG        -9.8140   97.6280  123.9050 C.2    51  ASP51       0.3668
     64  OD1       -9.3630   98.2960  122.9500 O.co2  51  ASP51      -0.2456
     65  OD2      -10.1150   98.1370  125.0060 O.co2  51  ASP51      -0.2456
     66  N         -3.8790   96.2410  123.1930 N.3    53  ASP53      -0.1239
     67  CA        -3.1110   97.2160  123.9580 C.3    53  ASP53       0.1674
     68  C         -1.8420   97.6160  123.2160 C.2    53  ASP53       0.2266
     69  O         -1.1650   96.7720  122.6290 O.2    53  ASP53      -0.2867
     70  CB        -2.7640   96.6520  125.3340 C.3    53  ASP53       0.1410
     71  CG        -3.9880   96.4630  126.2050 C.2    53  ASP53       0.3668
     72  OD1       -4.7820   97.4210  126.3180 O.co2  53  ASP53      -0.2456
     73  OD2       -4.1650   95.3580  126.7630 O.co2  53  ASP53      -0.2456
     74  N          0.6980  103.1490  127.9830 N.3   128  LYS128     -0.1245
     75  CA        -0.2810  102.2080  127.4470 C.3   128  LYS128      0.1561
     76  C         -1.5070  102.9350  126.9240 C.2   128  LYS128      0.2260
     77  O         -1.9980  103.8620  127.5570 O.2   128  LYS128     -0.2867
     78  CB        -0.7050  101.1960  128.5160 C.3   128  LYS128      0.0271
     79  CG        -1.8940  100.3250  128.1090 C.3   128  LYS128      0.0035
     80  CD        -3.2130  100.8540  128.6700 C.3   128  LYS128      0.0206
     81  CE        -4.4100  100.1580  128.0420 C.3   128  LYS128      0.1093
     82  NZ        -5.7060  100.6210  128.6200 N.3   128  LYS128     -0.1314
     83  N         -5.2020  101.6230  124.5050 N.3   130  ALA130     -0.1245
     84  CA        -5.8870  100.5310  123.8230 C.3   130  ALA130      0.1562
     85  C         -6.4390  100.9930  122.4690 C.2   130  ALA130      0.2260
     86  O         -5.9000  101.9240  121.8690 O.2   130  ALA130     -0.2867
     87  CB        -6.9960   99.9810  124.7090 C.3   130  ALA130      0.0290
     88  N         -8.3930  104.3840  126.9630 N.3   136  ASN136     -0.1240
     89  CA        -8.1000  104.3070  128.3910 C.3   136  ASN136      0.1653
     90  C         -6.6020  104.3110  128.6620 C.2   136  ASN136      0.2266
     91  O         -6.0500  103.3120  129.1250 O.2   136  ASN136     -0.2867
     92  CB        -8.7340  103.0560  128.9960 C.3   136  ASN136      0.1155
     93  CG       -10.2380  103.0290  128.8320 C.2   136  ASN136      0.2627
     94  OD1      -10.7840  102.1600  128.1540 O.2   136  ASN136     -0.2716
     95  ND2      -10.9190  103.9820  129.4580 N.am  136  ASN136     -0.0877
     96  N         -2.9390  104.6340  130.1870 N.3   138  ARG138     -0.1245
     97  CA        -2.3730  104.4670  131.5220 C.3   138  ARG138      0.1563
     98  C         -0.8570  104.6320  131.4920 C.2   138  ARG138      0.2260
     99  O         -0.2020  104.2640  130.5140 O.2   138  ARG138     -0.2867
    100  CB        -2.7360  103.0940  132.0950 C.3   138  ARG138      0.0307
    101  CG        -4.2270  102.8720  132.3040 C.3   138  ARG138      0.0489
    102  CD        -4.7850  103.7680  133.4020 C.3   138  ARG138      0.2205
    103  NE        -6.2070  103.5200  133.6340 N.pl3 138  ARG138     -0.0865
    104  CZ        -7.1980  104.1380  132.9970 C.cat 138  ARG138      0.5346
    105  NH1       -6.9410  105.0590  132.0760 N.pl3 138  ARG138      0.1354
    106  NH2       -8.4570  103.8310  133.2820 N.pl3 138  ARG138      0.1354
@<TRIPOS>BOND
     1    86    85    2
     2    58    59    1
     3    85    84    1
     4    59    60    1
     5    59    62    1
     6    69    68    2
     7    60    61    2
     8    64    63   ar
     9    66    67    1
    10    68    67    1
    11    62    63    1
    12    84    83    1
    13    84    87    1
    14    63    65   ar
    15    67    70    1
    16    37    35   am
    17    70    71    1
    18    35    36    2
    19    35    34    1
    20    34    31    1
    21    71    72   ar
    22    71    73   ar
    23    49    48    2
    24    48    47    1
    25    50    51    1
    26    50    47    1
    27    76    75    1
    28    76    77    2
    29    53    51   ar
    30    53    55   ar
    31    88    89    1
    32    51    52   ar
    33    75    74    1
    34    75    78    1
    35    47    46    1
    36    55    56   ar
    37    31    30    1
    38    31    32    1
    39    81    82    1
    40    81    80    1
    41    79    78    1
    42    79    80    1
    43    94    93    2
    44    46    40   am
    45    89    90    1
    46    89    92    1
    47    52    54   ar
    48    32    33    2
    49    32    38   am
    50    90    91    2
    51    10     8   ar
    52    10    11   ar
    53     8     6   ar
    54    56    54   ar
    55    56    57    1
    56    93    92    1
    57    93    95   am
    58    38    39    1
    59    11     9   ar
    60    40    39    1
    61    40    41    2
    62     6     5    1
    63     6     7   ar
    64     5     2    1
    65    39    42    1
    66    96    97    1
    67     9     7   ar
    68     2     1    1
    69     2     3    1
    70    99    98    2
    71    42    43    1
    72    98    97    1
    73    97   100    1
    74     3    12   am
    75     3     4    2
    76   105   104    1
    77   100   101    1
    78    43    45   ar
    79    43    44   ar
    80    12    13    1
    81   101   102    1
    82    15    14    2
    83   104   106    1
    84   104   103    2
    85    14    13    1
    86   102   103    1
    87    13    16    1
    88    16    17    1
    89    29    28    2
    90    21    20    2
    91    28    27    1
    92    27    26    1
    93    20    26   am
    94    20    19    1
    95    22    19    1
    96    22    24    1
    97    22    23    1
    98    19    18    1
    99    25    23    1
