@<TRIPOS>MOLECULE
tmp/6ashA02.pdb
 91 87 0 0 0
SMALL
GASTEIGER

@<TRIPOS>ATOM
      1  N         59.2220   -8.6760   16.8360 N.3   112  GLU112     -0.1231
      2  CA        59.1020   -8.3720   15.4080 C.3   112  GLU112      0.1699
      3  C         59.0240   -9.6580   14.5990 C.2   112  GLU112      0.2592
      4  O         59.6880  -10.6430   14.9080 O.2   112  GLU112     -0.2718
      5  CB        60.3050   -7.5880   14.9520 C.3   112  GLU112      0.0402
      6  CG        60.3850   -6.2010   15.6350 C.3   112  GLU112      0.1161
      7  CD        61.5800   -5.4050   15.2480 C.2   112  GLU112      0.3649
      8  OE1       62.6790   -5.9540   15.1750 O.co2 112  GLU112     -0.2457
      9  OE2       61.4330   -4.1970   15.0130 O.co2 112  GLU112     -0.2457
     10  N         58.2570   -9.6130   13.5330 N.am  113  ILE113     -0.1966
     11  CA        58.1560  -10.7040   12.5630 C.3   113  ILE113      0.1712
     12  C         59.3250  -10.5620   11.6030 C.2   113  ILE113      0.2458
     13  O         59.6610   -9.4480   11.1930 O.2   113  ILE113     -0.2730
     14  CB        56.8540  -10.5640   11.7520 C.3   113  ILE113      0.0289
     15  CG1       55.6250  -10.5450   12.6480 C.3   113  ILE113      0.0022
     16  CG2       56.7470  -11.5660   10.6320 C.3   113  ILE113      0.0023
     17  CD1       55.4960  -11.6480   13.5440 C.3   113  ILE113      0.0001
     18  N         59.9740  -11.6740   11.2550 N.am  114  PRO114     -0.2727
     19  CA        61.0850  -11.5600   10.2800 C.3   114  PRO114      0.1402
     20  C         60.6390  -10.8840    8.9940 C.2   114  PRO114      0.2269
     21  O         59.5550  -11.1920    8.4390 O.2   114  PRO114     -0.2865
     22  CB        61.4610  -13.0190    9.9800 C.3   114  PRO114      0.0296
     23  CG        61.0200  -13.7500   11.1800 C.3   114  PRO114      0.0237
     24  CD        59.7480  -13.0700   11.6800 C.3   114  PRO114      0.0939
     25  N         58.3490  -12.2090    5.7940 N.3   117  ASN117     -0.1240
     26  CA        57.9260  -13.5990    5.9860 C.3   117  ASN117      0.1653
     27  C         56.4270  -13.6690    6.3270 C.2   117  ASN117      0.2266
     28  O         56.0130  -13.5140    7.4800 O.2   117  ASN117     -0.2867
     29  CB        58.7840  -14.2310    7.0910 C.3   117  ASN117      0.1155
     30  CG        58.5280  -15.7120    7.2500 C.2   117  ASN117      0.2627
     31  OD1       57.4720  -16.2170    6.8240 O.2   117  ASN117     -0.2716
     32  ND2       59.4840  -16.4410    7.8410 N.am  117  ASN117     -0.0877
     33  N         54.4530  -16.3040    6.2230 N.3   119  LYS119     -0.1231
     34  CA        54.1350  -17.4990    7.0090 C.3   119  LYS119      0.1693
     35  C         54.3240  -17.1920    8.4740 C.2   119  LYS119      0.2591
     36  O         53.5050  -17.6040    9.3170 O.2   119  LYS119     -0.2718
     37  CB        55.0190  -18.6870    6.5920 C.3   119  LYS119      0.0285
     38  CG        54.7380  -19.9410    7.3900 C.3   119  LYS119      0.0035
     39  CD        55.5660  -21.1380    6.8950 C.3   119  LYS119      0.0206
     40  CE        54.9720  -22.4810    7.3140 C.3   119  LYS119      0.1093
     41  NZ        53.6230  -22.7990    6.7290 N.3   119  LYS119     -0.1314
     42  N         55.4000  -16.4850    8.8140 N.am  120  ALA120     -0.1980
     43  CA        55.6440  -16.0730   10.2120 C.3   120  ALA120      0.1597
     44  C         54.5510  -15.0900   10.6680 C.2   120  ALA120      0.2287
     45  O         54.0740  -15.1530   11.8150 O.2   120  ALA120     -0.2864
     46  CB        57.0210  -15.4510   10.3330 C.3   120  ALA120      0.0319
     47  N         51.5860  -17.0980   11.4960 N.3   123  ARG123     -0.1231
     48  CA        51.7910  -17.8350   12.7400 C.3   123  ARG123      0.1694
     49  C         51.5620  -16.8910   13.9300 C.2   123  ARG123      0.2591
     50  O         50.9540  -17.2910   14.9270 O.2   123  ARG123     -0.2718
     51  CB        53.2380  -18.3490   12.7870 C.3   123  ARG123      0.0321
     52  CG        53.5250  -19.3560   13.9160 C.3   123  ARG123      0.0489
     53  CD        53.4370  -20.7660   13.2890 C.3   123  ARG123      0.2205
     54  NE        54.4890  -20.9130   12.2720 N.pl3 123  ARG123     -0.0865
     55  CZ        54.6450  -21.9770   11.5150 C.cat 123  ARG123      0.5346
     56  NH1       53.7750  -22.9910   11.6200 N.pl3 123  ARG123      0.1354
     57  NH2       55.6680  -22.0030   10.6430 N.pl3 123  ARG123      0.1354
     58  N         52.0220  -15.6490   13.8280 N.am  124  ALA124     -0.1980
     59  CA        51.8380  -14.6700   14.8820 C.3   124  ALA124      0.1597
     60  C         50.3800  -14.3570   15.0510 C.2   124  ALA124      0.2287
     61  O         49.9030  -14.2860   16.1950 O.2   124  ALA124     -0.2864
     62  CB        52.6440  -13.4040   14.6490 C.3   124  ALA124      0.0319
     63  N         48.7980  -17.4370   16.7850 N.3   127  ARG127     -0.1231
     64  CA        49.2160  -17.8660   18.1120 C.3   127  ARG127      0.1694
     65  C         49.2680  -16.7300   19.1170 C.2   127  ARG127      0.2591
     66  O         49.2290  -16.9800   20.3250 O.2   127  ARG127     -0.2718
     67  CB        50.5720  -18.5610   18.0310 C.3   127  ARG127      0.0321
     68  CG        50.4310  -19.8940   17.2760 C.3   127  ARG127      0.0489
     69  CD        51.7190  -20.6380   17.2180 C.3   127  ARG127      0.2205
     70  NE        51.5810  -21.9040   16.5130 N.pl3 127  ARG127     -0.0865
     71  CZ        51.3410  -23.0780   17.1000 C.cat 127  ARG127      0.5346
     72  NH1       51.2070  -23.1680   18.4390 N.pl3 127  ARG127      0.1354
     73  NH2       51.2440  -24.1700   16.3400 N.pl3 127  ARG127      0.1354
     74  N         49.3850  -15.4840   18.6450 N.am  128  VAL128     -0.1980
     75  CA        49.5650  -14.3310   19.5230 C.3   128  VAL128      0.1595
     76  C         48.3210  -13.4880   19.5850 C.2   128  VAL128      0.2287
     77  O         47.7690  -13.2160   20.6650 O.2   128  VAL128     -0.2864
     78  CB        50.7890  -13.4960   19.1220 C.3   128  VAL128      0.0276
     79  CG1       50.9480  -12.3470   20.1070 C.3   128  VAL128      0.0022
     80  CG2       52.0250  -14.3450   19.2530 C.3   128  VAL128      0.0022
     81  N         54.3750   -6.9890   17.4490 N.3   212  PHE212     -0.1241
     82  CA        53.3200   -7.0410   18.4580 C.3   212  PHE212      0.1605
     83  C         53.8940   -6.7990   19.8410 C.2   212  PHE212      0.2264
     84  O         55.0760   -7.0440   20.0730 O.2   212  PHE212     -0.2867
     85  CB        52.5720   -8.3830   18.4030 C.3   212  PHE212      0.0534
     86  CG        53.4270   -9.6070   18.5790 C.ar  212  PHE212     -0.0203
     87  CD1       53.7430  -10.1020   19.8610 C.ar  212  PHE212     -0.0042
     88  CD2       53.9740  -10.2580   17.4760 C.ar  212  PHE212     -0.0042
     89  CE1       54.5740  -11.2490   19.9980 C.ar  212  PHE212     -0.0003
     90  CE2       54.7630  -11.4110   17.6130 C.ar  212  PHE212     -0.0003
     91  CZ        55.0540  -11.9000   18.8820 C.ar  212  PHE212     -0.0000
@<TRIPOS>BOND
     1    25    26    1
     2    26    27    1
     3    26    29    1
     4    33    34    1
     5    27    28    2
     6    37    34    1
     7    37    38    1
     8    41    40    1
     9    31    30    2
    10    39    40    1
    11    39    38    1
    12    34    35    1
    13    29    30    1
    14    30    32   am
    15    21    20    2
    16    35    42   am
    17    35    36    2
    18    42    43    1
    19    20    19    1
    20    22    19    1
    21    22    23    1
    22    43    46    1
    23    43    44    1
    24    19    18    1
    25    16    14    1
    26    57    55    1
    27    44    45    2
    28    23    24    1
    29    13    12    2
    30    18    12   am
    31    18    24    1
    32    47    48    1
    33    55    56    1
    34    55    54    2
    35    12    11    1
    36    14    11    1
    37    14    15    1
    38    54    53    1
    39    11    10    1
    40    15    17    1
    41    48    51    1
    42    48    49    1
    43    51    52    1
    44    53    52    1
    45    10     3   am
    46    58    49   am
    47    58    59    1
    48    49    50    2
    49     3     4    2
    50     3     2    1
    51    62    59    1
    52    59    60    1
    53     5     2    1
    54     5     6    1
    55     9     7   ar
    56    60    61    2
    57     8     7   ar
    58     7     6    1
    59     2     1    1
    60    73    71    1
    61    70    71    2
    62    70    69    1
    63    63    64    1
    64    71    72    1
    65    69    68    1
    66    68    67    1
    67    81    82    1
    68    88    90   ar
    69    88    86   ar
    70    90    91   ar
    71    67    64    1
    72    64    65    1
    73    85    82    1
    74    85    86    1
    75    82    83    1
    76    86    87   ar
    77    74    65   am
    78    74    75    1
    79    91    89   ar
    80    65    66    2
    81    78    80    1
    82    78    75    1
    83    78    79    1
    84    75    76    1
    85    76    77    2
    86    83    84    2
    87    87    89   ar
