@<TRIPOS>MOLECULE
tmp/6ashA01.pdb
 83 81 0 0 0
SMALL
GASTEIGER

@<TRIPOS>ATOM
      1  N         51.3380   12.0790   21.5760 N.3    55  ASP55      -0.1225
      2  CA        51.9390   13.1890   22.3450 C.3    55  ASP55       0.1805
      3  C         53.1940   12.8090   23.1190 C.2    55  ASP55       0.2598
      4  O         54.0230   13.6920   23.4370 O.2    55  ASP55      -0.2718
      5  CB        50.9450   13.6840   23.3820 C.3    55  ASP55       0.1424
      6  CG        49.7140   14.2890   22.7780 C.2    55  ASP55       0.3668
      7  OD1       49.6730   14.6350   21.5750 O.co2  55  ASP55      -0.2456
      8  OD2       48.7190   14.4070   23.5560 O.co2  55  ASP55      -0.2456
      9  N         53.3510   11.5300   23.4570 N.am   56  CYS56      -0.1956
     10  CA        54.3390   11.1640   24.4690 C.3    56  CYS56       0.1843
     11  C         55.4740   10.3190   23.9270 C.2    56  CYS56       0.2625
     12  O         56.4980   10.1640   24.5940 O.2    56  CYS56      -0.2714
     13  CB        53.6900   10.4620   25.6650 C.3    56  CYS56       0.0997
     14  SG        52.3150   11.4040   26.3980 S.3    56  CYS56      -0.0797
     15  N         55.3290    9.7150   22.7560 N.am   57  VAL57      -0.1963
     16  CA        56.4550    8.9140   22.2100 C.3    57  VAL57       0.1727
     17  C         57.4350    9.8850   21.5350 C.2    57  VAL57       0.2617
     18  O         57.2970   10.2470   20.3600 O.2    57  VAL57      -0.2715
     19  CB        55.9990    7.8350   21.2260 C.3    57  VAL57       0.0290
     20  CG1       57.1860    6.9670   20.7660 C.3    57  VAL57       0.0023
     21  CG2       54.9480    6.9180   21.8920 C.3    57  VAL57       0.0023
     22  N         58.4290   10.3090   22.3060 N.am   58  SER58      -0.1936
     23  CA        59.3970   11.3150   21.8080 C.3    58  SER58       0.2055
     24  C         60.2060   10.8270   20.6090 C.2    58  SER58       0.2642
     25  O         60.6330   11.6500   19.7880 O.2    58  SER58      -0.2714
     26  CB        60.3530   11.7870   22.9390 C.3    58  SER58       0.2130
     27  OG        61.1670   10.7190   23.3670 O.3    58  SER58      -0.2179
     28  N         60.3830    9.5080   20.4930 N.am   59  GLU59      -0.1976
     29  CA        61.1670    8.9370   19.3830 C.3    59  GLU59       0.1602
     30  C         60.3760    8.9170   18.0620 C.2    59  GLU59       0.2287
     31  O         60.9520    8.6800   17.0010 O.2    59  GLU59      -0.2864
     32  CB        61.5940    7.5060   19.7080 C.3    59  GLU59       0.0415
     33  CG        62.5810    7.3770   20.8700 C.3    59  GLU59       0.1163
     34  CD        64.0110    7.7480   20.4880 C.2    59  GLU59       0.3649
     35  OE1       64.3310    7.7900   19.2710 O.co2  59  GLU59      -0.2457
     36  OE2       64.8270    7.9690   21.4040 O.co2  59  GLU59      -0.2457
     37  N         57.7440    2.6990   24.4220 N.3    74  TYR74      -0.1241
     38  CA        57.2770    3.7940   25.2830 C.3    74  TYR74       0.1605
     39  C         56.3420    3.2190   26.3510 C.2    74  TYR74       0.2264
     40  O         56.4790    3.5460   27.5330 O.2    74  TYR74      -0.2867
     41  CB        56.5330    4.8770   24.4780 C.3    74  TYR74       0.0534
     42  CG        55.6520    5.7290   25.3480 C.ar   74  TYR74      -0.0201
     43  CD1       56.1820    6.8010   26.0690 C.ar   74  TYR74      -0.0009
     44  CD2       54.2920    5.4460   25.4740 C.ar   74  TYR74      -0.0009
     45  CE1       55.3430    7.5900   26.9040 C.ar   74  TYR74       0.0417
     46  CE2       53.4640    6.1950   26.2960 C.ar   74  TYR74       0.0417
     47  CZ        54.0000    7.2640   27.0090 C.ar   74  TYR74       0.1957
     48  OH        53.1480    8.0020   27.8080 O.3    74  TYR74      -0.2866
     49  N         58.4670    1.4210   28.9800 N.3    77  LYS77      -0.1231
     50  CA        59.3260    2.2600   29.8070 C.3    77  LYS77       0.1693
     51  C         58.5390    3.2590   30.6550 C.2    77  LYS77       0.2592
     52  O         58.9490    3.6090   31.7540 O.2    77  LYS77      -0.2718
     53  CB        60.3720    2.9600   28.9190 C.3    77  LYS77       0.0285
     54  CG        61.3600    1.9550   28.3180 C.3    77  LYS77       0.0035
     55  CD        62.3180    2.5830   27.3860 C.3    77  LYS77       0.0206
     56  CE        63.2890    1.5550   26.8370 C.3    77  LYS77       0.1093
     57  NZ        64.1700    2.1930   25.8050 N.3    77  LYS77      -0.1314
     58  N         57.3870    3.6790   30.1660 N.am   78  ASN78      -0.1974
     59  CA        56.4930    4.5630   30.8670 C.3    78  ASN78       0.1688
     60  C         55.7200    3.8460   31.9530 C.2    78  ASN78       0.2292
     61  O         55.1030    4.5150   32.8020 O.2    78  ASN78      -0.2864
     62  CB        55.4760    5.1980   29.8890 C.3    78  ASN78       0.1181
     63  CG        54.6810    6.3160   30.5190 C.2    78  ASN78       0.2629
     64  OD1       55.2580    7.2800   31.0310 O.2    78  ASN78      -0.2716
     65  ND2       53.3500    6.2170   30.4600 N.am   78  ASN78      -0.0877
     66  N         52.6480   16.1650   26.2080 N.3    96  CYS96      -0.1235
     67  CA        52.2880   14.8910   26.8180 C.3    96  CYS96       0.1677
     68  C         51.5230   15.1210   28.1140 C.2    96  CYS96       0.2270
     69  O         52.0160   15.7750   29.0350 O.2    96  CYS96      -0.2867
     70  CB        53.5520   14.0810   27.0990 C.3    96  CYS96       0.0956
     71  SG        53.2060   12.4840   27.8730 S.3    96  CYS96      -0.0801
     72  N         49.9660   12.4250   29.8190 N.3    98  TYR98      -0.1241
     73  CA        49.7270   11.0970   30.3780 C.3    98  TYR98       0.1605
     74  C         49.3420   11.2220   31.8630 C.2    98  TYR98       0.2264
     75  O         49.9930   11.9440   32.6300 O.2    98  TYR98      -0.2867
     76  CB        50.9840   10.2390   30.2280 C.3    98  TYR98       0.0534
     77  CG        50.8890    8.9370   31.0070 C.ar   98  TYR98      -0.0201
     78  CD1       50.1120    7.8620   30.5400 C.ar   98  TYR98      -0.0009
     79  CD2       51.5950    8.7880   32.1920 C.ar   98  TYR98      -0.0009
     80  CE1       50.0280    6.6800   31.2660 C.ar   98  TYR98       0.0417
     81  CE2       51.5080    7.5990   32.9540 C.ar   98  TYR98       0.0417
     82  CZ        50.7240    6.5600   32.4670 C.ar   98  TYR98       0.1957
     83  OH        50.6570    5.3500   33.1330 O.3    98  TYR98      -0.2866
@<TRIPOS>BOND
     1    31    30    2
     2    30    29    1
     3    35    34   ar
     4    29    32    1
     5    29    28    1
     6    32    33    1
     7    25    24    2
     8    18    17    2
     9    34    33    1
    10    34    36   ar
    11    28    24   am
    12    24    23    1
    13    20    19    1
    14    19    21    1
    15    19    16    1
    16    17    16    1
    17    17    22   am
    18     7     6   ar
    19     1     2    1
    20    23    22    1
    21    23    26    1
    22    16    15    1
    23     2     3    1
    24     2     5    1
    25    15    11   am
    26     6     5    1
    27     6     8   ar
    28    26    27    1
    29     3     4    2
    30     3     9   am
    31     9    10    1
    32    11    10    1
    33    11    12    2
    34    37    38    1
    35    10    13    1
    36    41    38    1
    37    41    42    1
    38    38    39    1
    39    42    44   ar
    40    42    43   ar
    41    44    46   ar
    42    13    14    1
    43    57    56    1
    44    43    45   ar
    45    66    67    1
    46    46    47   ar
    47    39    40    2
    48    14    71    1
    49    67    70    1
    50    67    68    1
    51    56    55    1
    52    45    47   ar
    53    47    48    1
    54    70    71    1
    55    55    54    1
    56    68    69    2
    57    54    53    1
    58    53    50    1
    59    49    50    1
    60    50    51    1
    61    72    73    1
    62    62    63    1
    63    62    59    1
    64    58    51   am
    65    58    59    1
    66    76    73    1
    67    76    77    1
    68    73    74    1
    69    65    63   am
    70    63    64    2
    71    78    77   ar
    72    78    80   ar
    73    51    52    2
    74    59    60    1
    75    77    79   ar
    76    80    82   ar
    77    74    75    2
    78    60    61    2
    79    79    81   ar
    80    82    81   ar
    81    82    83    1
