@<TRIPOS>MOLECULE
tmp/6aslA01.pdb
 95 92 0 0 0
SMALL
GASTEIGER

@<TRIPOS>ATOM
      1  N        -14.0930    1.0370  -32.9500 N.3    10  MET10      -0.1245
      2  CA       -14.0770    2.4860  -33.0060 C.3    10  MET10       0.1570
      3  C        -12.6540    2.9730  -32.7920 C.2    10  MET10       0.2261
      4  O        -12.0560    2.7030  -31.7510 O.2    10  MET10      -0.2867
      5  CB       -15.0200    3.0610  -31.9510 C.3    10  MET10       0.0387
      6  CG       -15.0760    4.5730  -31.9860 C.3    10  MET10       0.0595
      7  SD       -16.3920    5.1160  -30.8870 S.3    10  MET10      -0.1393
      8  CE       -15.9160    6.8150  -30.7160 C.3    10  MET10       0.0692
      9  N        -10.2640    6.1030  -32.2920 N.3    12  HIS12      -0.1241
     10  CA       -10.6460    7.3920  -31.7160 C.3    12  HIS12       0.1621
     11  C         -9.4160    8.1210  -31.1720 C.2    12  HIS12       0.2264
     12  O         -9.4850    8.8070  -30.1510 O.2    12  HIS12      -0.2867
     13  CB       -11.6870    7.1590  -30.6190 C.3    12  HIS12       0.0745
     14  CG       -12.6850    8.2590  -30.4320 C.ar   12  HIS12       0.0817
     15  ND1      -13.4190    8.8100  -31.4580 N.ar   12  HIS12      -0.2268
     16  CD2      -13.1340    8.8500  -29.2940 C.ar   12  HIS12       0.1154
     17  CE1      -14.2370    9.7280  -30.9760 C.ar   12  HIS12       0.1986
     18  NE2      -14.0950    9.7610  -29.6610 N.ar   12  HIS12      -0.2212
     19  N        -14.7670    2.0030  -37.3590 N.3    53  PHE53      -0.1241
     20  CA       -15.6900    3.1160  -37.2590 C.3    53  PHE53       0.1605
     21  C        -14.9590    4.3750  -36.8330 C.2    53  PHE53       0.2264
     22  O        -14.1860    4.3650  -35.8710 O.2    53  PHE53      -0.2867
     23  CB       -16.7860    2.8020  -36.2580 C.3    53  PHE53       0.0534
     24  CG       -17.6080    3.9890  -35.8820 C.ar   53  PHE53      -0.0203
     25  CD1      -17.7290    4.3780  -34.5670 C.ar   53  PHE53      -0.0042
     26  CD2      -18.2660    4.7350  -36.8630 C.ar   53  PHE53      -0.0042
     27  CE1      -18.5020    5.4700  -34.2280 C.ar   53  PHE53      -0.0003
     28  CE2      -19.0350    5.8260  -36.5140 C.ar   53  PHE53      -0.0003
     29  CZ       -19.1510    6.1860  -35.1800 C.ar   53  PHE53      -0.0000
     30  N        -15.9190    8.0880  -35.6790 N.3    55  ALA55      -0.1231
     31  CA       -16.8950    9.0560  -35.1770 C.3    55  ALA55       0.1694
     32  C        -16.4470   10.4520  -35.5890 C.2    55  ALA55       0.2592
     33  O        -15.3180   10.6460  -36.0460 O.2    55  ALA55      -0.2718
     34  CB       -17.0290    8.9310  -33.6470 C.3    55  ALA55       0.0304
     35  N        -17.3430   11.4380  -35.4950 N.am   56  ASP56      -0.1960
     36  CA       -16.9570   12.7750  -35.9380 C.3    56  ASP56       0.1840
     37  C        -17.8080   13.8440  -35.2570 C.2    56  ASP56       0.2622
     38  O        -18.9220   13.5780  -34.8000 O.2    56  ASP56      -0.2715
     39  CB       -17.0790   12.9090  -37.4650 C.3    56  ASP56       0.1450
     40  CG       -16.2430   14.0420  -38.0400 C.2    56  ASP56       0.3671
     41  OD1      -15.0860   14.1920  -37.6190 O.co2  56  ASP56      -0.2456
     42  OD2      -16.7340   14.7750  -38.9470 O.co2  56  ASP56      -0.2456
     43  N        -17.2690   15.0790  -35.2580 N.am   57  GLY57      -0.1954
     44  CA       -17.9920   16.2860  -34.8950 C.3    57  GLY57       0.1869
     45  C        -17.3750   17.4840  -35.5970 C.2    57  GLY57       0.2309
     46  O        -16.2930   17.3960  -36.1870 O.2    57  GLY57      -0.2863
     47  N        -17.4930   21.0750  -34.3730 N.3    59  PHE59      -0.1241
     48  CA       -17.3870   22.2980  -33.5770 C.3    59  PHE59       0.1605
     49  C        -16.5830   22.0000  -32.3180 C.2    59  PHE59       0.2264
     50  O        -16.8510   20.9980  -31.6410 O.2    59  PHE59      -0.2867
     51  CB       -18.7770   22.8440  -33.1970 C.3    59  PHE59       0.0534
     52  CG       -18.7410   24.1570  -32.4590 C.ar   59  PHE59      -0.0203
     53  CD1      -18.5080   25.3480  -33.1250 C.ar   59  PHE59      -0.0042
     54  CD2      -18.9600   24.1980  -31.0800 C.ar   59  PHE59      -0.0042
     55  CE1      -18.4950   26.5550  -32.4220 C.ar   59  PHE59      -0.0003
     56  CE2      -18.9560   25.4030  -30.3960 C.ar   59  PHE59      -0.0003
     57  CZ       -18.7130   26.5660  -31.0650 C.ar   59  PHE59      -0.0000
     58  N        -10.8780   15.7600  -29.8880 N.3    68  PHE68      -0.1241
     59  CA       -11.7290   16.6010  -30.7340 C.3    68  PHE68       0.1605
     60  C        -10.9990   17.8490  -31.2440 C.2    68  PHE68       0.2264
     61  O        -11.3880   18.4050  -32.2920 O.2    68  PHE68      -0.2867
     62  CB       -12.9940   17.0710  -30.0110 C.3    68  PHE68       0.0534
     63  CG       -14.0070   15.9950  -29.6990 C.ar   68  PHE68      -0.0203
     64  CD1      -13.8120   14.6680  -30.0500 C.ar   68  PHE68      -0.0042
     65  CD2      -15.1780   16.3340  -29.0150 C.ar   68  PHE68      -0.0042
     66  CE1      -14.7670   13.6970  -29.7530 C.ar   68  PHE68      -0.0003
     67  CE2      -16.1330   15.3620  -28.6880 C.ar   68  PHE68      -0.0003
     68  CZ       -15.9300   14.0380  -29.0830 C.ar   68  PHE68      -0.0000
     69  N         -7.7010   16.2970  -35.1560 N.3    71  ARG71      -0.1245
     70  CA        -7.8960   14.9130  -35.5480 C.3    71  ARG71       0.1563
     71  C         -8.1330   14.8000  -37.0420 C.2    71  ARG71       0.2260
     72  O         -8.5220   15.7660  -37.7010 O.2    71  ARG71      -0.2867
     73  CB        -9.0710   14.2920  -34.8270 C.3    71  ARG71       0.0307
     74  CG       -10.3690   15.0590  -34.9810 C.3    71  ARG71       0.0489
     75  CD       -11.5200   14.1160  -34.6170 C.3    71  ARG71       0.2205
     76  NE       -12.6880   14.8590  -34.2650 N.pl3  71  ARG71      -0.0865
     77  CZ       -13.7980   14.3260  -33.7660 C.cat  71  ARG71       0.5346
     78  NH1      -13.9590   13.0100  -33.5960 N.pl3  71  ARG71       0.1354
     79  NH2      -14.7630   15.1430  -33.4410 N.pl3  71  ARG71       0.1354
     80  N        -26.0000   17.3830  -33.5790 N.3   127  PRO127     -0.2102
     81  CA       -26.5770   17.9960  -32.3690 C.3   127  PRO127      0.1504
     82  C        -25.7640   19.2280  -31.7660 C.2   127  PRO127      0.2575
     83  O        -26.2420   19.7830  -30.7880 O.2   127  PRO127     -0.2718
     84  CB       -26.4250   16.8340  -31.3530 C.3   127  PRO127      0.0282
     85  CG       -25.0490   16.3680  -31.6920 C.3   127  PRO127      0.0208
     86  CD       -24.9510   16.4350  -33.2040 C.3   127  PRO127      0.0893
     87  N        -24.6460   19.6620  -32.3530 N.am  128  GLN128     -0.1980
     88  CA       -23.6640   20.6260  -31.7680 C.3   128  GLN128      0.1601
     89  C        -24.1370   22.0270  -32.2920 C.2   128  GLN128      0.2287
     90  O        -23.9270   22.2680  -33.4420 O.2   128  GLN128     -0.2864
     91  CB       -22.1850   20.1960  -32.1370 C.3   128  GLN128      0.0394
     92  CG       -22.1790   18.8750  -33.0190 C.3   128  GLN128      0.0908
     93  CD       -20.8270   18.5400  -33.7080 C.2   128  GLN128      0.2608
     94  OE1      -20.6960   18.4030  -34.9310 O.2   128  GLN128     -0.2717
     95  NE2      -19.8080   18.3860  -32.8870 N.am  128  GLN128     -0.0878
@<TRIPOS>BOND
     1    42    40   ar
     2    40    41   ar
     3    40    39    1
     4    72    71    2
     5    39    36    1
     6    19    20    1
     7    20    21    1
     8    20    23    1
     9    71    70    1
    10    26    28   ar
    11    26    24   ar
    12    21    22    2
    13    28    29   ar
    14    23    24    1
    15    46    45    2
    16    33    32    2
    17    36    35    1
    18    36    37    1
    19    24    25   ar
    20    30    31    1
    21    45    44    1
    22    32    35   am
    23    32    31    1
    24    70    69    1
    25    70    73    1
    26    43    37   am
    27    43    44    1
    28    37    38    2
    29    29    27   ar
    30    31    34    1
    31    74    73    1
    32    74    75    1
    33    94    93    2
    34    75    76    1
    35    25    27   ar
    36    47    48    1
    37    76    77    2
    38    77    78    1
    39    77    79    1
    40    93    92    1
    41    93    95   am
    42    80    86    1
    43    80    81    1
    44    48    51    1
    45    48    49    1
    46    90    89    2
    47    86    85    1
    48    51    52    1
    49    53    52   ar
    50    53    55   ar
    51    92    91    1
    52     2     1    1
    53     2     3    1
    54     2     5    1
    55     3     4    2
    56    52    54   ar
    57    55    57   ar
    58    81    82    1
    59    81    84    1
    60    87    88    1
    61    87    82   am
    62    49    50    2
    63     9    10    1
    64    61    60    2
    65    89    88    1
    66    91    88    1
    67     6     5    1
    68     6     7    1
    69    82    83    2
    70    10    11    1
    71    10    13    1
    72    85    84    1
    73    15    17   ar
    74    15    14   ar
    75    60    59    1
    76    11    12    2
    77    54    56   ar
    78    57    56   ar
    79    17    18   ar
    80     7     8    1
    81    59    62    1
    82    59    58    1
    83    13    14    1
    84    14    16   ar
    85    64    66   ar
    86    64    63   ar
    87    62    63    1
    88    66    68   ar
    89    63    65   ar
    90    18    16   ar
    91    68    67   ar
    92    65    67   ar
