@<TRIPOS>MOLECULE
tmp/6aslA00.pdb
 173 165 0 0 0
SMALL
GASTEIGER

@<TRIPOS>ATOM
      1  N        -14.0930    1.0370  -32.9500 N.3    10  MET10      -0.1245
      2  CA       -14.0770    2.4860  -33.0060 C.3    10  MET10       0.1570
      3  C        -12.6540    2.9730  -32.7920 C.2    10  MET10       0.2261
      4  O        -12.0560    2.7030  -31.7510 O.2    10  MET10      -0.2867
      5  CB       -15.0200    3.0610  -31.9510 C.3    10  MET10       0.0387
      6  CG       -15.0760    4.5730  -31.9860 C.3    10  MET10       0.0595
      7  SD       -16.3920    5.1160  -30.8870 S.3    10  MET10      -0.1393
      8  CE       -15.9160    6.8150  -30.7160 C.3    10  MET10       0.0692
      9  N        -14.7670    2.0030  -37.3590 N.3    53  PHE53      -0.1241
     10  CA       -15.6900    3.1160  -37.2590 C.3    53  PHE53       0.1605
     11  C        -14.9590    4.3750  -36.8330 C.2    53  PHE53       0.2264
     12  O        -14.1860    4.3650  -35.8710 O.2    53  PHE53      -0.2867
     13  CB       -16.7860    2.8020  -36.2580 C.3    53  PHE53       0.0534
     14  CG       -17.6080    3.9890  -35.8820 C.ar   53  PHE53      -0.0203
     15  CD1      -17.7290    4.3780  -34.5670 C.ar   53  PHE53      -0.0042
     16  CD2      -18.2660    4.7350  -36.8630 C.ar   53  PHE53      -0.0042
     17  CE1      -18.5020    5.4700  -34.2280 C.ar   53  PHE53      -0.0003
     18  CE2      -19.0350    5.8260  -36.5140 C.ar   53  PHE53      -0.0003
     19  CZ       -19.1510    6.1860  -35.1800 C.ar   53  PHE53      -0.0000
     20  N        -15.9190    8.0880  -35.6790 N.3    55  ALA55      -0.1231
     21  CA       -16.8950    9.0560  -35.1770 C.3    55  ALA55       0.1694
     22  C        -16.4470   10.4520  -35.5890 C.2    55  ALA55       0.2592
     23  O        -15.3180   10.6460  -36.0460 O.2    55  ALA55      -0.2718
     24  CB       -17.0290    8.9310  -33.6470 C.3    55  ALA55       0.0304
     25  N        -17.3430   11.4380  -35.4950 N.am   56  ASP56      -0.1974
     26  CA       -16.9570   12.7750  -35.9380 C.3    56  ASP56       0.1709
     27  C        -17.8080   13.8440  -35.2570 C.2    56  ASP56       0.2293
     28  O        -18.9220   13.5780  -34.8000 O.2    56  ASP56      -0.2864
     29  CB       -17.0790   12.9090  -37.4650 C.3    56  ASP56       0.1436
     30  CG       -16.2430   14.0420  -38.0400 C.2    56  ASP56       0.3671
     31  OD1      -15.0860   14.1920  -37.6190 O.co2  56  ASP56      -0.2456
     32  OD2      -16.7340   14.7750  -38.9470 O.co2  56  ASP56      -0.2456
     33  N        -18.6590    8.7840  -39.8460 N.3    93  THR93      -0.1218
     34  CA       -19.7430    9.7000  -39.5120 C.3    93  THR93       0.1862
     35  C        -19.7500   10.8700  -40.4860 C.2    93  THR93       0.2287
     36  O        -18.7230   11.5220  -40.6890 O.2    93  THR93      -0.2866
     37  CB       -19.5850   10.2220  -38.0910 C.3    93  THR93       0.1770
     38  OG1      -19.7710    9.1440  -37.2060 O.3    93  THR93      -0.2211
     39  CG2      -20.5940   11.3100  -37.7940 C.3    93  THR93       0.0375
     40  N        -22.2570    6.3460  -41.0710 N.3   122  ASN122     -0.1240
     41  CA       -22.9810    6.6280  -39.8330 C.3   122  ASN122      0.1653
     42  C        -23.6670    7.9820  -39.9780 C.2   122  ASN122      0.2266
     43  O        -23.0110    9.0250  -39.9770 O.2   122  ASN122     -0.2867
     44  CB       -22.0610    6.6250  -38.6190 C.3   122  ASN122      0.1155
     45  CG       -22.8380    6.9420  -37.3470 C.2   122  ASN122      0.2627
     46  OD1      -23.9450    6.4670  -37.1700 O.2   122  ASN122     -0.2716
     47  ND2      -22.3000    7.8000  -36.5250 N.am  122  ASN122     -0.0877
     48  N        -25.5530   11.1180  -39.0600 N.3   124  VAL124     -0.1231
     49  CA       -25.9390   11.8610  -37.9070 C.3   124  VAL124      0.1692
     50  C        -26.5900   13.2240  -38.2950 C.2   124  VAL124      0.2592
     51  O        -26.2300   13.7290  -39.3150 O.2   124  VAL124     -0.2718
     52  CB       -24.7590   12.1540  -36.9520 C.3   124  VAL124      0.0266
     53  CG1      -24.1000   10.8700  -36.4750 C.3   124  VAL124      0.0020
     54  CG2      -23.7630   13.0830  -37.6130 C.3   124  VAL124      0.0020
     55  N        -27.5800   13.7330  -37.5470 N.am  125  THR125     -0.1953
     56  CA       -28.1380   15.1020  -37.7360 C.3   125  THR125      0.1897
     57  C        -27.2390   15.8140  -36.6980 C.2   125  THR125      0.2313
     58  O        -27.4560   15.5200  -35.5350 O.2   125  THR125     -0.2863
     59  CB       -29.6240   15.2600  -37.3560 C.3   125  THR125      0.1794
     60  OG1      -29.7720   15.5680  -35.9520 O.3   125  THR125     -0.2208
     61  CG2      -30.3780   13.9680  -37.7330 C.3   125  THR125      0.0378
     62  N        -26.0000   17.3830  -33.5790 N.3   127  PRO127     -0.2102
     63  CA       -26.5770   17.9960  -32.3690 C.3   127  PRO127      0.1504
     64  C        -25.7640   19.2280  -31.7660 C.2   127  PRO127      0.2575
     65  O        -26.2420   19.7830  -30.7880 O.2   127  PRO127     -0.2718
     66  CB       -26.4250   16.8340  -31.3530 C.3   127  PRO127      0.0282
     67  CG       -25.0490   16.3680  -31.6920 C.3   127  PRO127      0.0208
     68  CD       -24.9510   16.4350  -33.2040 C.3   127  PRO127      0.0893
     69  N        -24.6460   19.6620  -32.3530 N.am  128  GLN128     -0.1980
     70  CA       -23.6640   20.6260  -31.7680 C.3   128  GLN128      0.1601
     71  C        -24.1370   22.0270  -32.2920 C.2   128  GLN128      0.2287
     72  O        -23.9270   22.2680  -33.4420 O.2   128  GLN128     -0.2864
     73  CB       -22.1850   20.1960  -32.1370 C.3   128  GLN128      0.0394
     74  CG       -22.1790   18.8750  -33.0190 C.3   128  GLN128      0.0908
     75  CD       -20.8270   18.5400  -33.7080 C.2   128  GLN128      0.2608
     76  OE1      -20.6960   18.4030  -34.9310 O.2   128  GLN128     -0.2717
     77  NE2      -19.8080   18.3860  -32.8870 N.am  128  GLN128     -0.0878
     78  N        -34.9690   19.9250  -33.4400 N.3   143  HIS143     -0.1241
     79  CA       -34.6980   18.4850  -33.4760 C.3   143  HIS143      0.1621
     80  C        -35.5590   17.7540  -34.5030 C.2   143  HIS143      0.2264
     81  O        -35.0580   16.9600  -35.3110 O.2   143  HIS143     -0.2867
     82  CB       -34.9390   17.8870  -32.0840 C.3   143  HIS143      0.0745
     83  CG       -34.6130   16.4260  -31.9740 C.ar  143  HIS143      0.0817
     84  ND1      -33.3240   15.9570  -31.8360 N.ar  143  HIS143     -0.2268
     85  CD2      -35.4130   15.3330  -31.9490 C.ar  143  HIS143      0.1154
     86  CE1      -33.3430   14.6410  -31.7300 C.ar  143  HIS143      0.1986
     87  NE2      -34.6010   14.2380  -31.7840 N.ar  143  HIS143     -0.2212
     88  N        -34.4710   15.7950  -38.4140 N.3   147  TYR147     -0.1241
     89  CA       -34.7520   14.4510  -38.9150 C.3   147  TYR147      0.1605
     90  C        -35.5670   14.4780  -40.2180 C.2   147  TYR147      0.2264
     91  O        -35.3800   13.6000  -41.0660 O.2   147  TYR147     -0.2867
     92  CB       -35.4230   13.6110  -37.8140 C.3   147  TYR147      0.0534
     93  CG       -34.3710   12.8910  -36.9730 C.ar  147  TYR147     -0.0201
     94  CD1      -34.0870   13.2790  -35.6600 C.ar  147  TYR147     -0.0009
     95  CD2      -33.5970   11.8800  -37.5280 C.ar  147  TYR147     -0.0009
     96  CE1      -33.0980   12.6280  -34.9180 C.ar  147  TYR147      0.0417
     97  CE2      -32.5930   11.2230  -36.7880 C.ar  147  TYR147      0.0417
     98  CZ       -32.3390   11.6160  -35.5020 C.ar  147  TYR147      0.1957
     99  OH       -31.3410   10.9520  -34.8060 O.3   147  TYR147     -0.2866
    100  N        -26.8670    4.1410  -38.0100 N.3   214  GLN214     -0.1231
    101  CA       -27.5160    5.2730  -37.3770 C.3   214  GLN214      0.1698
    102  C        -27.5750    5.0390  -35.8730 C.2   214  GLN214      0.2592
    103  O        -27.6540    3.9000  -35.4170 O.2   214  GLN214     -0.2718
    104  CB       -28.9130    5.4720  -37.9470 C.3   214  GLN214      0.0381
    105  CG       -29.2610    6.9230  -38.2100 C.3   214  GLN214      0.0905
    106  CD       -29.7500    7.6550  -36.9900 C.2   214  GLN214      0.2608
    107  OE1      -30.5280    7.1120  -36.2030 O.2   214  GLN214     -0.2717
    108  NE2      -29.3130    8.9160  -36.8300 N.am  214  GLN214     -0.0878
    109  N        -27.5430    6.1260  -35.1030 N.am  215  ALA215     -0.1966
    110  CA       -27.4860    5.9990  -33.6490 C.3   215  ALA215      0.1728
    111  C        -28.6430    6.6860  -32.9360 C.2   215  ALA215      0.2617
    112  O        -28.5370    6.9480  -31.7400 O.2   215  ALA215     -0.2715
    113  CB       -26.1620    6.5480  -33.1020 C.3   215  ALA215      0.0334
    114  N        -29.7570    6.9660  -33.6080 N.am  216  GLY216     -0.1940
    115  CA       -30.8360    7.6880  -32.9370 C.3   216  GLY216      0.2014
    116  C        -31.3430    6.9470  -31.7070 C.2   216  GLY216      0.2640
    117  O        -31.5330    5.7330  -31.7250 O.2   216  GLY216     -0.2714
    118  N        -31.5560    7.6940  -30.6210 N.am  217  SER217     -0.1935
    119  CA       -32.0850    7.1480  -29.3710 C.3   217  SER217      0.2055
    120  C        -33.3580    7.8250  -28.9000 C.2   217  SER217      0.2643
    121  O        -34.0630    7.2530  -28.0610 O.2   217  SER217     -0.2714
    122  CB       -31.0530    7.2870  -28.2520 C.3   217  SER217      0.2130
    123  OG       -30.8290    8.6620  -28.0100 O.3   217  SER217     -0.2179
    124  N        -33.6510    9.0390  -29.3640 N.am  218  SER218     -0.1949
    125  CA       -34.9410    9.6530  -29.0550 C.3   218  SER218      0.1924
    126  C        -36.0710    8.8930  -29.7550 C.2   218  SER218      0.2314
    127  O        -35.8350    8.0230  -30.5950 O.2   218  SER218     -0.2863
    128  CB       -34.9520   11.1110  -29.5070 C.3   218  SER218      0.2116
    129  OG       -34.9660   11.1770  -30.9410 O.3   218  SER218     -0.2180
    130  N        -35.5770    9.6490  -33.3570 N.3   221  GLY221     -0.1225
    131  CA       -34.3720    9.0330  -33.8860 C.3   221  GLY221      0.1811
    132  C        -34.4710    7.5220  -33.9860 C.2   221  GLY221      0.2280
    133  O        -34.0170    6.9180  -34.9690 O.2   221  GLY221     -0.2866
    134  N        -26.3610    1.8970  -33.7470 N.3   233  PHE233     -0.1227
    135  CA       -25.5100    1.9970  -32.5680 C.3   233  PHE233      0.1736
    136  C        -26.3330    2.3570  -31.3380 C.2   233  PHE233      0.2596
    137  O        -27.2700    3.1530  -31.4050 O.2   233  PHE233     -0.2718
    138  CB       -24.4430    3.0720  -32.7620 C.3   233  PHE233      0.0547
    139  CG       -23.4070    2.7530  -33.8270 C.ar  233  PHE233     -0.0202
    140  CD1      -22.8970    3.7640  -34.6410 C.ar  233  PHE233     -0.0042
    141  CD2      -22.8810    1.4720  -33.9580 C.ar  233  PHE233     -0.0042
    142  CE1      -21.9020    3.4910  -35.5960 C.ar  233  PHE233     -0.0003
    143  CE2      -21.8920    1.1950  -34.8900 C.ar  233  PHE233     -0.0003
    144  CZ       -21.4040    2.2010  -35.7100 C.ar  233  PHE233     -0.0000
    145  N        -25.9410    1.8410  -30.1880 N.am  234  THR234     -0.1939
    146  CA       -26.6350    2.2500  -28.9800 C.3   234  THR234      0.2028
    147  C        -25.6800    2.0870  -27.8110 C.2   234  THR234      0.2642
    148  O        -24.5310    1.6810  -27.9820 O.2   234  THR234     -0.2714
    149  CB       -27.9260    1.4560  -28.7960 C.3   234  THR234      0.1808
    150  OG1      -28.6150    1.9630  -27.6480 O.3   234  THR234     -0.2208
    151  CG2      -27.6200   -0.0510  -28.6140 C.3   234  THR234      0.0379
    152  N        -26.1460    2.4250  -26.6240 N.am  235  HIS235     -0.1973
    153  CA       -25.2830    2.3410  -25.4540 C.3   235  HIS235      0.1656
    154  C        -25.5100    1.0240  -24.7260 C.2   235  HIS235      0.2291
    155  O        -26.4420    0.2750  -25.0180 O.2   235  HIS235     -0.2864
    156  CB       -25.4970    3.5380  -24.5190 C.3   235  HIS235      0.0771
    157  CG       -26.8480    3.5940  -23.8830 C.ar  235  HIS235      0.0820
    158  ND1      -27.2820    2.6600  -22.9670 N.ar  235  HIS235     -0.2267
    159  CD2      -27.8500    4.4950  -24.0050 C.ar  235  HIS235      0.1154
    160  CE1      -28.5000    2.9730  -22.5650 C.ar  235  HIS235      0.1986
    161  NE2      -28.8680    4.0820  -23.1810 N.ar  235  HIS235     -0.2212
    162  N        -22.3130   -0.1510  -27.8210 N.3   268  GLY268     -0.1225
    163  CA       -20.9100    0.2100  -27.6570 C.3   268  GLY268      0.1811
    164  C        -20.3890   -0.2200  -26.2990 C.2   268  GLY268      0.2280
    165  O        -21.0370    0.0130  -25.2740 O.2   268  GLY268     -0.2866
    166  N        -19.8900   -2.6070  -30.9470 N.3   385  ILE385     -0.1245
    167  CA       -18.8470   -1.6890  -31.3890 C.3   385  ILE385      0.1561
    168  C        -17.9040   -1.5030  -30.2040 C.2   385  ILE385      0.2260
    169  O        -18.3420   -1.1880  -29.0960 O.2   385  ILE385     -0.2867
    170  CB       -19.4380   -0.3710  -31.9220 C.3   385  ILE385      0.0252
    171  CG1      -18.3640    0.6920  -32.1670 C.3   385  ILE385      0.0019
    172  CG2      -20.5260    0.1830  -31.0370 C.3   385  ILE385      0.0019
    173  CD1      -17.4870    0.3570  -33.3120 C.3   385  ILE385      0.0001
@<TRIPOS>BOND
     1    40    41    1
     2    91    90    2
     3    36    35    2
     4    35    34    1
     5    90    89    1
     6    42    43    2
     7    42    41    1
     8    33    34    1
     9    41    44    1
    10    34    37    1
    11    51    50    2
    12    48    49    1
    13    32    30   ar
    14    89    88    1
    15    89    92    1
    16    44    45    1
    17    50    49    1
    18    50    55   am
    19   105   104    1
    20   105   106    1
    21    37    39    1
    22    37    38    1
    23    30    31   ar
    24    30    29    1
    25   100   101    1
    26   104   101    1
    27    49    52    1
    28    92    93    1
    29    56    55    1
    30    56    59    1
    31    56    57    1
    32    61    59    1
    33    54    52    1
    34    95    93   ar
    35    95    97   ar
    36    29    26    1
    37   101   102    1
    38     9    10    1
    39    59    60    1
    40    45    46    2
    41    45    47   am
    42    10    11    1
    43    10    13    1
    44   106   108   am
    45   106   107    2
    46    93    94   ar
    47    52    53    1
    48    16    18   ar
    49    16    14   ar
    50    11    12    2
    51    97    98   ar
    52    57    58    2
    53    18    19   ar
    54    13    14    1
    55    23    22    2
    56    26    25    1
    57    26    27    1
    58    14    15   ar
    59   102   103    2
    60   102   109   am
    61   144   142   ar
    62   144   143   ar
    63    20    21    1
    64    94    96   ar
    65   142   140   ar
    66    22    25   am
    67    22    21    1
    68    98    96   ar
    69    98    99    1
    70    81    80    2
    71    27    28    2
    72    19    17   ar
    73    21    24    1
    74   109   110    1
    75   133   132    2
    76    76    75    2
    77   143   141   ar
    78   140   139   ar
    79    15    17   ar
    80    80    79    1
    81   132   131    1
    82   141   139   ar
    83   131   130    1
    84   139   138    1
    85   134   135    1
    86    75    74    1
    87    75    77   am
    88   110   113    1
    89   110   111    1
    90   114   115    1
    91   114   111   am
    92    62    68    1
    93    62    63    1
    94    79    78    1
    95    79    82    1
    96    72    71    2
    97   173   171    1
    98    68    67    1
    99    74    73    1
   100     2     1    1
   101     2     3    1
   102     2     5    1
   103   115   116    1
   104   111   112    2
   105     3     4    2
   106   138   135    1
   107   135   136    1
   108    63    64    1
   109    63    66    1
   110    69    70    1
   111    69    64   am
   112    71    70    1
   113   171   170    1
   114    73    70    1
   115    82    83    1
   116     6     5    1
   117     6     7    1
   118    83    85   ar
   119    83    84   ar
   120    85    87   ar
   121   170   167    1
   122   170   172    1
   123    84    86   ar
   124    87    86   ar
   125    64    65    2
   126   117   116    2
   127   116   118   am
   128    67    66    1
   129   137   136    2
   130   167   166    1
   131   167   168    1
   132   136   145   am
   133   129   128    1
   134     7     8    1
   135   118   119    1
   136   127   126    2
   137   168   169    2
   138   145   146    1
   139   126   125    1
   140   128   125    1
   141   119   120    1
   142   119   122    1
   143   124   125    1
   144   124   120   am
   145   146   149    1
   146   146   147    1
   147   120   121    2
   148   149   151    1
   149   149   150    1
   150   122   123    1
   151   148   147    2
   152   162   163    1
   153   147   152   am
   154   163   164    1
   155   152   153    1
   156   164   165    2
   157   153   154    1
   158   153   156    1
   159   155   154    2
   160   156   157    1
   161   159   157   ar
   162   159   161   ar
   163   157   158   ar
   164   161   160   ar
   165   158   160   ar
