@<TRIPOS>MOLECULE
tmp/6asmA01.pdb
 78 75 0 0 0
SMALL
GASTEIGER

@<TRIPOS>ATOM
      1  N         15.1080  -13.8480   75.7510 N.3    68  ARG68      -0.1245
      2  CA        16.1810  -14.6920   76.2440 C.3    68  ARG68       0.1563
      3  C         15.6040  -16.0830   76.4650 C.2    68  ARG68       0.2260
      4  O         14.7840  -16.2960   77.3640 O.2    68  ARG68      -0.2867
      5  CB        16.7910  -14.1330   77.5300 C.3    68  ARG68       0.0307
      6  CG        17.9230  -15.0330   78.0300 C.3    68  ARG68       0.0489
      7  CD        19.0610  -14.2650   78.6750 C.3    68  ARG68       0.2205
      8  NE        18.6760  -13.5920   79.9110 N.pl3  68  ARG68      -0.0865
      9  CZ        19.2890  -12.5210   80.4050 C.cat  68  ARG68       0.5346
     10  NH1       20.3350  -11.9760   79.7840 N.pl3  68  ARG68       0.1354
     11  NH2       18.8600  -11.9870   81.5350 N.pl3  68  ARG68       0.1354
     12  N         17.1820   -8.1820   77.8630 N.3    88  PRO88      -0.2102
     13  CA        16.4880   -9.4660   77.8490 C.3    88  PRO88       0.1504
     14  C         14.9980   -9.3280   78.0940 C.2    88  PRO88       0.2576
     15  O         14.5260   -8.4600   78.8340 O.2    88  PRO88      -0.2718
     16  CB        17.1600  -10.2420   78.9830 C.3    88  PRO88       0.0282
     17  CG        17.5420   -9.1550   79.9790 C.3    88  PRO88       0.0208
     18  CD        17.9820   -7.9990   79.1020 C.3    88  PRO88       0.0893
     19  N         14.2650  -10.2060   77.4380 N.am   89  LEU89      -0.1966
     20  CA        12.8150  -10.2420   77.5190 C.3    89  LEU89       0.1728
     21  C         12.3630  -11.6750   77.7330 C.2    89  LEU89       0.2616
     22  O         12.9390  -12.6160   77.1630 O.2    89  LEU89      -0.2715
     23  CB        12.1780   -9.6820   76.2170 C.3    89  LEU89       0.0311
     24  CG        10.6560   -9.4870   76.2500 C.3    89  LEU89       0.0022
     25  CD1       10.2890   -8.3690   77.2120 C.3    89  LEU89       0.0001
     26  CD2       10.1320   -9.1760   74.8510 C.3    89  LEU89       0.0001
     27  N         11.3300  -11.8540   78.5980 N.am   90  SER90      -0.1950
     28  CA        10.8170  -13.1980   78.8310 C.3    90  SER90       0.1924
     29  C          9.9210  -13.6680   77.6830 C.2    90  SER90       0.2314
     30  O          9.2660  -12.8570   77.0140 O.2    90  SER90      -0.2863
     31  CB         9.9990  -13.2420   80.1180 C.3    90  SER90       0.2116
     32  OG         8.8550  -12.4110   80.0100 O.3    90  SER90      -0.2180
     33  N          7.1170  -15.0850   78.2030 N.3    92  GLU92      -0.1231
     34  CA         5.7750  -14.7240   78.6450 C.3    92  GLU92       0.1699
     35  C          5.4510  -13.2720   78.3150 C.2    92  GLU92       0.2592
     36  O          4.3600  -12.9620   77.8280 O.2    92  GLU92      -0.2718
     37  CB         5.6280  -14.9550   80.1520 C.3    92  GLU92       0.0402
     38  CG         5.7340  -16.3920   80.5690 C.3    92  GLU92       0.1161
     39  CD         7.1560  -16.9050   80.7170 C.2    92  GLU92       0.3649
     40  OE1        8.1340  -16.1060   80.7240 O.co2  92  GLU92      -0.2457
     41  OE2        7.2990  -18.1370   80.8160 O.co2  92  GLU92      -0.2457
     42  N          6.3750  -12.3620   78.6060 N.am   93  THR93      -0.1953
     43  CA         6.1370  -10.9530   78.3040 C.3    93  THR93       0.1897
     44  C          6.0370  -10.7500   76.7930 C.2    93  THR93       0.2313
     45  O          5.2090   -9.9620   76.3110 O.2    93  THR93      -0.2863
     46  CB         7.2590  -10.0880   78.8920 C.3    93  THR93       0.1794
     47  OG1        7.4840  -10.4350   80.2750 O.3    93  THR93      -0.2208
     48  CG2        6.9250   -8.6400   78.8210 C.3    93  THR93       0.0378
     49  N          4.6300   -2.7860   85.1180 N.3   174  GLU174     -0.1231
     50  CA         4.7020   -4.0510   85.8340 C.3   174  GLU174      0.1699
     51  C          5.6370   -5.0390   85.1510 C.2   174  GLU174      0.2592
     52  O          6.1770   -5.9270   85.8190 O.2   174  GLU174     -0.2718
     53  CB         3.3020   -4.6510   85.9980 C.3   174  GLU174      0.0402
     54  CG         2.5000   -4.9880   84.7330 C.3   174  GLU174      0.1161
     55  CD         1.5550   -6.1580   84.9020 C.2   174  GLU174      0.3649
     56  OE1        0.9270   -6.4190   85.9280 O.co2 174  GLU174     -0.2457
     57  OE2        1.4920   -6.8740   83.8090 O.co2 174  GLU174     -0.2457
     58  N          5.8770   -4.8710   83.8540 N.am  175  GLN175     -0.1966
     59  CA         6.7690   -5.7440   83.0990 C.3   175  GLN175      0.1733
     60  C          8.2100   -5.2670   83.1250 C.2   175  GLN175      0.2617
     61  O          9.0700   -5.9090   82.5070 O.2   175  GLN175     -0.2715
     62  CB         6.2830   -5.8650   81.6550 C.3   175  GLN175      0.0408
     63  CG         4.9550   -6.5830   81.5330 C.3   175  GLN175      0.0908
     64  CD         4.2400   -6.3740   80.2210 C.2   175  GLN175      0.2608
     65  OE1        4.5790   -5.4890   79.4380 O.2   175  GLN175     -0.2717
     66  NE2        3.2160   -7.1900   79.9800 N.am  175  GLN175     -0.0878
     67  N          8.5000   -4.1680   83.8230 N.am  176  GLY176     -0.1940
     68  CA         9.8670   -3.7090   83.9510 C.3   176  GLY176      0.2014
     69  C         10.4870   -3.1730   82.6800 C.2   176  GLY176      0.2638
     70  O         11.7200   -3.1000   82.5860 O.2   176  GLY176     -0.2714
     71  N          9.6760   -2.7320   81.7330 N.am  177  LEU177     -0.1977
     72  CA        10.1730   -2.1860   80.4810 C.3   177  LEU177      0.1596
     73  C         10.4040   -0.6830   80.5850 C.2   177  LEU177      0.2287
     74  O         10.0450   -0.0300   81.5640 O.2   177  LEU177     -0.2864
     75  CB         9.1890   -2.5000   79.3550 C.3   177  LEU177      0.0297
     76  CG         8.8400   -3.9910   79.2410 C.3   177  LEU177      0.0022
     77  CD1        7.9310   -4.2690   78.0390 C.3   177  LEU177      0.0001
     78  CD2       10.1020   -4.8230   79.1470 C.3   177  LEU177      0.0001
@<TRIPOS>BOND
     1    26    24    1
     2     1     2    1
     3    23    24    1
     4    23    20    1
     5     2     3    1
     6     2     5    1
     7    24    25    1
     8    45    44    2
     9     3     4    2
    10    44    43    1
    11    30    29    2
    12    22    21    2
    13    19    20    1
    14    19    14   am
    15    20    21    1
    16     5     6    1
    17    29    28    1
    18    21    27   am
    19    36    35    2
    20    13    12    1
    21    13    14    1
    22    13    16    1
    23    12    18    1
    24     6     7    1
    25    77    76    1
    26    14    15    2
    27    33    34    1
    28    43    42    1
    29    43    46    1
    30    35    42   am
    31    35    34    1
    32    27    28    1
    33    34    37    1
    34     7     8    1
    35    48    46    1
    36    28    31    1
    37    46    47    1
    38    16    17    1
    39    18    17    1
    40    78    76    1
    41    76    75    1
    42    75    72    1
    43    65    64    2
    44    10     9    1
    45     8     9    2
    46    66    64   am
    47    32    31    1
    48    37    38    1
    49    64    63    1
    50     9    11    1
    51    72    73    1
    52    72    71    1
    53    38    39    1
    54    73    74    2
    55    39    40   ar
    56    39    41   ar
    57    63    62    1
    58    62    59    1
    59    71    69   am
    60    61    60    2
    61    70    69    2
    62    69    68    1
    63    59    60    1
    64    59    58    1
    65    60    67   am
    66    57    55   ar
    67    67    68    1
    68    58    51   am
    69    54    55    1
    70    54    53    1
    71    55    56   ar
    72    49    50    1
    73    51    52    2
    74    51    50    1
    75    50    53    1
