@<TRIPOS>MOLECULE
tmp/6asqA01.pdb
 95 90 0 0 0
SMALL
GASTEIGER

@<TRIPOS>ATOM
      1  N        -57.4260  117.0830  -43.8620 N.3    62  LYS62      -0.1245
      2  CA       -58.5420  116.4100  -43.2080 C.3    62  LYS62       0.1561
      3  C        -59.5080  115.9050  -44.2670 C.2    62  LYS62       0.2260
      4  O        -60.0090  116.6880  -45.0800 O.2    62  LYS62      -0.2867
      5  CB       -59.2480  117.3440  -42.2220 C.3    62  LYS62       0.0271
      6  CG       -58.4660  117.5570  -40.9360 C.3    62  LYS62       0.0035
      7  CD       -59.1260  118.5780  -40.0290 C.3    62  LYS62       0.0206
      8  CE       -58.3290  118.7500  -38.7470 C.3    62  LYS62       0.1093
      9  NZ       -58.8230  119.8880  -37.9260 N.3    62  LYS62      -0.1314
     10  N        -62.9860  113.5970  -45.2110 N.3    64  LYS64      -0.1245
     11  CA       -64.2740  113.3210  -44.5900 C.3    64  LYS64       0.1561
     12  C        -65.2130  112.7030  -45.6130 C.2    64  LYS64       0.2260
     13  O        -65.4030  113.2570  -46.7000 O.2    64  LYS64      -0.2867
     14  CB       -64.8840  114.6050  -44.0180 C.3    64  LYS64       0.0271
     15  CG       -66.0450  114.3860  -43.0710 C.3    64  LYS64       0.0035
     16  CD       -66.7290  115.7030  -42.7480 C.3    64  LYS64       0.0206
     17  CE       -65.7240  116.7640  -42.3240 C.3    64  LYS64       0.1093
     18  NZ       -66.3960  118.0020  -41.8410 N.3    64  LYS64      -0.1314
     19  N        -69.0670  111.6600  -46.6070 N.3    66  ASP66      -0.1239
     20  CA       -70.4840  111.9390  -46.3660 C.3    66  ASP66       0.1674
     21  C        -71.2560  110.9580  -47.2430 C.2    66  ASP66       0.2266
     22  O        -71.6230  111.2820  -48.3760 O.2    66  ASP66      -0.2867
     23  CB       -70.8350  113.3910  -46.6730 C.3    66  ASP66       0.1410
     24  CG       -72.1900  113.7950  -46.1150 C.2    66  ASP66       0.3668
     25  OD1      -73.0460  112.9080  -45.9160 O.co2  66  ASP66      -0.2456
     26  OD2      -72.3980  115.0010  -45.8700 O.co2  66  ASP66      -0.2456
     27  N        -75.1090  111.8700  -48.5370 N.3    69  LYS69      -0.1245
     28  CA       -75.1600  112.8630  -49.6040 C.3    69  LYS69       0.1561
     29  C        -74.1510  112.5880  -50.7130 C.2    69  LYS69       0.2260
     30  O        -73.9580  113.4470  -51.5800 O.2    69  LYS69      -0.2867
     31  CB       -74.9260  114.2760  -49.0350 C.3    69  LYS69       0.0271
     32  CG       -75.6200  114.5620  -47.7030 C.3    69  LYS69       0.0035
     33  CD       -75.2970  115.9690  -47.2100 C.3    69  LYS69       0.0206
     34  CE       -76.0810  116.2970  -45.9610 C.3    69  LYS69       0.1093
     35  NZ       -75.1640  116.3790  -44.7890 N.3    69  LYS69      -0.1314
     36  N        -64.8560  114.7630  -49.0930 N.3    73  HIS73      -0.1241
     37  CA       -64.2300  116.0530  -48.8330 C.3    73  HIS73       0.1621
     38  C        -62.7520  115.8610  -48.5260 C.2    73  HIS73       0.2264
     39  O        -62.3860  114.9830  -47.7370 O.2    73  HIS73      -0.2867
     40  CB       -64.9130  116.7720  -47.6650 C.3    73  HIS73       0.0745
     41  CG       -66.3650  117.0610  -47.8900 C.ar   73  HIS73       0.0817
     42  ND1      -66.8070  118.1000  -48.6820 N.ar   73  HIS73      -0.2268
     43  CD2      -67.4760  116.4520  -47.4140 C.ar   73  HIS73       0.1154
     44  CE1      -68.1280  118.1140  -48.6870 C.ar   73  HIS73       0.1986
     45  NE2      -68.5590  117.1250  -47.9250 N.ar   73  HIS73      -0.2212
     46  N        -59.8360  118.4820  -47.3080 N.3    75  THR75      -0.1218
     47  CA       -59.5990  119.8440  -46.8530 C.3    75  THR75       0.1862
     48  C        -58.1770  119.9770  -46.3290 C.2    75  THR75       0.2287
     49  O        -57.7600  119.2090  -45.4560 O.2    75  THR75      -0.2866
     50  CB       -60.5930  120.2440  -45.7570 C.3    75  THR75       0.1770
     51  OG1      -61.9320  120.0130  -46.2100 O.3    75  THR75      -0.2211
     52  CG2      -60.4270  121.7120  -45.3970 C.3    75  THR75       0.0375
     53  N        -63.4200  128.4870  -43.7880 N.3   161  LEU161     -0.1245
     54  CA       -62.1840  127.7180  -43.8140 C.3   161  LEU161      0.1561
     55  C        -61.0920  128.3670  -42.9750 C.2   161  LEU161      0.2260
     56  O        -60.2070  127.6660  -42.4720 O.2   161  LEU161     -0.2867
     57  CB       -61.6980  127.5490  -45.2540 C.3   161  LEU161      0.0270
     58  CG       -62.5610  126.6790  -46.1680 C.3   161  LEU161      0.0019
     59  CD1      -62.0060  126.6810  -47.5840 C.3   161  LEU161      0.0001
     60  CD2      -62.6560  125.2610  -45.6270 C.3   161  LEU161      0.0001
     61  N        -60.9890  123.2710  -49.7250 N.3   166  THR166     -0.1218
     62  CA       -61.7590  122.0350  -49.6600 C.3   166  THR166      0.1862
     63  C        -62.0670  121.5810  -51.0810 C.2   166  THR166      0.2287
     64  O        -62.6570  122.3360  -51.8620 O.2   166  THR166     -0.2866
     65  CB       -63.0580  122.2210  -48.8740 C.3   166  THR166      0.1770
     66  OG1      -62.7610  122.3900  -47.4830 O.3   166  THR166     -0.2211
     67  CG2      -63.9630  121.0060  -49.0480 C.3   166  THR166      0.0375
     68  N        -61.9460  111.3590  -40.7580 N.3   202  TRP202     -0.1241
     69  CA       -63.0720  111.3510  -39.8280 C.3   202  TRP202      0.1605
     70  C        -63.6070  109.9260  -39.7470 C.2   202  TRP202      0.2264
     71  O        -64.2170  109.4270  -40.6980 O.2   202  TRP202     -0.2867
     72  CB       -64.1410  112.3320  -40.3020 C.3   202  TRP202      0.0550
     73  CG       -65.2530  112.5640  -39.3270 C.ar  202  TRP202      0.0003
     74  CD1      -66.5340  112.1050  -39.4170 C.ar  202  TRP202      0.0946
     75  CD2      -65.1830  113.3210  -38.1120 C.ar  202  TRP202      0.0152
     76  NE1      -67.2660  112.5270  -38.3340 N.ar  202  TRP202     -0.2442
     77  CE2      -66.4590  113.2750  -37.5170 C.ar  202  TRP202      0.0810
     78  CE3      -64.1640  114.0310  -37.4700 C.ar  202  TRP202      0.0012
     79  CZ2      -66.7440  113.9130  -36.3110 C.ar  202  TRP202      0.0191
     80  CZ3      -64.4490  114.6630  -36.2730 C.ar  202  TRP202      0.0001
     81  CH2      -65.7270  114.5990  -35.7060 C.ar  202  TRP202      0.0015
     82  N        -61.3460  112.6970  -35.4790 N.3   213  TRP213     -0.1241
     83  CA       -60.2470  112.6440  -36.4340 C.3   213  TRP213      0.1605
     84  C        -59.2690  111.5390  -36.0600 C.2   213  TRP213      0.2264
     85  O        -58.7880  111.4770  -34.9250 O.2   213  TRP213     -0.2867
     86  CB       -59.5210  113.9870  -36.4940 C.3   213  TRP213      0.0550
     87  CG       -60.3610  115.1060  -37.0140 C.ar  213  TRP213      0.0003
     88  CD1      -60.7790  116.2060  -36.3250 C.ar  213  TRP213      0.0946
     89  CD2      -60.8920  115.2350  -38.3380 C.ar  213  TRP213      0.0152
     90  NE1      -61.5370  117.0140  -37.1380 N.ar  213  TRP213     -0.2442
     91  CE2      -61.6210  116.4400  -38.3790 C.ar  213  TRP213      0.0810
     92  CE3      -60.8210  114.4490  -39.4930 C.ar  213  TRP213      0.0012
     93  CZ2      -62.2750  116.8770  -39.5290 C.ar  213  TRP213      0.0191
     94  CZ3      -61.4720  114.8850  -40.6330 C.ar  213  TRP213      0.0001
     95  CH2      -62.1890  116.0880  -40.6430 C.ar  213  TRP213      0.0015
@<TRIPOS>BOND
     1    64    63    2
     2    30    29    2
     3    63    62    1
     4    29    28    1
     5    61    62    1
     6    62    65    1
     7    28    31    1
     8    28    27    1
     9    36    37    1
    10    67    65    1
    11    31    32    1
    12    65    66    1
    13    37    38    1
    14    37    40    1
    15    44    42   ar
    16    44    45   ar
    17    42    41   ar
    18    38    39    2
    19    22    21    2
    20    45    43   ar
    21    41    40    1
    22    41    43   ar
    23    32    33    1
    24    59    58    1
    25    46    47    1
    26    21    20    1
    27    33    34    1
    28    47    48    1
    29    47    50    1
    30    13    12    2
    31    23    20    1
    32    23    24    1
    33    19    20    1
    34    48    49    2
    35    51    50    1
    36    58    60    1
    37    58    57    1
    38    24    25   ar
    39    24    26   ar
    40    34    35    1
    41    50    52    1
    42    12    11    1
    43    57    54    1
    44    10    11    1
    45     4     3    2
    46    11    14    1
    47     3     2    1
    48    14    15    1
    49     1     2    1
    50    54    53    1
    51    54    55    1
    52     2     5    1
    53    15    16    1
    54    55    56    2
    55    16    17    1
    56    17    18    1
    57     5     6    1
    58     6     7    1
    59    68    69    1
    60    71    70    2
    61    95    94   ar
    62    95    93   ar
    63    94    92   ar
    64    72    69    1
    65    72    73    1
    66     7     8    1
    67    69    70    1
    68    93    91   ar
    69    92    89   ar
    70    74    73   ar
    71    74    76   ar
    72    73    75   ar
    73     8     9    1
    74    91    89   ar
    75    91    90   ar
    76    89    87   ar
    77    76    77   ar
    78    75    77   ar
    79    75    78   ar
    80    77    79   ar
    81    78    80   ar
    82    90    88   ar
    83    87    86    1
    84    87    88   ar
    85    86    83    1
    86    83    84    1
    87    83    82    1
    88    79    81   ar
    89    80    81   ar
    90    84    85    2
