@<TRIPOS>MOLECULE
tmp/6at3A00.pdb
 117 110 0 0 0
SMALL
GASTEIGER

@<TRIPOS>ATOM
      1  N        -26.5220    0.4630    7.5580 N.3    59  ARG59      -0.1245
      2  CA       -25.8910   -0.5780    6.7560 C.3    59  ARG59       0.1563
      3  C        -24.3820   -0.6590    6.9880 C.2    59  ARG59       0.2260
      4  O        -23.7430    0.2650    7.5020 O.2    59  ARG59      -0.2867
      5  CB       -26.1440   -0.3220    5.2740 C.3    59  ARG59       0.0307
      6  CG       -27.5640   -0.6550    4.8610 C.3    59  ARG59       0.0489
      7  CD       -27.8170   -0.3630    3.3730 C.3    59  ARG59       0.2205
      8  NE       -27.9040    1.0720    3.1530 N.pl3  59  ARG59      -0.0865
      9  CZ       -26.9430    1.8510    2.6640 C.cat  59  ARG59       0.5346
     10  NH1      -25.7470    1.3710    2.3220 N.pl3  59  ARG59       0.1354
     11  NH2      -27.1720    3.1460    2.5310 N.pl3  59  ARG59       0.1354
     12  N        -28.9880   -4.9280   11.7100 N.3   201  PHE201     -0.1241
     13  CA       -29.7410   -3.8600   11.0540 C.3   201  PHE201      0.1605
     14  C        -30.7780   -4.4250   10.0900 C.2   201  PHE201      0.2264
     15  O        -30.4640   -5.2450    9.2200 O.2   201  PHE201     -0.2867
     16  CB       -28.8170   -2.9170   10.2940 C.3   201  PHE201      0.0534
     17  CG       -29.5240   -1.7330    9.7050 C.ar  201  PHE201     -0.0203
     18  CD1      -30.1700   -0.8240   10.5210 C.ar  201  PHE201     -0.0042
     19  CD2      -29.5590   -1.5320    8.3300 C.ar  201  PHE201     -0.0042
     20  CE1      -30.8220    0.2830    9.9850 C.ar  201  PHE201     -0.0003
     21  CE2      -30.1890   -0.4350    7.7870 C.ar  201  PHE201     -0.0003
     22  CZ       -30.8430    0.4720    8.6070 C.ar  201  PHE201     -0.0000
     23  N        -32.3510   -3.2370    7.5380 N.3   203  GLY203     -0.1225
     24  CA       -32.2070   -2.9520    6.1240 C.3   203  GLY203      0.1811
     25  C        -31.3800   -3.9690    5.3810 C.2   203  GLY203      0.2280
     26  O        -31.5430   -4.1230    4.1690 O.2   203  GLY203     -0.2866
     27  N        -33.4100   -6.3780    3.2800 N.3   206  LYS206     -0.1231
     28  CA       -34.0540   -5.9480    2.0480 C.3   206  LYS206      0.1693
     29  C        -33.1140   -5.4280    0.9690 C.2   206  LYS206      0.2591
     30  O        -33.4080   -5.6310   -0.2160 O.2   206  LYS206     -0.2718
     31  CB       -35.1510   -4.8990    2.3220 C.3   206  LYS206      0.0285
     32  CG       -34.6740   -3.6430    3.0550 C.3   206  LYS206      0.0035
     33  CD       -35.6290   -2.4540    2.8430 C.3   206  LYS206      0.0206
     34  CE       -35.2940   -1.7620    1.5580 C.3   206  LYS206      0.1093
     35  NZ       -36.2590   -0.6970    1.1890 N.3   206  LYS206     -0.1314
     36  N        -31.9840   -4.7900    1.3190 N.am  207  LYS207     -0.1980
     37  CA       -31.1430   -4.2360    0.2690 C.3   207  LYS207      0.1596
     38  C        -30.3140   -5.2870   -0.4330 C.2   207  LYS207      0.2287
     39  O        -29.8200   -5.0170   -1.5320 O.2   207  LYS207     -0.2864
     40  CB       -30.2250   -3.1450    0.8030 C.3   207  LYS207      0.0298
     41  CG       -30.9470   -1.8810    1.2210 C.3   207  LYS207      0.0038
     42  CD       -31.6410   -1.1430    0.0770 C.3   207  LYS207      0.0206
     43  CE       -32.1900    0.1910    0.6310 C.3   207  LYS207      0.1093
     44  NZ       -32.3230    1.2110   -0.3860 N.3   207  LYS207     -0.1314
     45  N        -33.3610    3.1200   -7.6300 N.3   226  HIS226     -0.1241
     46  CA       -33.4300    3.4980   -6.2270 C.3   226  HIS226      0.1621
     47  C        -34.2570    4.7770   -6.1370 C.2   226  HIS226      0.2264
     48  O        -33.7410    5.8950   -6.1770 O.2   226  HIS226     -0.2867
     49  CB       -32.0300    3.6790   -5.6620 C.3   226  HIS226      0.0745
     50  CG       -32.0310    3.8490   -4.1800 C.ar  226  HIS226      0.0817
     51  ND1      -31.1860    4.7170   -3.5280 N.ar  226  HIS226     -0.2268
     52  CD2      -32.8330    3.3160   -3.2300 C.ar  226  HIS226      0.1154
     53  CE1      -31.4240    4.6640   -2.2290 C.ar  226  HIS226      0.1986
     54  NE2      -32.4210    3.8200   -2.0220 N.ar  226  HIS226     -0.2212
     55  N        -30.9120    9.1590   -2.0500 N.3   243  LEU243     -0.1231
     56  CA       -30.5510    8.4130   -0.8460 C.3   243  LEU243      0.1693
     57  C        -31.5680    8.6590    0.2710 C.2   243  LEU243      0.2592
     58  O        -32.2970    9.6480    0.2750 O.2   243  LEU243     -0.2718
     59  CB       -29.1580    8.8230   -0.3640 C.3   243  LEU243      0.0284
     60  CG       -28.0130    8.5850   -1.3590 C.3   243  LEU243      0.0019
     61  CD1      -26.6290    8.8350   -0.7190 C.3   243  LEU243      0.0001
     62  CD2      -28.0760    7.1700   -1.9260 C.3   243  LEU243      0.0001
     63  N        -31.6350    7.7240    1.2180 N.am  244  SER244     -0.1952
     64  CA       -32.5970    7.8700    2.3010 C.3   244  SER244      0.1924
     65  C        -32.2310    9.0760    3.1570 C.2   244  SER244      0.2314
     66  O        -31.0540    9.3840    3.3690 O.2   244  SER244     -0.2863
     67  CB       -32.6950    6.5950    3.1490 C.3   244  SER244      0.2116
     68  OG       -31.5040    6.3600    3.8770 O.3   244  SER244     -0.2180
     69  N        -39.0240    2.9940   -2.3880 N.3   263  ASP263     -0.1239
     70  CA       -37.5640    2.8460   -2.3860 C.3   263  ASP263      0.1674
     71  C        -36.9870    2.0820   -3.5760 C.2   263  ASP263      0.2266
     72  O        -35.8380    2.3540   -3.9760 O.2   263  ASP263     -0.2867
     73  CB       -37.1660    2.1610   -1.0660 C.3   263  ASP263      0.1410
     74  CG       -35.6560    2.1150   -0.8330 C.2   263  ASP263      0.3668
     75  OD1      -35.0510    3.1950   -0.7580 O.co2 263  ASP263     -0.2456
     76  OD2      -35.1000    1.0060   -0.6900 O.co2 263  ASP263     -0.2456
     77  N        -39.9400    1.1270    4.5710 N.3   280  TYR280     -0.1241
     78  CA       -38.9730    1.1700    5.6760 C.3   280  TYR280      0.1605
     79  C        -38.5800    2.6260    5.8260 C.2   280  TYR280      0.2264
     80  O        -37.5190    3.0630    5.3560 O.2   280  TYR280     -0.2867
     81  CB       -37.7760    0.3080    5.3180 C.3   280  TYR280      0.0534
     82  CG       -36.7180    0.0310    6.3820 C.ar  280  TYR280     -0.0201
     83  CD1      -37.0170   -0.1170    7.7410 C.ar  280  TYR280     -0.0009
     84  CD2      -35.4030   -0.1450    5.9900 C.ar  280  TYR280     -0.0009
     85  CE1      -35.9990   -0.4240    8.6590 C.ar  280  TYR280      0.0417
     86  CE2      -34.4090   -0.4260    6.8870 C.ar  280  TYR280      0.0417
     87  CZ       -34.7020   -0.5730    8.2120 C.ar  280  TYR280      0.1957
     88  OH       -33.6510   -0.8820    9.0410 O.3   280  TYR280     -0.2866
     89  N        -36.0390    3.9900   12.3560 N.3   327  ARG327     -0.1245
     90  CA       -36.8370    3.4790   11.2510 C.3   327  ARG327      0.1563
     91  C        -38.1140    2.8340   11.7640 C.2   327  ARG327      0.2260
     92  O        -38.2310    2.4620   12.9350 O.2   327  ARG327     -0.2867
     93  CB       -36.1040    2.3870   10.4800 C.3   327  ARG327      0.0307
     94  CG       -34.8340    2.8340    9.7760 C.3   327  ARG327      0.0489
     95  CD       -35.1610    3.4900    8.4410 C.3   327  ARG327      0.2205
     96  NE       -33.9460    4.0040    7.8290 N.pl3 327  ARG327     -0.0865
     97  CZ       -33.7320    4.0790    6.5290 C.cat 327  ARG327      0.5346
     98  NH1      -34.6610    3.6970    5.6570 N.pl3 327  ARG327      0.1354
     99  NH2      -32.5820    4.5510    6.1080 N.pl3 327  ARG327      0.1354
    100  N        -26.9720    6.3650    8.3140 N.3   388  THR388     -0.1218
    101  CA       -27.4940    5.5210    7.2360 C.3   388  THR388      0.1862
    102  C        -26.5130    4.4180    6.8900 C.2   388  THR388      0.2287
    103  O        -26.9180    3.3040    6.5610 O.2   388  THR388     -0.2866
    104  CB       -27.8390    6.3400    5.9920 C.3   388  THR388      0.1770
    105  OG1      -26.6940    7.0570    5.5260 O.3   388  THR388     -0.2211
    106  CG2      -29.0020    7.3230    6.2910 C.3   388  THR388      0.0375
    107  N        -25.9540   -0.0950   -3.8840 N.3   407  PHE407     -0.1241
    108  CA       -26.7680   -1.2540   -4.2420 C.3   407  PHE407      0.1605
    109  C        -26.5500   -1.6990   -5.6760 C.2   407  PHE407      0.2264
    110  O        -27.2070   -2.6370   -6.1280 O.2   407  PHE407     -0.2867
    111  CB       -28.2460   -0.9340   -3.9940 C.3   407  PHE407      0.0534
    112  CG       -28.4400   -0.1720   -2.7430 C.ar  407  PHE407     -0.0203
    113  CD1      -28.1800   -0.7770   -1.5350 C.ar  407  PHE407     -0.0042
    114  CD2      -28.8150    1.1670   -2.7640 C.ar  407  PHE407     -0.0042
    115  CE1      -28.2890   -0.0840   -0.3630 C.ar  407  PHE407     -0.0003
    116  CE2      -28.9310    1.8810   -1.5750 C.ar  407  PHE407     -0.0003
    117  CZ       -28.6600    1.2470   -0.3770 C.ar  407  PHE407     -0.0000
@<TRIPOS>BOND
     1    45    46    1
     2    46    47    1
     3    46    49    1
     4    48    47    2
     5   110   109    2
     6   109   108    1
     7    49    50    1
     8   108   111    1
     9   108   107    1
    10    50    51   ar
    11    50    52   ar
    12   111   112    1
    13    72    71    2
    14    71    70    1
    15    51    53   ar
    16    52    54   ar
    17   114   112   ar
    18   114   116   ar
    19   112   113   ar
    20    69    70    1
    21    70    73    1
    22    53    54   ar
    23    55    56    1
    24    62    60    1
    25   116   117   ar
    26   113   115   ar
    27    39    38    2
    28    60    61    1
    29    60    59    1
    30    73    74    1
    31    56    59    1
    32    56    57    1
    33    74    75   ar
    34    74    76   ar
    35    38    37    1
    36    44    43    1
    37   117   115   ar
    38    30    29    2
    39    42    43    1
    40    42    41    1
    41    37    40    1
    42    37    36    1
    43    57    58    2
    44    57    63   am
    45    40    41    1
    46    29    36   am
    47    29    28    1
    48    35    34    1
    49    63    64    1
    50    34    33    1
    51    28    31    1
    52    28    27    1
    53    64    67    1
    54    64    65    1
    55    10     9    1
    56    31    32    1
    57    11     9    1
    58     9     8    2
    59    33    32    1
    60    67    68    1
    61     8     7    1
    62    65    66    2
    63     7     6    1
    64    26    25    2
    65    77    78    1
    66     6     5    1
    67     5     2    1
    68    81    78    1
    69    81    82    1
    70    80    79    2
    71    25    24    1
    72   105   104    1
    73    98    97    1
    74    78    79    1
    75    84    82   ar
    76    84    86   ar
    77   104   106    1
    78   104   101    1
    79    99    97    1
    80    24    23    1
    81    82    83   ar
    82    97    96    2
    83   103   102    2
    84     2     3    1
    85     2     1    1
    86    86    87   ar
    87   102   101    1
    88     3     4    2
    89   101   100    1
    90    83    85   ar
    91    21    19   ar
    92    21    22   ar
    93    96    95    1
    94    87    85   ar
    95    87    88    1
    96    19    17   ar
    97    95    94    1
    98    22    20   ar
    99    15    14    2
   100    17    16    1
   101    17    18   ar
   102    94    93    1
   103    20    18   ar
   104    14    13    1
   105    16    13    1
   106    93    90    1
   107    13    12    1
   108    90    91    1
   109    90    89    1
   110    91    92    2
