@<TRIPOS>MOLECULE
tmp/6atbD00.pdb
 185 175 0 0 0
SMALL
GASTEIGER

@<TRIPOS>ATOM
      1  N         69.6730  -90.8690   -1.7190 N.3   170  TYR170     -0.1241
      2  CA        69.7960  -90.5890   -3.1490 C.3   170  TYR170      0.1605
      3  C         70.3450  -91.7800   -3.9470 C.2   170  TYR170      0.2264
      4  O         70.4800  -91.6840   -5.1610 O.2   170  TYR170     -0.2867
      5  CB        70.6120  -89.2910   -3.3740 C.3   170  TYR170      0.0534
      6  CG        69.9200  -88.0740   -2.8020 C.ar  170  TYR170     -0.0201
      7  CD1       68.9970  -87.3530   -3.5540 C.ar  170  TYR170     -0.0009
      8  CD2       70.1480  -87.6700   -1.4910 C.ar  170  TYR170     -0.0009
      9  CE1       68.3350  -86.2450   -3.0230 C.ar  170  TYR170      0.0417
     10  CE2       69.4620  -86.5890   -0.9350 C.ar  170  TYR170      0.0417
     11  CZ        68.5720  -85.8660   -1.7120 C.ar  170  TYR170      0.1957
     12  OH        67.9180  -84.7840   -1.1740 O.3   170  TYR170     -0.2866
     13  N         67.1350  -94.2160   -7.0790 N.3   173  HIS173     -0.1241
     14  CA        66.3040  -93.2630   -7.8080 C.3   173  HIS173      0.1621
     15  C         65.1850  -94.0010   -8.5740 C.2   173  HIS173      0.2264
     16  O         65.4360  -95.0210   -9.2170 O.2   173  HIS173     -0.2867
     17  CB        67.1910  -92.4460   -8.7600 C.3   173  HIS173      0.0745
     18  CG        66.5900  -91.1450   -9.1970 C.ar  173  HIS173      0.0817
     19  ND1       66.7550  -89.9870   -8.4550 N.ar  173  HIS173     -0.2268
     20  CD2       65.8500  -90.8560  -10.2910 C.ar  173  HIS173      0.1154
     21  CE1       66.0940  -89.0450   -9.1070 C.ar  173  HIS173      0.1986
     22  NE2       65.5530  -89.5150  -10.2290 N.ar  173  HIS173     -0.2212
     23  N         62.7600  -94.5520  -11.5340 N.3   175  PHE175     -0.1241
     24  CA        62.6950  -94.3930  -12.9990 C.3   175  PHE175      0.1605
     25  C         61.4290  -95.1110  -13.5320 C.2   175  PHE175      0.2264
     26  O         61.3460  -95.4120  -14.7340 O.2   175  PHE175     -0.2867
     27  CB        63.9110  -95.0780  -13.6370 C.3   175  PHE175      0.0534
     28  CG        65.2740  -94.4370  -13.5270 C.ar  175  PHE175     -0.0203
     29  CD1       65.4530  -93.2450  -12.8300 C.ar  175  PHE175     -0.0042
     30  CD2       66.3760  -95.0050  -14.1580 C.ar  175  PHE175     -0.0042
     31  CE1       66.7270  -92.6730  -12.7110 C.ar  175  PHE175     -0.0003
     32  CE2       67.6410  -94.4080  -14.0680 C.ar  175  PHE175     -0.0003
     33  CZ        67.8100  -93.2650  -13.3190 C.ar  175  PHE175     -0.0000
     34  N         57.2090  -94.5390  -16.7120 N.3   178  ARG178     -0.1245
     35  CA        56.7320  -95.1230  -17.9570 C.3   178  ARG178      0.1563
     36  C         56.3110  -96.6110  -17.8510 C.2   178  ARG178      0.2260
     37  O         55.4650  -97.0620  -18.6230 O.2   178  ARG178     -0.2867
     38  CB        57.7950  -94.9330  -19.0500 C.3   178  ARG178      0.0307
     39  CG        58.9550  -95.9160  -19.0030 C.3   178  ARG178      0.0489
     40  CD        60.0760  -95.4720  -19.8950 C.3   178  ARG178      0.2205
     41  NE        60.5670  -94.1470  -19.5100 N.pl3 178  ARG178     -0.0865
     42  CZ        61.5960  -93.5200  -20.0700 C.cat 178  ARG178      0.5346
     43  NH1       62.2810  -94.0960  -21.0450 N.pl3 178  ARG178      0.1354
     44  NH2       61.9450  -92.3140  -19.6580 N.pl3 178  ARG178      0.1354
     45  N         62.1700  -89.5800  -10.4630 N.3   201  ASP201     -0.1239
     46  CA        61.8700  -88.9360  -11.7270 C.3   201  ASP201      0.1674
     47  C         60.3510  -89.0070  -11.9830 C.2   201  ASP201      0.2266
     48  O         59.8590  -88.4180  -12.9380 O.2   201  ASP201     -0.2867
     49  CB        62.6920  -89.5220  -12.8970 C.3   201  ASP201      0.1410
     50  CG        63.8380  -88.6090  -13.3360 C.2   201  ASP201      0.3668
     51  OD1       64.6180  -88.1730  -12.4660 O.co2 201  ASP201     -0.2456
     52  OD2       64.0010  -88.4050  -14.5510 O.co2 201  ASP201     -0.2456
     53  N         65.6700  -84.4580   -8.1650 N.3   223  SER223     -0.1202
     54  CA        66.2710  -85.0400   -9.3550 C.3   223  SER223      0.2020
     55  C         67.4130  -84.1660   -9.8680 C.2   223  SER223      0.2618
     56  O         67.6940  -83.1090   -9.3000 O.2   223  SER223     -0.2717
     57  CB        65.2160  -85.2540  -10.4350 C.3   223  SER223      0.2103
     58  OG        65.6600  -86.3180  -11.2470 O.3   223  SER223     -0.2182
     59  N         68.0970  -84.6390  -10.9210 N.am  224  VAL224     -0.1979
     60  CA        69.2310  -83.9540  -11.5650 C.3   224  VAL224      0.1595
     61  C         69.0130  -83.9910  -13.0770 C.2   224  VAL224      0.2287
     62  O         68.3710  -84.9330  -13.5660 O.2   224  VAL224     -0.2864
     63  CB        70.6340  -84.5550  -11.2030 C.3   224  VAL224      0.0276
     64  CG1       70.8650  -84.6160   -9.7020 C.3   224  VAL224      0.0022
     65  CG2       70.8760  -85.9140  -11.8570 C.3   224  VAL224      0.0022
     66  N         69.5110  -85.0420  -16.8050 N.3   226  ALA226     -0.1231
     67  CA        69.9830  -86.3100  -17.3190 C.3   226  ALA226      0.1694
     68  C         69.6450  -86.4340  -18.7760 C.2   226  ALA226      0.2592
     69  O         68.6420  -85.8610  -19.2260 O.2   226  ALA226     -0.2718
     70  CB        69.3480  -87.4530  -16.5340 C.3   226  ALA226      0.0304
     71  N         70.4620  -87.2060  -19.5120 N.am  227  ALA227     -0.1966
     72  CA        70.2250  -87.4590  -20.9350 C.3   227  ALA227      0.1728
     73  C         69.4020  -88.7300  -21.1420 C.2   227  ALA227      0.2616
     74  O         69.2780  -89.5630  -20.2360 O.2   227  ALA227     -0.2715
     75  CB        71.5510  -87.5700  -21.6920 C.3   227  ALA227      0.0334
     76  N         68.7970  -88.8380  -22.3210 N.am  228  GLU228     -0.1977
     77  CA        68.0880  -90.0070  -22.7800 C.3   228  GLU228      0.1602
     78  C         68.6990  -90.3750  -24.1120 C.2   228  GLU228      0.2287
     79  O         69.4540  -89.5690  -24.6640 O.2   228  GLU228     -0.2864
     80  CB        66.5580  -89.8020  -22.8290 C.3   228  GLU228      0.0415
     81  CG        65.9660  -88.8420  -23.8500 C.3   228  GLU228      0.1163
     82  CD        64.4480  -88.9370  -23.9050 C.2   228  GLU228      0.3649
     83  OE1       63.8580  -88.5660  -24.9490 O.co2 228  GLU228     -0.2457
     84  OE2       63.8510  -89.4470  -22.9260 O.co2 228  GLU228     -0.2457
     85  N         74.9270  -81.6120  -11.1560 N.3   255  PRO255     -0.2116
     86  CA        75.2520  -82.9880  -11.5800 C.3   255  PRO255      0.1372
     87  C         74.4480  -83.3410  -12.8380 C.2   255  PRO255      0.2244
     88  O         73.3090  -82.8770  -13.0140 O.2   255  PRO255     -0.2868
     89  CB        74.8260  -83.8590  -10.3860 C.3   255  PRO255      0.0268
     90  CG        74.4850  -82.9080   -9.2850 C.3   255  PRO255      0.0207
     91  CD        74.0930  -81.6330   -9.9340 C.3   255  PRO255      0.0892
     92  N         73.5630  -86.6190  -15.4660 N.3   257  SER257     -0.1217
     93  CA        73.6140  -88.0460  -15.7730 C.3   257  SER257      0.1889
     94  C         73.6280  -88.1930  -17.2660 C.2   257  SER257      0.2288
     95  O         72.7500  -87.6510  -17.9460 O.2   257  SER257     -0.2866
     96  CB        72.4440  -88.7990  -15.1370 C.3   257  SER257      0.2089
     97  OG        72.2730  -90.0490  -15.7800 O.3   257  SER257     -0.2183
     98  N         82.7830  -81.1700   -7.1800 N.3   286  THR286     -0.1203
     99  CA        82.3080  -82.2510   -6.3130 C.3   286  THR286      0.1994
    100  C         80.7670  -82.2500   -6.2480 C.2   286  THR286      0.2617
    101  O         80.1510  -83.3150   -6.2100 O.2   286  THR286     -0.2717
    102  CB        82.9560  -82.0880   -4.9370 C.3   286  THR286      0.1784
    103  OG1       84.3710  -82.2460   -5.1040 O.3   286  THR286     -0.2211
    104  CG2       82.4170  -83.0800   -3.9040 C.3   286  THR286      0.0376
    105  N         80.1630  -81.0670   -6.2620 N.am  287  GLN287     -0.1979
    106  CA        78.7190  -80.8820   -6.2210 C.3   287  GLN287      0.1601
    107  C         78.0440  -81.0290   -7.5940 C.2   287  GLN287      0.2287
    108  O         76.8180  -81.0980   -7.6810 O.2   287  GLN287     -0.2864
    109  CB        78.4050  -79.5030   -5.6070 C.3   287  GLN287      0.0394
    110  CG        78.1340  -79.5210   -4.0850 C.3   287  GLN287      0.0908
    111  CD        78.9820  -80.4790   -3.2590 C.2   287  GLN287      0.2608
    112  OE1       78.5050  -81.5260   -2.7940 O.2   287  GLN287     -0.2717
    113  NE2       80.2470  -80.1300   -3.0380 N.am  287  GLN287     -0.0878
    114  N         79.2020  -83.4720  -10.3920 N.3   289  PRO289     -0.2116
    115  CA        79.9370  -84.4570  -11.1960 C.3   289  PRO289      0.1372
    116  C         79.2120  -84.8650  -12.4840 C.2   289  PRO289      0.2244
    117  O         78.0410  -84.5370  -12.7220 O.2   289  PRO289     -0.2868
    118  CB        80.0300  -85.6660  -10.2420 C.3   289  PRO289      0.0268
    119  CG        78.8190  -85.5850   -9.4430 C.3   289  PRO289      0.0207
    120  CD        78.5850  -84.1190   -9.2100 C.3   289  PRO289      0.0892
    121  N         77.7380  -88.0500  -14.1690 N.3   291  ILE291     -0.1245
    122  CA        77.2880  -89.3540  -13.7050 C.3   291  ILE291      0.1561
    123  C         77.1710  -90.2180  -14.9670 C.2   291  ILE291      0.2260
    124  O         76.2770  -89.9850  -15.7970 O.2   291  ILE291     -0.2867
    125  CB        75.9710  -89.2970  -12.8260 C.3   291  ILE291      0.0252
    126  CG1       76.1010  -88.3110  -11.6340 C.3   291  ILE291      0.0019
    127  CG2       75.5700  -90.6860  -12.3140 C.3   291  ILE291      0.0019
    128  CD1       74.6950  -87.6560  -11.1830 C.3   291  ILE291      0.0001
    129  N         76.2080  -93.2160  -17.1340 N.3   293  ARG293     -0.1245
    130  CA        75.0750  -94.0820  -17.0780 C.3   293  ARG293      0.1563
    131  C         75.0840  -95.2510  -18.0880 C.2   293  ARG293      0.2260
    132  O         74.6060  -95.0970  -19.2190 O.2   293  ARG293     -0.2867
    133  CB        73.7750  -93.2520  -17.1140 C.3   293  ARG293      0.0307
    134  CG        72.5280  -94.1210  -17.0220 C.3   293  ARG293      0.0489
    135  CD        71.2800  -93.2930  -17.0920 C.3   293  ARG293      0.2205
    136  NE        70.1580  -94.1440  -17.4550 N.pl3 293  ARG293     -0.0865
    137  CZ        69.2490  -93.8270  -18.3600 C.cat 293  ARG293      0.5346
    138  NH1       68.2790  -94.6750  -18.6550 N.pl3 293  ARG293      0.1354
    139  NH2       69.3080  -92.6590  -18.9860 N.pl3 293  ARG293      0.1354
    140  N         85.9590  -87.0320   -7.1770 N.3   328  PRO328     -0.2116
    141  CA        84.6130  -86.5210   -6.8540 C.3   328  PRO328      0.1372
    142  C         83.7720  -85.9350   -7.9940 C.2   328  PRO328      0.2244
    143  O         82.5580  -85.7880   -7.8460 O.2   328  PRO328     -0.2868
    144  CB        84.8720  -85.5420   -5.6970 C.3   328  PRO328      0.0268
    145  CG        86.3270  -85.1630   -5.8370 C.3   328  PRO328      0.0207
    146  CD        86.9970  -86.4010   -6.3310 C.3   328  PRO328      0.0892
    147  N         81.0220  -90.0800  -11.0540 N.3   331  ARG331     -0.1231
    148  CA        80.1630  -91.0980  -10.4230 C.3   331  ARG331      0.1694
    149  C         79.5040  -91.9950  -11.4820 C.2   331  ARG331      0.2592
    150  O         79.5660  -91.6820  -12.6680 O.2   331  ARG331     -0.2718
    151  CB        79.0900  -90.4270   -9.5200 C.3   331  ARG331      0.0321
    152  CG        79.6110  -89.8810   -8.1870 C.3   331  ARG331      0.0489
    153  CD        80.4970  -90.8880   -7.4810 C.3   331  ARG331      0.2205
    154  NE        81.0090  -90.4340   -6.1940 N.pl3 331  ARG331     -0.0865
    155  CZ        82.2920  -90.2110   -5.9260 C.cat 331  ARG331      0.5346
    156  NH1       83.2050  -90.2970   -6.8860 N.pl3 331  ARG331      0.1354
    157  NH2       82.6700  -89.8760   -4.7020 N.pl3 331  ARG331      0.1354
    158  N         78.8520  -93.0980  -11.0570 N.am  332  VAL332     -0.1966
    159  CA        78.1430  -94.0150  -11.9680 C.3   332  VAL332      0.1727
    160  C         76.7210  -94.2740  -11.4410 C.2   332  VAL332      0.2616
    161  O         76.5490  -94.3880  -10.2400 O.2   332  VAL332     -0.2715
    162  CB        78.9390  -95.3540  -12.1690 C.3   332  VAL332      0.0290
    163  CG1       78.2090  -96.3200  -13.0970 C.3   332  VAL332      0.0023
    164  CG2       80.3490  -95.1020  -12.6960 C.3   332  VAL332      0.0023
    165  N         75.7160  -94.3670  -12.3390 N.am  333  ILE333     -0.1977
    166  CA        74.3610  -94.8150  -12.0560 C.3   333  ILE333      0.1596
    167  C         74.0770  -96.0800  -12.8480 C.2   333  ILE333      0.2287
    168  O         74.1440  -96.0610  -14.0750 O.2   333  ILE333     -0.2864
    169  CB        73.2060  -93.7500  -12.1800 C.3   333  ILE333      0.0276
    170  CG1       71.8220  -94.3850  -11.8140 C.3   333  ILE333      0.0022
    171  CG2       73.1430  -93.0610  -13.5650 C.3   333  ILE333      0.0022
    172  CD1       70.8420  -93.5560  -11.1430 C.3   333  ILE333      0.0001
    173  N         78.7430  -95.4440   -6.7090 N.3   360  ILE360     -0.1231
    174  CA        77.5410  -95.7890   -7.4610 C.3   360  ILE360      0.1692
    175  C         76.2330  -95.3280   -6.8420 C.2   360  ILE360      0.2591
    176  O         76.1330  -95.1630   -5.6240 O.2   360  ILE360     -0.2718
    177  CB        77.5400  -97.3420   -7.6580 C.3   360  ILE360      0.0266
    178  CG1       76.5590  -97.8050   -8.7940 C.3   360  ILE360      0.0019
    179  CG2       77.2360  -98.0490   -6.3180 C.3   360  ILE360      0.0020
    180  CD1       77.1670  -98.4190   -9.9170 C.3   360  ILE360      0.0001
    181  N         75.2130  -95.2090   -7.6980 N.am  361  ALA361     -0.1980
    182  CA        73.8360  -94.9790   -7.3470 C.3   361  ALA361      0.1597
    183  C         73.0240  -95.9140   -8.2340 C.2   361  ALA361      0.2287
    184  O         73.5430  -96.4280   -9.2340 O.2   361  ALA361     -0.2864
    185  CB        73.4600  -93.5400   -7.5770 C.3   361  ALA361      0.0319
@<TRIPOS>BOND
     1    83    82   ar
     2    79    78    2
     3    78    77    1
     4    82    81    1
     5    82    84   ar
     6    81    80    1
     7    80    77    1
     8    77    76    1
     9    76    73   am
    10    75    72    1
    11    73    72    1
    12    73    74    2
    13    43    42    1
    14    72    71    1
    15    42    44    1
    16    42    41    2
    17    40    41    1
    18    40    39    1
    19    71    68   am
    20    69    68    2
    21   132   131    2
    22    38    39    1
    23    38    35    1
    24   139   137    1
    25    68    67    1
    26   138   137    1
    27    37    36    2
    28   137   136    2
    29   131   130    1
    30    35    36    1
    31    35    34    1
    32    95    94    2
    33   136   135    1
    34    67    66    1
    35    67    70    1
    36    94    93    1
    37   129   130    1
    38   133   130    1
    39   133   134    1
    40   135   134    1
    41   124   123    2
    42    97    96    1
    43    93    92    1
    44    93    96    1
    45   123   122    1
    46    26    25    2
    47    52    50   ar
    48   121   122    1
    49    30    32   ar
    50    30    28   ar
    51   168   167    2
    52    32    33   ar
    53   122   125    1
    54    27    28    1
    55    27    24    1
    56    62    61    2
    57   171   169    1
    58    25    24    1
    59    28    29   ar
    60    50    49    1
    61    50    51   ar
    62    33    31   ar
    63   163   162    1
    64    61    60    1
    65    88    87    2
    66    24    23    1
    67    48    47    2
    68    49    46    1
    69   167   166    1
    70    87    86    1
    71    29    31   ar
    72   125   127    1
    73   125   126    1
    74   117   116    2
    75   164   162    1
    76   150   149    2
    77   116   115    1
    78   165   166    1
    79   165   160   am
    80   169   166    1
    81   169   170    1
    82   162   159    1
    83    47    46    1
    84   159   160    1
    85   159   158    1
    86    65    63    1
    87   170   172    1
    88    46    45    1
    89   126   128    1
    90    86    85    1
    91    86    89    1
    92    60    63    1
    93    60    59    1
    94   149   158   am
    95   149   148    1
    96   160   161    2
    97    58    57    1
    98    63    64    1
    99   115   114    1
   100   115   118    1
   101    85    91    1
   102   147   148    1
   103    59    55   am
   104    57    54    1
   105   148   151    1
   106   114   120    1
   107    89    90    1
   108    20    22   ar
   109    20    18   ar
   110   118   119    1
   111    22    21   ar
   112    91    90    1
   113   180   178    1
   114    55    54    1
   115    55    56    2
   116   151   152    1
   117   119   120    1
   118    54    53    1
   119   184   183    2
   120    16    15    2
   121    18    17    1
   122    18    19   ar
   123    21    19   ar
   124   178   177    1
   125    17    14    1
   126    15    14    1
   127   183   182    1
   128   152   153    1
   129   142   143    2
   130   142   141    1
   131    14    13    1
   132   181   182    1
   133   181   175   am
   134   108   107    2
   135   177   174    1
   136   177   179    1
   137   107   106    1
   138   185   182    1
   139   153   154    1
   140   174   175    1
   141   174   173    1
   142    98    99    1
   143   140   141    1
   144   140   146    1
   145   156   155    1
   146   141   144    1
   147   175   176    2
   148   146   145    1
   149    99   100    1
   150    99   102    1
   151   105   100   am
   152   105   106    1
   153   100   101    2
   154   106   109    1
   155   154   155    2
   156   155   157    1
   157   145   144    1
   158   109   110    1
   159     4     3    2
   160   103   102    1
   161   102   104    1
   162   110   111    1
   163     3     2    1
   164     7     9   ar
   165     7     6   ar
   166     5     2    1
   167     5     6    1
   168   111   113   am
   169   111   112    2
   170     2     1    1
   171     9    11   ar
   172     6     8   ar
   173    11    12    1
   174    11    10   ar
   175     8    10   ar
