@<TRIPOS>MOLECULE
tmp/6ateA00.pdb
 171 161 0 0 0
SMALL
GASTEIGER

@<TRIPOS>ATOM
      1  N          4.6420  -41.7360    5.7900 N.3    17  LEU17      -0.1231
      2  CA         4.7430  -41.0270    7.0590 C.3    17  LEU17       0.1693
      3  C          3.7570  -41.5180    8.1090 C.2    17  LEU17       0.2593
      4  O          4.0080  -41.3320    9.3050 O.2    17  LEU17      -0.2718
      5  CB         4.5360  -39.5220    6.8480 C.3    17  LEU17       0.0284
      6  CG         5.6970  -38.7370    6.2370 C.3    17  LEU17       0.0019
      7  CD1        5.2890  -37.2940    5.9880 C.3    17  LEU17       0.0001
      8  CD2        6.9160  -38.8010    7.1430 C.3    17  LEU17       0.0001
      9  N          2.6550  -42.1350    7.6990 N.am   18  GLY18      -0.1942
     10  CA         1.6400  -42.6200    8.6060 C.3    18  GLY18       0.2014
     11  C          0.2670  -42.1280    8.2120 C.2    18  GLY18       0.2639
     12  O          0.0820  -41.4340    7.2140 O.2    18  GLY18      -0.2714
     13  N         -0.7130  -42.5030    9.0240 N.am   19  GLN19      -0.1963
     14  CA        -2.0990  -42.1190    8.8080 C.3    19  GLN19       0.1733
     15  C         -2.5570  -41.1650    9.9040 C.2    19  GLN19       0.2617
     16  O         -1.8330  -40.8740   10.8600 O.2    19  GLN19      -0.2715
     17  CB        -3.0000  -43.3590    8.7470 C.3    19  GLN19       0.0408
     18  CG        -2.6500  -44.3000    7.6010 C.3    19  GLN19       0.0908
     19  CD        -3.5370  -45.5310    7.5390 C.2    19  GLN19       0.2608
     20  OE1       -3.1170  -46.5830    7.0580 O.2    19  GLN19      -0.2717
     21  NE2       -4.7710  -45.4040    8.0140 N.am   19  GLN19      -0.0878
     22  N         -3.7820  -40.6720    9.7450 N.am   20  GLY20      -0.1940
     23  CA        -4.3120  -39.6580   10.6320 C.3    20  GLY20       0.2014
     24  C         -4.6450  -38.3880    9.8800 C.2    20  GLY20       0.2639
     25  O         -4.1420  -38.1730    8.7710 O.2    20  GLY20      -0.2714
     26  N         -5.4840  -37.5390   10.4730 N.am   21  CYS21      -0.1967
     27  CA        -5.9830  -36.3300    9.8240 C.3    21  CYS21       0.1712
     28  C         -6.6310  -36.6810    8.4850 C.2    21  CYS21       0.2296
     29  O         -6.2120  -36.2370    7.4140 O.2    21  CYS21      -0.2864
     30  CB        -4.8640  -35.2990    9.6560 C.3    21  CYS21       0.0983
     31  SG        -5.3640  -33.6870    9.0090 S.3    21  CYS21      -0.0798
     32  N         -0.6890  -40.1550    4.7550 N.3    25  VAL25      -0.1245
     33  CA         0.1270  -39.0460    4.2720 C.3    25  VAL25       0.1561
     34  C          1.5020  -39.5950    3.9140 C.2    25  VAL25       0.2260
     35  O          2.0810  -40.3750    4.6780 O.2    25  VAL25      -0.2867
     36  CB         0.2540  -37.9180    5.3160 C.3    25  VAL25       0.0252
     37  CG1        1.0010  -36.7300    4.7260 C.3    25  VAL25       0.0019
     38  CG2       -1.1160  -37.4940    5.8250 C.3    25  VAL25       0.0019
     39  N          4.2940  -33.0620    1.2430 N.3    37  ALA37      -0.1245
     40  CA         3.4910  -34.1080    1.8550 C.3    37  ALA37       0.1562
     41  C          2.2600  -34.3540    0.9960 C.2    37  ALA37       0.2260
     42  O          1.6070  -33.4070    0.5470 O.2    37  ALA37      -0.2867
     43  CB         3.0730  -33.7290    3.2760 C.3    37  ALA37       0.0290
     44  N         -1.3050  -36.2700    1.0280 N.3    39  LYS39      -0.1245
     45  CA        -2.3690  -36.9930    1.7120 C.3    39  LYS39       0.1561
     46  C         -3.2870  -37.6220    0.6720 C.2    39  LYS39       0.2260
     47  O         -3.9230  -36.9110   -0.1140 O.2    39  LYS39      -0.2867
     48  CB        -3.1580  -36.0730    2.6410 C.3    39  LYS39       0.0271
     49  CG        -4.3050  -36.7770    3.3520 C.3    39  LYS39       0.0035
     50  CD        -4.8470  -35.9570    4.5100 C.3    39  LYS39       0.0206
     51  CE        -5.5470  -34.6990    4.0310 C.3    39  LYS39       0.1093
     52  NZ        -6.1310  -33.9400    5.1720 N.3    39  LYS39      -0.1314
     53  N        -11.2760  -30.1380    2.4600 N.3    46  GLU46      -0.1245
     54  CA        -9.8760  -30.0450    2.8560 C.3    46  GLU46       0.1567
     55  C         -9.0770  -29.2500    1.8310 C.2    46  GLU46       0.2260
     56  O         -8.1370  -28.5390    2.1780 O.2    46  GLU46      -0.2867
     57  CB        -9.2720  -31.4430    3.0310 C.3    46  GLU46       0.0388
     58  CG        -7.8020  -31.4550    3.4390 C.3    46  GLU46       0.1160
     59  CD        -7.5850  -31.1130    4.9000 C.2    46  GLU46       0.3649
     60  OE1       -8.4280  -31.4980    5.7370 O.co2  46  GLU46      -0.2457
     61  OE2       -6.5660  -30.4610    5.2120 O.co2  46  GLU46      -0.2457
     62  N         -0.6780  -24.6940    7.6810 N.3    59  VAL59      -0.1245
     63  CA        -0.0110  -25.5530    6.7090 C.3    59  VAL59       0.1561
     64  C         -0.4600  -25.1440    5.3140 C.2    59  VAL59       0.2260
     65  O         -1.6610  -25.0980    5.0200 O.2    59  VAL59      -0.2867
     66  CB        -0.3100  -27.0270    6.9910 C.3    59  VAL59       0.0252
     67  CG1        0.2960  -27.9030    5.9080 C.3    59  VAL59       0.0019
     68  CG2        0.2240  -27.4200    8.3570 C.3    59  VAL59       0.0019
     69  N          0.8200  -30.6120    0.2650 N.3    74  THR74      -0.1203
     70  CA         1.0880  -29.5040    1.1710 C.3    74  THR74       0.1994
     71  C          2.5730  -29.4750    1.5070 C.2    74  THR74       0.2618
     72  O          3.3420  -30.3540    1.1090 O.2    74  THR74      -0.2717
     73  CB         0.2630  -29.6110    2.4620 C.3    74  THR74       0.1784
     74  OG1        0.5910  -30.8300    3.1400 O.3    74  THR74      -0.2211
     75  CG2       -1.2270  -29.5890    2.1550 C.3    74  THR74       0.0376
     76  N          2.9700  -28.4480    2.2540 N.am   75  GLU75      -0.1965
     77  CA         4.3490  -28.3420    2.7010 C.3    75  GLU75       0.1733
     78  C          4.6750  -29.4550    3.6930 C.2    75  GLU75       0.2616
     79  O          3.7930  -30.0380    4.3300 O.2    75  GLU75      -0.2715
     80  CB         4.6090  -26.9790    3.3400 C.3    75  GLU75       0.0429
     81  CG         3.7320  -26.6800    4.5420 C.3    75  GLU75       0.1163
     82  CD         4.1970  -25.4630    5.3160 C.2    75  GLU75       0.3649
     83  OE1        5.4230  -25.2970    5.4880 O.co2  75  GLU75      -0.2457
     84  OE2        3.3380  -24.6670    5.7480 O.co2  75  GLU75      -0.2457
     85  N          5.9650  -29.7470    3.8190 N.am   76  TYR76      -0.1960
     86  CA         6.4460  -30.8130    4.6870 C.3    76  TYR76       0.1771
     87  C          6.8990  -30.2340    6.0210 C.2    76  TYR76       0.2619
     88  O          7.6780  -29.2760    6.0570 O.2    76  TYR76      -0.2715
     89  CB         7.5930  -31.5800    4.0260 C.3    76  TYR76       0.0574
     90  CG         8.2170  -32.6280    4.9200 C.ar   76  TYR76      -0.0198
     91  CD1        7.5900  -33.8480    5.1350 C.ar   76  TYR76      -0.0009
     92  CD2        9.4340  -32.3970    5.5500 C.ar   76  TYR76      -0.0009
     93  CE1        8.1560  -34.8090    5.9540 C.ar   76  TYR76       0.0417
     94  CE2       10.0080  -33.3510    6.3690 C.ar   76  TYR76       0.0417
     95  CZ         9.3650  -34.5550    6.5670 C.ar   76  TYR76       0.1957
     96  OH         9.9350  -35.5070    7.3820 O.3    76  TYR76      -0.2866
     97  N          6.4070  -30.8190    7.1090 N.am   77  MET77      -0.1963
     98  CA         6.8170  -30.4660    8.4610 C.3    77  MET77       0.1736
     99  C          7.6950  -31.5820    9.0080 C.2    77  MET77       0.2617
    100  O          7.2920  -32.7500    9.0060 O.2    77  MET77      -0.2715
    101  CB         5.6010  -30.2430    9.3610 C.3    77  MET77       0.0427
    102  CG         4.5830  -29.2700    8.7850 C.3    77  MET77       0.0599
    103  SD         5.2380  -27.6050    8.5570 S.3    77  MET77      -0.1393
    104  CE         5.5060  -27.1080   10.2560 C.3    77  MET77       0.0692
    105  N          8.8920  -31.2210    9.4760 N.am   78  SER78      -0.1936
    106  CA         9.8980  -32.2300    9.7960 C.3    78  SER78       0.2055
    107  C          9.5500  -33.0030   11.0640 C.2    78  SER78       0.2643
    108  O          9.7130  -34.2280   11.1110 O.2    78  SER78      -0.2714
    109  CB        11.2720  -31.5710    9.9220 C.3    78  SER78       0.2130
    110  OG        11.2120  -30.4160   10.7400 O.3    78  SER78      -0.2179
    111  N          9.0740  -32.3140   12.1020 N.am   79  LYS79      -0.1963
    112  CA         8.8180  -32.9680   13.3800 C.3    79  LYS79       0.1728
    113  C          7.4900  -33.7130   13.4250 C.2    79  LYS79       0.2617
    114  O          7.2850  -34.5210   14.3380 O.2    79  LYS79      -0.2715
    115  CB         8.8660  -31.9440   14.5160 C.3    79  LYS79       0.0311
    116  CG        10.2540  -31.3980   14.8010 C.3    79  LYS79       0.0038
    117  CD        11.1950  -32.4990   15.2620 C.3    79  LYS79       0.0206
    118  CE        12.5320  -31.9300   15.7110 C.3    79  LYS79       0.1093
    119  NZ        13.2100  -31.1680   14.6250 N.3    79  LYS79      -0.1314
    120  N          6.5880  -33.4660   12.4800 N.am   80  GLY80      -0.1940
    121  CA         5.3360  -34.1980   12.4530 C.3    80  GLY80       0.2014
    122  C          4.2790  -33.5910   13.3620 C.2    80  GLY80       0.2639
    123  O          4.2310  -32.3810   13.5860 O.2    80  GLY80      -0.2714
    124  N          3.4250  -34.4620   13.8950 N.am   81  SER81      -0.1949
    125  CA         2.2970  -34.0280   14.7090 C.3    81  SER81       0.1924
    126  C          2.7610  -33.4590   16.0450 C.2    81  SER81       0.2314
    127  O          3.7760  -33.8770   16.6090 O.2    81  SER81      -0.2863
    128  CB         1.3420  -35.1950   14.9530 C.3    81  SER81       0.2116
    129  OG         0.3670  -34.8540   15.9230 O.3    81  SER81      -0.2180
    130  N          2.3130  -36.1880   18.8150 N.3    84  ASP84      -0.1239
    131  CA         3.4450  -37.1100   18.8170 C.3    84  ASP84       0.1674
    132  C          4.6930  -36.4480   19.3860 C.2    84  ASP84       0.2266
    133  O          5.4400  -37.0680   20.1520 O.2    84  ASP84      -0.2867
    134  CB         3.7160  -37.6240   17.4030 C.3    84  ASP84       0.1410
    135  CG         2.6140  -38.5250   16.8880 C.2    84  ASP84       0.3668
    136  OD1        1.9210  -39.1530   17.7170 O.co2  84  ASP84      -0.2456
    137  OD2        2.4440  -38.6080   15.6530 O.co2  84  ASP84      -0.2456
    138  N         -3.3950  -33.2000   17.8550 N.3   126  ALA126     -0.1231
    139  CA        -3.2310  -34.1840   16.7890 C.3   126  ALA126      0.1694
    140  C         -3.3100  -33.5400   15.4120 C.2   126  ALA126      0.2592
    141  O         -2.7230  -34.0550   14.4530 O.2   126  ALA126     -0.2718
    142  CB        -4.2820  -35.2860   16.9200 C.3   126  ALA126      0.0304
    143  N         -4.0210  -32.4190   15.2920 N.am  127  ASN127     -0.1974
    144  CA        -4.1810  -31.7170   14.0240 C.3   127  ASN127      0.1688
    145  C         -3.2850  -30.4890   13.9240 C.2   127  ASN127      0.2292
    146  O         -3.6230  -29.5270   13.2250 O.2   127  ASN127     -0.2864
    147  CB        -5.6430  -31.3280   13.8200 C.3   127  ASN127      0.1181
    148  CG        -6.5480  -32.5310   13.7030 C.2   127  ASN127      0.2629
    149  OD1       -6.1220  -33.5980   13.2620 O.2   127  ASN127     -0.2716
    150  ND2       -7.8040  -32.3700   14.0990 N.am  127  ASN127     -0.0877
    151  N          0.8910  -29.5120   13.2700 N.3   129  LEU129     -0.1245
    152  CA         2.1610  -30.0560   12.8200 C.3   129  LEU129      0.1561
    153  C          3.3120  -29.1800   13.2950 C.2   129  LEU129      0.2260
    154  O          3.1800  -27.9580   13.4190 O.2   129  LEU129     -0.2867
    155  CB         2.1850  -30.1820   11.2960 C.3   129  LEU129      0.0270
    156  CG         1.1300  -31.1410   10.7470 C.3   129  LEU129      0.0019
    157  CD1        0.9470  -30.9520    9.2540 C.3   129  LEU129      0.0001
    158  CD2        1.5100  -32.5780   11.0650 C.3   129  LEU129      0.0001
    159  N         -3.3540  -27.3460   10.9590 N.3   139  ALA139     -0.1231
    160  CA        -3.7150  -28.1330    9.7890 C.3   139  ALA139      0.1694
    161  C         -5.1310  -28.6750    9.9400 C.2   139  ALA139      0.2592
    162  O         -5.8780  -28.2210   10.8140 O.2   139  ALA139     -0.2718
    163  CB        -2.7110  -29.2660    9.5750 C.3   139  ALA139      0.0304
    164  N         -5.5200  -29.6110    9.0720 N.am  140  ASP140     -0.1974
    165  CA        -6.8180  -30.2800    9.1490 C.3   140  ASP140      0.1709
    166  C         -7.9960  -29.3440    8.8920 C.2   140  ASP140      0.2293
    167  O         -8.6840  -28.9230    9.8290 O.2   140  ASP140     -0.2864
    168  CB        -6.9870  -30.9470   10.5140 C.3   140  ASP140      0.1436
    169  CG        -8.1680  -31.8810   10.5560 C.2   140  ASP140      0.3671
    170  OD1       -8.6690  -32.2420    9.4730 O.co2 140  ASP140     -0.2456
    171  OD2       -8.5930  -32.2540   11.6710 O.co2 140  ASP140     -0.2456
@<TRIPOS>BOND
     1    47    46    2
     2    69    70    1
     3    42    41    2
     4    46    45    1
     5    41    40    1
     6    44    45    1
     7    72    71    2
     8    70    71    1
     9    70    73    1
    10    39    40    1
    11    71    76   am
    12    45    48    1
    13    55    56    2
    14    55    54    1
    15    40    43    1
    16    75    73    1
    17    76    77    1
    18    53    54    1
    19    73    74    1
    20    48    49    1
    21    77    80    1
    22    77    78    1
    23    54    57    1
    24    57    58    1
    25    80    81    1
    26    49    50    1
    27    58    59    1
    28    78    85   am
    29    78    79    2
    30    85    86    1
    31    34    33    1
    32    34    35    2
    33    89    86    1
    34    89    90    1
    35    51    50    1
    36    51    52    1
    37    33    32    1
    38    33    36    1
    39    81    82    1
    40    86    87    1
    41    37    36    1
    42    59    61   ar
    43    59    60   ar
    44    90    91   ar
    45    90    92   ar
    46    65    64    2
    47    91    93   ar
    48    64    63    1
    49    36    38    1
    50    82    83   ar
    51    82    84   ar
    52    92    94   ar
    53     1     2    1
    54    67    66    1
    55    93    95   ar
    56     7     6    1
    57    87    88    2
    58    87    97   am
    59     6     5    1
    60     6     8    1
    61    94    95   ar
    62    95    96    1
    63    63    66    1
    64    63    62    1
    65     5     2    1
    66    66    68    1
    67    20    19    2
    68     2     3    1
    69    97    98    1
    70    12    11    2
    71    29    28    2
    72    19    18    1
    73    19    21   am
    74    18    17    1
    75     9     3   am
    76     9    10    1
    77     3     4    2
    78    11    10    1
    79    11    13   am
    80    98    99    1
    81    98   101    1
    82    28    27    1
    83   103   102    1
    84   103   104    1
    85    17    14    1
    86    25    24    2
    87   102   101    1
    88    14    13    1
    89    14    15    1
    90   166   165    1
    91   166   167    2
    92   100    99    2
    93    99   105   am
    94    31    30    1
    95   164   165    1
    96   164   161   am
    97   165   168    1
    98   157   156    1
    99   170   169   ar
   100   105   106    1
   101   163   160    1
   102    30    27    1
   103    22    15   am
   104    22    23    1
   105   160   161    1
   106   160   159    1
   107   106   109    1
   108   106   107    1
   109    27    26    1
   110    24    26   am
   111    24    23    1
   112    15    16    2
   113   109   110    1
   114   161   162    2
   115   168   169    1
   116   169   171   ar
   117   156   158    1
   118   156   155    1
   119   107   108    2
   120   107   111   am
   121   155   152    1
   122   111   112    1
   123   121   120    1
   124   121   122    1
   125   120   113   am
   126   152   151    1
   127   152   153    1
   128   146   145    2
   129   149   148    2
   130   153   154    2
   131   122   123    2
   132   122   124   am
   133   112   113    1
   134   112   115    1
   135   113   114    2
   136   148   147    1
   137   148   150   am
   138   147   144    1
   139   124   125    1
   140   145   144    1
   141   144   143    1
   142   141   140    2
   143   115   116    1
   144   119   118    1
   145   125   128    1
   146   125   126    1
   147   116   117    1
   148   128   129    1
   149   117   118    1
   150   143   140   am
   151   140   139    1
   152   137   135   ar
   153   126   127    2
   154   139   142    1
   155   139   138    1
   156   135   134    1
   157   135   136   ar
   158   134   131    1
   159   130   131    1
   160   131   132    1
   161   132   133    2
