@<TRIPOS>MOLECULE
tmp/6atfB02.pdb
 70 65 0 0 0
SMALL
GASTEIGER

@<TRIPOS>ATOM
      1  N         25.4400   11.0240   98.0970 N.3   126  ILE126     -0.1231
      2  CA        24.2000   10.5910   97.4730 C.3   126  ILE126      0.1692
      3  C         23.2040   11.7390   97.4800 C.2   126  ILE126      0.2592
      4  O         23.2670   12.6390   98.3250 O.2   126  ILE126     -0.2718
      5  CB        23.6150    9.3420   98.1900 C.3   126  ILE126      0.0266
      6  CG1       22.6340    8.5950   97.2770 C.3   126  ILE126      0.0019
      7  CG2       22.9810    9.7160   99.5330 C.3   126  ILE126      0.0020
      8  CD1       23.0370    7.1630   96.9830 C.3   126  ILE126      0.0001
      9  N         22.3110   11.7260   96.5010 N.am  127  GLU127     -0.1966
     10  CA        21.2390   12.7010   96.4190 C.3   127  GLU127      0.1733
     11  C         19.9520   11.9790   96.1050 C.2   127  GLU127      0.2616
     12  O         19.8700   11.2700   95.1060 O.2   127  GLU127     -0.2715
     13  CB        21.5230   13.7520   95.3500 C.3   127  GLU127      0.0429
     14  CG        22.5540   14.7740   95.7620 C.3   127  GLU127      0.1163
     15  CD        22.0680   15.6730   96.8820 C.2   127  GLU127      0.3649
     16  OE1       20.9040   16.1260   96.8130 O.co2 127  GLU127     -0.2457
     17  OE2       22.8510   15.9300   97.8240 O.co2 127  GLU127     -0.2457
     18  N         18.9590   12.1480   96.9690 N.am  128  VAL128     -0.1977
     19  CA        17.6750   11.4870   96.7960 C.3   128  VAL128      0.1596
     20  C         16.5580   12.5230   96.7510 C.2   128  VAL128      0.2287
     21  O         16.4650   13.3780   97.6340 O.2   128  VAL128     -0.2864
     22  CB        17.3990   10.4790   97.9280 C.3   128  VAL128      0.0276
     23  CG1       16.0870    9.7570   97.6750 C.3   128  VAL128      0.0022
     24  CG2       18.5480    9.4680   98.0460 C.3   128  VAL128      0.0022
     25  N          9.7040   16.1560  103.5540 N.3   141  VAL141     -0.1231
     26  CA        10.7560   15.1560  103.3840 C.3   141  VAL141      0.1692
     27  C         11.6730   15.1030  104.6030 C.2   141  VAL141      0.2592
     28  O         12.1800   16.1230  105.0540 O.2   141  VAL141     -0.2718
     29  CB        11.5980   15.4270  102.1180 C.3   141  VAL141      0.0266
     30  CG1       12.7590   14.4380  102.0200 C.3   141  VAL141      0.0020
     31  CG2       10.7180   15.3400  100.8730 C.3   141  VAL141      0.0020
     32  N         11.8840   13.8990  105.1230 N.am  142  VAL142     -0.1966
     33  CA        12.7330   13.6980  106.2850 C.3   142  VAL142      0.1727
     34  C         13.5980   12.4780  106.0300 C.2   142  VAL142      0.2616
     35  O         13.1940   11.5760  105.2980 O.2   142  VAL142     -0.2715
     36  CB        11.8950   13.5200  107.5760 C.3   142  VAL142      0.0290
     37  CG1       11.0380   12.2580  107.4910 C.3   142  VAL142      0.0023
     38  CG2       12.7870   13.4920  108.8030 C.3   142  VAL142      0.0023
     39  N         14.7870   12.4470  106.6240 N.am  143  SER143     -0.1950
     40  CA        15.7350   11.3890  106.3200 C.3   143  SER143      0.1924
     41  C         16.5150   10.9280  107.5440 C.2   143  SER143      0.2314
     42  O         16.5930   11.6300  108.5570 O.2   143  SER143     -0.2863
     43  CB        16.7060   11.8690  105.2320 C.3   143  SER143      0.2116
     44  OG        17.6790   10.8840  104.9260 O.3   143  SER143     -0.2180
     45  N         19.5480   10.6870  107.1480 N.3   145  GLY145     -0.1210
     46  CA        20.8460   11.2440  106.8140 C.3   145  GLY145      0.1956
     47  C         21.6750   10.1030  106.2540 C.2   145  GLY145      0.2611
     48  O         21.1670    8.9900  106.1090 O.2   145  GLY145     -0.2717
     49  N         22.9470   10.3610  105.9660 N.am  146  LEU146     -0.1979
     50  CA        23.8270    9.3360  105.4170 C.3   146  LEU146      0.1596
     51  C         24.2900    8.3750  106.5050 C.2   146  LEU146      0.2287
     52  O         24.9220    8.7810  107.4720 O.2   146  LEU146     -0.2864
     53  CB        25.0390    9.9760  104.7370 C.3   146  LEU146      0.0297
     54  CG        26.0570    8.9980  104.1400 C.3   146  LEU146      0.0022
     55  CD1       25.4300    8.1900  103.0220 C.3   146  LEU146      0.0001
     56  CD2       27.2960    9.7430  103.6420 C.3   146  LEU146      0.0001
     57  N         20.7830    5.0270  103.1670 N.3   156  THR156     -0.1218
     58  CA        19.9780    6.1060  103.7150 C.3   156  THR156      0.1862
     59  C         18.5100    5.7920  103.5030 C.2   156  THR156      0.2287
     60  O         18.1560    5.0350  102.5990 O.2   156  THR156     -0.2866
     61  CB        20.3240    7.4760  103.0850 C.3   156  THR156      0.1770
     62  OG1       19.5430    8.4970  103.7160 O.3   156  THR156     -0.2211
     63  CG2       20.0520    7.4860  101.5840 C.3   156  THR156      0.0375
     64  N         15.0380    7.9770  102.8470 N.3   158  VAL158     -0.1245
     65  CA        14.5010    9.2970  102.5840 C.3   158  VAL158      0.1561
     66  C         12.9920    9.1650  102.4910 C.2   158  VAL158      0.2260
     67  O         12.4640    8.4600  101.6280 O.2   158  VAL158     -0.2867
     68  CB        15.0920    9.9120  101.3050 C.3   158  VAL158      0.0252
     69  CG1       14.4270   11.2490  101.0060 C.3   158  VAL158      0.0019
     70  CG2       16.6120   10.0830  101.4700 C.3   158  VAL158      0.0019
@<TRIPOS>BOND
     1    12    11    2
     2    13    14    1
     3    13    10    1
     4    14    15    1
     5    11    10    1
     6    11    18   am
     7    10     9    1
     8     9     3   am
     9    20    19    1
    10    20    21    2
    11    19    18    1
    12    19    22    1
    13    16    15   ar
    14    15    17   ar
    15     8     6    1
    16     6     5    1
    17     2     3    1
    18     2     1    1
    19     2     5    1
    20     3     4    2
    21    23    22    1
    22    22    24    1
    23     5     7    1
    24    31    29    1
    25    69    68    1
    26    68    70    1
    27    68    65    1
    28    63    61    1
    29    67    66    2
    30    30    29    1
    31    29    26    1
    32    66    65    1
    33    65    64    1
    34    60    59    2
    35    55    54    1
    36    61    58    1
    37    61    62    1
    38    57    58    1
    39    26    25    1
    40    26    27    1
    41    59    58    1
    42    56    54    1
    43    54    53    1
    44    27    28    2
    45    27    32   am
    46    53    50    1
    47    44    43    1
    48    32    33    1
    49    43    40    1
    50    35    34    2
    51    50    49    1
    52    50    51    1
    53    49    47   am
    54    34    33    1
    55    34    39   am
    56    48    47    2
    57    47    46    1
    58    33    36    1
    59    40    39    1
    60    40    41    1
    61    51    52    2
    62    46    45    1
    63    37    36    1
    64    41    42    2
    65    36    38    1
