@<TRIPOS>MOLECULE
tmp/6atfA00.pdb
 90 84 0 0 0
SMALL
GASTEIGER

@<TRIPOS>ATOM
      1  N         46.8880    5.2660  115.6000 N.3     9  GLU9       -0.1245
      2  CA        47.4920    4.2970  116.4990 C.3     9  GLU9        0.1567
      3  C         47.3500    4.7350  117.9500 C.2     9  GLU9        0.2260
      4  O         47.3970    5.9300  118.2570 O.2     9  GLU9       -0.2867
      5  CB        48.9660    4.1090  116.1600 C.3     9  GLU9        0.0388
      6  CG        49.8070    5.3580  116.4100 C.3     9  GLU9        0.1160
      7  CD        51.1780    5.2700  115.7820 C.2     9  GLU9        0.3649
      8  OE1       52.1850    5.4470  116.5000 O.co2   9  GLU9       -0.2457
      9  OE2       51.2470    5.0340  114.5620 O.co2   9  GLU9       -0.2457
     10  N         55.8110    1.2340  115.9840 N.3    60  ASN60      -0.1240
     11  CA        55.0690    2.4300  116.3790 C.3    60  ASN60       0.1653
     12  C         54.3550    2.2780  117.7170 C.2    60  ASN60       0.2266
     13  O         54.3070    3.2240  118.5070 O.2    60  ASN60      -0.2867
     14  CB        54.0450    2.8080  115.3100 C.3    60  ASN60       0.1155
     15  CG        54.6410    3.6740  114.2160 C.2    60  ASN60       0.2627
     16  OD1       55.8280    3.5710  113.9070 O.2    60  ASN60      -0.2716
     17  ND2       53.8160    4.5260  113.6190 N.am   60  ASN60      -0.0877
     18  N         56.7140    2.7380  120.5140 N.3    63  VAL63      -0.1231
     19  CA        56.9260    4.1750  120.6580 C.3    63  VAL63       0.1692
     20  C         55.7620    4.8170  121.4030 C.2    63  VAL63       0.2592
     21  O         55.9660    5.6320  122.3020 O.2    63  VAL63      -0.2718
     22  CB        57.0850    4.8600  119.2860 C.3    63  VAL63       0.0266
     23  CG1       56.9260    6.3710  119.4160 C.3    63  VAL63       0.0020
     24  CG2       58.4290    4.4930  118.6630 C.3    63  VAL63       0.0020
     25  N         54.5410    4.4480  121.0220 N.am   64  ASP64      -0.1974
     26  CA        53.3490    4.9470  121.6940 C.3    64  ASP64       0.1709
     27  C         53.4000    4.6120  123.1810 C.2    64  ASP64       0.2293
     28  O         53.0620    5.4400  124.0260 O.2    64  ASP64      -0.2864
     29  CB        52.0820    4.3560  121.0720 C.3    64  ASP64       0.1436
     30  CG        51.9030    4.7460  119.6170 C.2    64  ASP64       0.3671
     31  OD1       52.3830    5.8300  119.2180 O.co2  64  ASP64      -0.2456
     32  OD2       51.2560    3.9700  118.8800 O.co2  64  ASP64      -0.2456
     33  N         56.1280    4.0720  124.9770 N.3    66  ALA66      -0.1231
     34  CA        57.1540    4.9110  125.5970 C.3    66  ALA66       0.1694
     35  C         56.6400    6.3380  125.7740 C.2    66  ALA66       0.2592
     36  O         56.8790    6.9720  126.8010 O.2    66  ALA66      -0.2718
     37  CB        58.4290    4.9050  124.7710 C.3    66  ALA66       0.0304
     38  N         55.9280    6.8430  124.7700 N.am   67  ASN67      -0.1974
     39  CA        55.3950    8.1990  124.8460 C.3    67  ASN67       0.1688
     40  C         54.3210    8.3290  125.9180 C.2    67  ASN67       0.2292
     41  O         54.1840    9.3840  126.5290 O.2    67  ASN67      -0.2864
     42  CB        54.8510    8.6460  123.4890 C.3    67  ASN67       0.1181
     43  CG        55.9580    9.0140  122.5210 C.2    67  ASN67       0.2629
     44  OD1       57.1120    9.1890  122.9250 O.2    67  ASN67      -0.2716
     45  ND2       55.6190    9.1340  121.2400 N.am   67  ASN67      -0.0877
     46  N         54.2780    6.7200  128.8430 N.3    69  GLU69      -0.1231
     47  CA        54.9710    6.8050  130.1240 C.3    69  GLU69       0.1699
     48  C         55.4970    8.2160  130.3400 C.2    69  GLU69       0.2592
     49  O         55.3690    8.7760  131.4270 O.2    69  GLU69      -0.2718
     50  CB        56.1190    5.7900  130.1930 C.3    69  GLU69       0.0402
     51  CG        55.6070    4.3950  129.8570 C.3    69  GLU69       0.1161
     52  CD        54.8400    3.7210  130.9620 C.2    69  GLU69       0.3649
     53  OE1       54.7060    4.3330  132.0230 O.co2  69  GLU69      -0.2457
     54  OE2       54.3630    2.5600  130.7680 O.co2  69  GLU69      -0.2457
     55  N         56.0760    8.7890  129.2920 N.am   70  ILE70      -0.1966
     56  CA        56.5700   10.1640  129.3340 C.3    70  ILE70       0.1727
     57  C         55.4480   11.1770  129.6180 C.2    70  ILE70       0.2616
     58  O         55.5920   12.0420  130.4880 O.2    70  ILE70      -0.2715
     59  CB        57.2720   10.5410  128.0080 C.3    70  ILE70       0.0290
     60  CG1       58.5090    9.6660  127.7910 C.3    70  ILE70       0.0022
     61  CG2       57.6440   12.0180  127.9960 C.3    70  ILE70       0.0023
     62  CD1       59.1200    9.8080  126.4190 C.3    70  ILE70       0.0001
     63  N         54.3360   11.0640  128.8880 N.am   71  MET71      -0.1977
     64  CA        53.2070   11.9910  129.0360 C.3    71  MET71       0.1605
     65  C         52.4710   11.8560  130.3630 C.2    71  MET71       0.2287
     66  O         51.9660   12.8420  130.9130 O.2    71  MET71      -0.2864
     67  CB        52.1990   11.8010  127.9060 C.3    71  MET71       0.0413
     68  CG        52.6100   12.3960  126.5780 C.3    71  MET71       0.0598
     69  SD        53.0570   14.1420  126.6570 S.3    71  MET71      -0.1393
     70  CE        51.6440   14.8540  127.5040 C.3    71  MET71       0.0692
     71  N         53.7640   11.0720  133.1960 N.3    73  LYS73      -0.1231
     72  CA        54.5960   11.7650  134.1840 C.3    73  LYS73       0.1693
     73  C         54.4470   13.2780  134.0790 C.2    73  LYS73       0.2591
     74  O         54.3130   13.9810  135.0840 O.2    73  LYS73      -0.2718
     75  CB        56.0710   11.3900  134.0170 C.3    73  LYS73       0.0285
     76  CG        56.4300   10.0160  134.5440 C.3    73  LYS73       0.0035
     77  CD        57.8290    9.6110  134.1010 C.3    73  LYS73       0.0206
     78  CE        58.9020   10.4130  134.8210 C.3    73  LYS73       0.1093
     79  NZ        60.2690   10.1680  134.2700 N.3    73  LYS73      -0.1314
     80  N         54.4810   13.7640  132.8440 N.am   74  ARG74      -0.1980
     81  CA        54.4310   15.1850  132.5490 C.3    74  ARG74       0.1597
     82  C         53.1090   15.8050  133.0050 C.2    74  ARG74       0.2287
     83  O         53.0620   16.9610  133.4380 O.2    74  ARG74      -0.2864
     84  CB        54.6260   15.3980  131.0440 C.3    74  ARG74       0.0334
     85  CG        55.5240   16.5460  130.6670 C.3    74  ARG74       0.0492
     86  CD        55.5180   16.7530  129.1570 C.3    74  ARG74       0.2205
     87  NE        56.6510   16.1160  128.4870 N.pl3  74  ARG74      -0.0865
     88  CZ        56.7710   16.0240  127.1670 C.cat  74  ARG74       0.5346
     89  NH1       55.8120   16.5010  126.3830 N.pl3  74  ARG74       0.1354
     90  NH2       57.8400   15.4440  126.6310 N.pl3  74  ARG74       0.1354
@<TRIPOS>BOND
     1    17    15   am
     2    16    15    2
     3    15    14    1
     4     9     7   ar
     5    14    11    1
     6     1     2    1
     7     7     6    1
     8     7     8   ar
     9    10    11    1
    10     5     6    1
    11     5     2    1
    12    11    12    1
    13     2     3    1
    14    12    13    2
    15     3     4    2
    16    24    22    1
    17    32    30   ar
    18    31    30   ar
    19    22    23    1
    20    22    19    1
    21    30    29    1
    22    18    19    1
    23    19    20    1
    24    25    20   am
    25    25    26    1
    26    29    26    1
    27    45    43   am
    28    20    21    2
    29    26    27    1
    30    43    44    2
    31    43    42    1
    32    27    28    2
    33    42    39    1
    34    38    39    1
    35    38    35   am
    36    37    34    1
    37    39    40    1
    38    33    34    1
    39    34    35    1
    40    35    36    2
    41    40    41    2
    42    89    88    1
    43    62    60    1
    44    68    69    1
    45    68    67    1
    46    90    88    1
    47    69    70    1
    48    88    87    2
    49    60    59    1
    50    67    64    1
    51    61    59    1
    52    59    56    1
    53    87    86    1
    54    46    47    1
    55    63    64    1
    56    63    57   am
    57    64    65    1
    58    86    85    1
    59    55    56    1
    60    55    48   am
    61    56    57    1
    62    57    58    2
    63    51    50    1
    64    51    52    1
    65    47    50    1
    66    47    48    1
    67    48    49    2
    68    65    66    2
    69    85    84    1
    70    54    52   ar
    71    52    53   ar
    72    84    81    1
    73    81    80    1
    74    81    82    1
    75    80    73   am
    76    82    83    2
    77    71    72    1
    78    75    72    1
    79    75    76    1
    80    73    72    1
    81    73    74    2
    82    77    76    1
    83    77    78    1
    84    79    78    1
