@<TRIPOS>MOLECULE
tmp/6atfB00.pdb
 156 153 0 0 0
SMALL
GASTEIGER

@<TRIPOS>ATOM
      1  N         47.5490    7.1010  125.0030 N.3     8  GLU8       -0.1245
      2  CA        48.4510    7.7950  124.0900 C.3     8  GLU8        0.1567
      3  C         48.0340    7.4800  122.6580 C.2     8  GLU8        0.2260
      4  O         47.9200    6.3200  122.2890 O.2     8  GLU8       -0.2867
      5  CB        49.9030    7.3810  124.3390 C.3     8  GLU8        0.0388
      6  CG        50.9490    8.2330  123.6240 C.3     8  GLU8        0.1160
      7  CD        51.1070    9.6180  124.2340 C.2     8  GLU8        0.3649
      8  OE1       50.5870    9.8500  125.3510 O.co2   8  GLU8       -0.2457
      9  OE2       51.7500   10.4750  123.5930 O.co2   8  GLU8       -0.2457
     10  N         48.1410    8.7370  118.3530 N.3    10  SER10      -0.1217
     11  CA        48.8050    9.5220  117.3180 C.3    10  SER10       0.1889
     12  C         48.2240    9.2050  115.9510 C.2    10  SER10       0.2288
     13  O         47.9430    8.0490  115.6370 O.2    10  SER10      -0.2866
     14  CB        50.3130    9.2640  117.3150 C.3    10  SER10       0.2089
     15  OG        50.9570   10.0450  116.3230 O.3    10  SER10      -0.2183
     16  N         49.8650   14.3410  117.6530 N.3    29  TYR29      -0.1227
     17  CA        50.0720   13.5510  118.8650 C.3    29  TYR29       0.1736
     18  C         49.1090   13.9890  119.9640 C.2    29  TYR29       0.2595
     19  O         48.9670   15.1840  120.2320 O.2    29  TYR29      -0.2718
     20  CB        51.5110   13.6790  119.3600 C.3    29  TYR29       0.0548
     21  CG        52.5510   13.0100  118.4870 C.ar   29  TYR29      -0.0200
     22  CD1       53.0510   13.6440  117.3540 C.ar   29  TYR29      -0.0009
     23  CD2       53.0630   11.7620  118.8200 C.ar   29  TYR29      -0.0009
     24  CE1       54.0200   13.0310  116.5600 C.ar   29  TYR29       0.0417
     25  CE2       54.0210   11.1450  118.0370 C.ar   29  TYR29       0.0417
     26  CZ        54.4990   11.7860  116.9090 C.ar   29  TYR29       0.1957
     27  OH        55.4630   11.1680  116.1390 O.3    29  TYR29      -0.2866
     28  N         48.4550   13.0140  120.5910 N.am   30  PHE30      -0.1962
     29  CA        47.4350   13.2660  121.6100 C.3    30  PHE30       0.1771
     30  C         47.7550   12.5280  122.9040 C.2    30  PHE30       0.2619
     31  O         48.3660   11.4590  122.8760 O.2    30  PHE30      -0.2715
     32  CB        46.0460   12.8110  121.1480 C.3    30  PHE30       0.0574
     33  CG        45.6540   13.2720  119.7750 C.ar   30  PHE30      -0.0200
     34  CD1       46.1930   12.6770  118.6410 C.ar   30  PHE30      -0.0042
     35  CD2       44.7010   14.2610  119.6170 C.ar   30  PHE30      -0.0042
     36  CE1       45.8150   13.0910  117.3760 C.ar   30  PHE30      -0.0003
     37  CE2       44.3130   14.6760  118.3520 C.ar   30  PHE30      -0.0003
     38  CZ        44.8730   14.0870  117.2310 C.ar   30  PHE30      -0.0000
     39  N         47.3090   13.0820  124.0290 N.am   31  HIS31      -0.1973
     40  CA        47.3230   12.3670  125.3000 C.3    31  HIS31       0.1656
     41  C         45.9930   12.5900  126.0140 C.2    31  HIS31       0.2291
     42  O         45.6130   13.7340  126.2630 O.2    31  HIS31      -0.2864
     43  CB        48.4790   12.8250  126.1940 C.3    31  HIS31       0.0771
     44  CG        48.5730   12.0660  127.4790 C.ar   31  HIS31       0.0820
     45  ND1       49.0620   10.7790  127.5480 N.ar   31  HIS31      -0.2267
     46  CD2       48.2220   12.4040  128.7420 C.ar   31  HIS31       0.1154
     47  CE1       49.0210   10.3620  128.8020 C.ar   31  HIS31       0.1986
     48  NE2       48.5130   11.3280  129.5450 N.ar   31  HIS31      -0.2212
     49  N         48.4060   17.6780  121.7240 N.3    36  ASN36      -0.1225
     50  CA        49.3690   18.6100  122.3140 C.3    36  ASN36       0.1785
     51  C         50.5160   19.0510  121.4040 C.2    36  ASN36       0.2597
     52  O         51.2050   20.0260  121.7180 O.2    36  ASN36      -0.2718
     53  CB        49.9280   18.0470  123.6320 C.3    36  ASN36       0.1169
     54  CG        50.5180   16.6570  123.5000 C.2    36  ASN36       0.2627
     55  OD1       51.2050   16.3310  122.5310 O.2    36  ASN36      -0.2716
     56  ND2       50.2510   15.8230  124.4970 N.am   36  ASN36      -0.0877
     57  N         50.7080   18.3750  120.2740 N.am   37  VAL37      -0.1980
     58  CA        51.7360   18.7890  119.3160 C.3    37  VAL37       0.1595
     59  C         51.4210   18.2460  117.9220 C.2    37  VAL37       0.2287
     60  O         50.8500   17.1620  117.7810 O.2    37  VAL37      -0.2864
     61  CB        53.1540   18.3250  119.7740 C.3    37  VAL37       0.0276
     62  CG1       53.2520   16.8120  119.8140 C.3    37  VAL37       0.0022
     63  CG2       54.2510   18.9170  118.8900 C.3    37  VAL37       0.0022
     64  N         57.3180   21.2510  113.6620 N.3    46  TYR46      -0.1241
     65  CA        56.3550   20.9240  114.7020 C.3    46  TYR46       0.1605
     66  C         55.9130   22.1950  115.4240 C.2    46  TYR46       0.2264
     67  O         56.6960   23.1300  115.5910 O.2    46  TYR46      -0.2867
     68  CB        56.9480   19.9330  115.7020 C.3    46  TYR46       0.0534
     69  CG        57.0800   18.5320  115.1610 C.ar   46  TYR46      -0.0201
     70  CD1       58.2680   18.0960  114.5870 C.ar   46  TYR46      -0.0009
     71  CD2       56.0150   17.6410  115.2260 C.ar   46  TYR46      -0.0009
     72  CE1       58.3870   16.8100  114.0830 C.ar   46  TYR46       0.0417
     73  CE2       56.1310   16.3470  114.7340 C.ar   46  TYR46       0.0417
     74  CZ        57.3150   15.9420  114.1580 C.ar   46  TYR46       0.1957
     75  OH        57.4280   14.6640  113.6590 O.3    46  TYR46      -0.2866
     76  N         51.7410   21.3690  127.2470 N.3    52  LEU52      -0.1231
     77  CA        52.2420   20.0230  127.5180 C.3    52  LEU52       0.1693
     78  C         53.0140   19.4370  126.3310 C.2    52  LEU52       0.2592
     79  O         53.8140   18.5230  126.4940 O.2    52  LEU52      -0.2718
     80  CB        51.0810   19.1020  127.8900 C.3    52  LEU52       0.0284
     81  CG        51.2230   18.2320  129.1410 C.3    52  LEU52       0.0019
     82  CD1       51.9530   18.9690  130.2530 C.3    52  LEU52       0.0001
     83  CD2       49.8450   17.7930  129.6120 C.3    52  LEU52       0.0001
     84  N         52.7710   19.9700  125.1400 N.am   53  GLY53      -0.1957
     85  CA        53.4390   19.4800  123.9460 C.3    53  GLY53       0.1869
     86  C         54.6480   20.3050  123.5490 C.2    53  GLY53       0.2309
     87  O         55.3950   19.9290  122.6390 O.2    53  GLY53      -0.2863
     88  N         57.5950   20.8380  125.0000 N.3    55  PRO55      -0.2102
     89  CA        58.9260   20.2170  125.0330 C.3    55  PRO55       0.1504
     90  C         59.2470   19.3650  123.8090 C.2    55  PRO55       0.2575
     91  O         60.3940   19.3430  123.3690 O.2    55  PRO55      -0.2718
     92  CB        58.8690   19.3390  126.2920 C.3    55  PRO55       0.0282
     93  CG        57.8750   20.0140  127.1640 C.3    55  PRO55       0.0208
     94  CD        56.8270   20.5210  126.2200 C.3    55  PRO55       0.0893
     95  N         58.2370   18.6970  123.2610 N.am   56  ASP56      -0.1974
     96  CA        58.4280   17.8080  122.1210 C.3    56  ASP56       0.1708
     97  C         58.5420   18.5750  120.8090 C.2    56  ASP56       0.2293
     98  O         59.3050   18.1930  119.9190 O.2    56  ASP56      -0.2864
     99  CB        57.2780   16.8020  122.0570 C.3    56  ASP56       0.1436
    100  CG        57.1440   16.0020  123.3430 C.2    56  ASP56       0.3671
    101  OD1       58.1890   15.6500  123.9250 O.co2  56  ASP56      -0.2456
    102  OD2       56.0040   15.7390  123.7810 O.co2  56  ASP56      -0.2456
    103  N         62.0390   19.8060  120.9550 N.3    59  TYR59      -0.1227
    104  CA        62.9590   18.6760  120.8410 C.3    59  TYR59       0.1736
    105  C         63.0030   18.1370  119.4130 C.2    59  TYR59       0.2595
    106  O         64.0740   17.9740  118.8320 O.2    59  TYR59      -0.2718
    107  CB        62.5420   17.5800  121.8210 C.3    59  TYR59       0.0548
    108  CG        63.3230   16.2840  121.7510 C.ar   59  TYR59      -0.0200
    109  CD1       64.7110   16.2710  121.8190 C.ar   59  TYR59      -0.0009
    110  CD2       62.6590   15.0660  121.6590 C.ar   59  TYR59      -0.0009
    111  CE1       65.4140   15.0820  121.7730 C.ar   59  TYR59       0.0417
    112  CE2       63.3520   13.8740  121.6160 C.ar   59  TYR59       0.0417
    113  CZ        64.7280   13.8860  121.6730 C.ar   59  TYR59       0.1957
    114  OH        65.4140   12.6940  121.6280 O.3    59  TYR59      -0.2866
    115  N         61.8320   17.8810  118.8450 N.am   60  TRP60      -0.1976
    116  CA        61.7520   17.3430  117.4900 C.3    60  TRP60       0.1640
    117  C         62.2230   18.3640  116.4480 C.2    60  TRP60       0.2290
    118  O         62.8370   17.9990  115.4430 O.2    60  TRP60      -0.2864
    119  CB        60.3290   16.8840  117.1910 C.3    60  TRP60       0.0576
    120  CG        59.9240   15.6680  117.9820 C.ar   60  TRP60       0.0006
    121  CD1       60.7560   14.7540  118.5630 C.ar   60  TRP60       0.0946
    122  CD2       58.5910   15.2400  118.2740 C.ar   60  TRP60       0.0152
    123  NE1       60.0220   13.7810  119.1940 N.ar   60  TRP60      -0.2442
    124  CE2       58.6890   14.0580  119.0360 C.ar   60  TRP60       0.0810
    125  CE3       57.3200   15.7390  117.9630 C.ar   60  TRP60       0.0012
    126  CZ2       57.5660   13.3670  119.4930 C.ar   60  TRP60       0.0191
    127  CZ3       56.2060   15.0550  118.4210 C.ar   60  TRP60       0.0001
    128  CH2       56.3360   13.8800  119.1720 C.ar   60  TRP60       0.0015
    129  N         65.8850   18.2640  115.6210 N.3    63  GLN63      -0.1245
    130  CA        66.3750   17.1210  114.8580 C.3    63  GLN63       0.1566
    131  C         66.0990   17.3150  113.3730 C.2    63  GLN63       0.2260
    132  O         65.0360   16.9340  112.8740 O.2    63  GLN63      -0.2867
    133  CB        65.7190   15.8320  115.3490 C.3    63  GLN63       0.0367
    134  CG        65.8780   15.6020  116.8390 C.3    63  GLN63       0.0905
    135  CD        65.0160   14.4670  117.3380 C.2    63  GLN63       0.2608
    136  OE1       64.9050   13.4270  116.6910 O.2    63  GLN63      -0.2717
    137  NE2       64.3790   14.6690  118.4850 N.am   63  GLN63      -0.0878
    138  N         64.8880   14.2900  111.3080 N.3    66  LEU66      -0.1245
    139  CA        63.4760   13.9840  111.5090 C.3    66  LEU66       0.1561
    140  C         62.5970   14.9660  110.7470 C.2    66  LEU66       0.2260
    141  O         61.6060   14.5670  110.1250 O.2    66  LEU66      -0.2867
    142  CB        63.1230   14.0120  112.9930 C.3    66  LEU66       0.0270
    143  CG        61.6410   13.8660  113.3480 C.3    66  LEU66       0.0019
    144  CD1       61.0460   12.5370  112.8670 C.3    66  LEU66       0.0001
    145  CD2       61.4520   14.0280  114.8420 C.3    66  LEU66       0.0001
    146  N         59.7280   14.2790  107.6660 N.3    70  ARG70      -0.1245
    147  CA        58.3590   14.7700  107.6530 C.3    70  ARG70       0.1563
    148  C         58.0870   15.7100  106.4760 C.2    70  ARG70       0.2260
    149  O         57.0080   15.6700  105.8860 O.2    70  ARG70      -0.2867
    150  CB        58.0490   15.4730  108.9740 C.3    70  ARG70       0.0307
    151  CG        58.2010   14.5640  110.2090 C.3    70  ARG70       0.0489
    152  CD        57.3380   13.3120  110.0810 C.3    70  ARG70       0.2205
    153  NE        57.1910   12.6270  111.3640 N.pl3  70  ARG70      -0.0865
    154  CZ        57.7260   11.4470  111.6610 C.cat  70  ARG70       0.5346
    155  NH1       58.4370   10.7810  110.7560 N.pl3  70  ARG70       0.1354
    156  NH2       57.5340   10.9230  112.8640 N.pl3  70  ARG70       0.1354
@<TRIPOS>BOND
     1   149   148    2
     2   148   147    1
     3   147   146    1
     4   147   150    1
     5   150   151    1
     6   152   151    1
     7   152   153    1
     8   141   140    2
     9   140   139    1
    10   155   154    1
    11   138   139    1
    12   153   154    2
    13   139   142    1
    14   154   156    1
    15   144   143    1
    16   132   131    2
    17   142   143    1
    18   143   145    1
    19   131   130    1
    20    75    74    1
    21    64    65    1
    22    72    74   ar
    23    72    70   ar
    24    74    73   ar
    25    70    69   ar
    26    65    66    1
    27    65    68    1
    28    73    71   ar
    29   130   133    1
    30   130   129    1
    31    69    71   ar
    32    69    68    1
    33   133   134    1
    34    66    67    2
    35   118   117    2
    36    13    12    2
    37    12    11    1
    38    27    26    1
    39    15    14    1
    40   117   116    1
    41    24    26   ar
    42    24    22   ar
    43   136   135    2
    44   134   135    1
    45    26    25   ar
    46   119   116    1
    47   119   120    1
    48    38    36   ar
    49    38    37   ar
    50    14    11    1
    51    11    10    1
    52   135   137   am
    53    22    21   ar
    54    36    34   ar
    55   116   115    1
    56    16    17    1
    57    60    59    2
    58    59    58    1
    59   125   122   ar
    60   125   127   ar
    61   120   122   ar
    62   120   121   ar
    63    25    23   ar
    64   122   124   ar
    65    37    35   ar
    66   127   128   ar
    67    21    23   ar
    68    21    20    1
    69   121   123   ar
    70    34    33   ar
    71   106   105    2
    72   115   105   am
    73    17    20    1
    74    17    18    1
    75    63    61    1
    76   124   123   ar
    77   124   126   ar
    78   128   126   ar
    79    58    61    1
    80    58    57    1
    81   105   104    1
    82    35    33   ar
    83    61    62    1
    84    33    32    1
    85    98    97    2
    86    18    19    2
    87    18    28   am
    88    57    51   am
    89    28    29    1
    90    97    96    1
    91   104   103    1
    92   104   107    1
    93    32    29    1
    94    51    52    2
    95    51    50    1
    96    29    30    1
    97   112   110   ar
    98   112   113   ar
    99   114   113    1
   100   110   108   ar
   101   113   111   ar
   102    49    50    1
   103   108   109   ar
   104   108   107    1
   105   111   109   ar
   106    99    96    1
   107    99   100    1
   108    96    95    1
   109     4     3    2
   110    50    53    1
   111    55    54    2
   112    87    86    2
   113     3     2    1
   114    31    30    2
   115    30    39   am
   116    95    90   am
   117   100   102   ar
   118   100   101   ar
   119    91    90    2
   120    54    53    1
   121    54    56   am
   122    86    85    1
   123     9     7   ar
   124     6     7    1
   125     6     5    1
   126    90    89    1
   127    85    84    1
   128    39    40    1
   129     2     5    1
   130     2     1    1
   131     7     8   ar
   132    88    89    1
   133    88    94    1
   134    89    92    1
   135    84    78   am
   136    40    41    1
   137    40    43    1
   138    41    42    2
   139    43    44    1
   140    94    93    1
   141    92    93    1
   142    78    79    2
   143    78    77    1
   144    76    77    1
   145    44    45   ar
   146    44    46   ar
   147    77    80    1
   148    45    47   ar
   149    80    81    1
   150    46    48   ar
   151    47    48   ar
   152    81    83    1
   153    81    82    1
