@<TRIPOS>MOLECULE
tmp/6atoB02.pdb
 107 98 0 0 0
SMALL
GASTEIGER

@<TRIPOS>ATOM
      1  N         64.7000   12.1490   20.0770 N.3    12  ARG12      -0.1245
      2  CA        64.9690   12.4440   18.6790 C.3    12  ARG12       0.1563
      3  C         63.9140   11.8940   17.7280 C.2    12  ARG12       0.2260
      4  O         64.0740   12.0440   16.5140 O.2    12  ARG12      -0.2867
      5  CB        66.3430   11.8790   18.3020 C.3    12  ARG12       0.0307
      6  CG        67.4720   12.4130   19.1640 C.3    12  ARG12       0.0489
      7  CD        68.8610   12.0850   18.5440 C.3    12  ARG12       0.2205
      8  NE        69.9260   12.6250   19.3820 N.pl3  12  ARG12      -0.0865
      9  CZ        70.3400   13.8830   19.3520 C.cat  12  ARG12       0.5346
     10  NH1       69.7820   14.7530   18.5170 N.pl3  12  ARG12       0.1354
     11  NH2       71.3000   14.2800   20.1730 N.pl3  12  ARG12       0.1354
     12  N         60.0860   14.8570   16.4100 N.3    15  SER15      -0.1217
     13  CA        59.8310   15.6670   15.2250 C.3    15  SER15       0.1889
     14  C         59.3130   14.8250   14.0680 C.2    15  SER15       0.2288
     15  O         58.6170   15.3550   13.1980 O.2    15  SER15      -0.2866
     16  CB        61.0880   16.4460   14.8190 C.3    15  SER15       0.2089
     17  OG        62.1610   15.5780   14.4900 O.3    15  SER15      -0.2183
     18  N         68.0600   10.8700   12.2680 N.3    65  THR65      -0.1203
     19  CA        66.8980   11.7590   12.2590 C.3    65  THR65       0.1994
     20  C         66.7240   12.4690   10.9230 C.2    65  THR65       0.2617
     21  O         65.6330   12.4880   10.3460 O.2    65  THR65      -0.2717
     22  CB        67.0410   12.7880   13.3810 C.3    65  THR65       0.1784
     23  OG1       67.2990   12.1140   14.6190 O.3    65  THR65      -0.2211
     24  CG2       65.7650   13.6260   13.5100 C.3    65  THR65       0.0376
     25  N         67.8020   13.0650   10.4070 N.am   66  ARG66      -0.1979
     26  CA        67.6600   13.8670    9.1970 C.3    66  ARG66       0.1597
     27  C         67.4210   13.0130    7.9640 C.2    66  ARG66       0.2287
     28  O         66.7450   13.4590    7.0320 O.2    66  ARG66      -0.2864
     29  CB        68.8890   14.7460    9.0080 C.3    66  ARG66       0.0334
     30  CG        68.9260   15.9170    9.9620 C.3    66  ARG66       0.0492
     31  CD        70.0950   16.8040    9.6070 C.3    66  ARG66       0.2205
     32  NE        70.2440   17.9390   10.5060 N.pl3  66  ARG66      -0.0865
     33  CZ        70.8920   17.8910   11.6620 C.cat  66  ARG66       0.5346
     34  NH1       71.4440   16.7560   12.0750 N.pl3  66  ARG66       0.1354
     35  NH2       71.0070   18.9810   12.3980 N.pl3  66  ARG66       0.1354
     36  N         63.6430   12.1920    8.3220 N.3    69  LEU69      -0.1245
     37  CA        62.8030   13.3510    8.0330 C.3    69  LEU69       0.1561
     38  C         62.8850   13.7610    6.5730 C.2    69  LEU69       0.2260
     39  O         61.8740   14.1430    5.9760 O.2    69  LEU69      -0.2867
     40  CB        63.1990   14.5200    8.9290 C.3    69  LEU69       0.0270
     41  CG        62.8590   14.3610   10.4100 C.3    69  LEU69       0.0019
     42  CD1       63.4820   15.4950   11.1760 C.3    69  LEU69       0.0001
     43  CD2       61.3460   14.3210   10.6680 C.3    69  LEU69       0.0001
     44  N         65.1870   25.2220    8.9840 N.3    93  ILE93      -0.1231
     45  CA        65.0450   24.1190    9.9250 C.3    93  ILE93       0.1692
     46  C         66.3640   23.7560   10.5910 C.2    93  ILE93       0.2591
     47  O         66.3520   23.1750   11.6770 O.2    93  ILE93      -0.2718
     48  CB        64.3950   22.8940    9.2560 C.3    93  ILE93       0.0266
     49  CG1       65.3360   22.2400    8.2330 C.3    93  ILE93       0.0019
     50  CG2       63.0600   23.3010    8.6220 C.3    93  ILE93       0.0020
     51  CD1       64.7300   21.0240    7.5480 C.3    93  ILE93       0.0001
     52  N         67.5180   24.1110   10.0070 N.am   94  GLU94      -0.1979
     53  CA        68.7470   23.8290   10.7370 C.3    94  GLU94       0.1602
     54  C         68.9510   24.8000   11.8960 C.2    94  GLU94       0.2287
     55  O         69.5800   24.4440   12.9010 O.2    94  GLU94      -0.2864
     56  CB        69.9400   23.8200    9.7680 C.3    94  GLU94       0.0415
     57  CG        69.9190   22.6110    8.8220 C.3    94  GLU94       0.1163
     58  CD        70.0960   21.3020    9.5620 C.2    94  GLU94       0.3649
     59  OE1       70.8170   21.2990   10.5790 O.co2  94  GLU94      -0.2457
     60  OE2       69.4950   20.2820    9.1470 O.co2  94  GLU94      -0.2457
     61  N         66.3010   25.8550   13.6070 N.3    96  ILE96      -0.1231
     62  CA        65.3780   25.2080   14.5380 C.3    96  ILE96       0.1692
     63  C         66.0480   24.0100   15.1950 C.2    96  ILE96       0.2591
     64  O         65.8720   23.7630   16.3950 O.2    96  ILE96      -0.2718
     65  CB        64.0840   24.8100   13.8070 C.3    96  ILE96       0.0266
     66  CG1       63.3040   26.0630   13.4080 C.3    96  ILE96       0.0019
     67  CG2       63.2090   23.8830   14.6800 C.3    96  ILE96       0.0020
     68  CD1       62.3420   25.8340   12.2600 C.3    96  ILE96       0.0001
     69  N         66.8530   23.2620   14.4250 N.am   97  ALA97      -0.1980
     70  CA        67.5620   22.1070   14.9740 C.3    97  ALA97       0.1597
     71  C         68.5980   22.5250   16.0110 C.2    97  ALA97       0.2287
     72  O         68.7960   21.8200   17.0090 O.2    97  ALA97      -0.2864
     73  CB        68.2340   21.3230   13.8450 C.3    97  ALA97       0.0319
     74  N         66.5650   23.5240   19.0220 N.3   100  GLY100     -0.1225
     75  CA        65.9400   22.3080   19.5210 C.3   100  GLY100      0.1811
     76  C         66.9170   21.3680   20.2020 C.2   100  GLY100      0.2280
     77  O         66.5690   20.7120   21.1840 O.2   100  GLY100     -0.2866
     78  N         57.6710   21.3780    5.7770 N.3   152  ARG152     -0.1245
     79  CA        58.2110   20.9250    7.0500 C.3   152  ARG152      0.1563
     80  C         58.7650   22.0650    7.8830 C.2   152  ARG152      0.2260
     81  O         58.9060   21.9120    9.0970 O.2   152  ARG152     -0.2867
     82  CB        59.3040   19.8870    6.8200 C.3   152  ARG152      0.0307
     83  CG        60.4980   20.4880    6.0840 C.3   152  ARG152      0.0489
     84  CD        61.5310   19.4370    5.7310 C.3   152  ARG152      0.2205
     85  NE        62.1070   18.8570    6.9390 N.pl3 152  ARG152     -0.0865
     86  CZ        63.1980   18.1050    6.9560 C.cat 152  ARG152      0.5346
     87  NH1       63.8570   17.8350    5.8200 N.pl3 152  ARG152      0.1354
     88  NH2       63.6500   17.6480    8.1190 N.pl3 152  ARG152      0.1354
     89  N         58.0760   22.0460   11.7660 N.3   156  HIS156     -0.1241
     90  CA        59.1560   21.9950   12.7440 C.3   156  HIS156      0.1621
     91  C         59.1670   23.2500   13.6080 C.2   156  HIS156      0.2264
     92  O         59.4480   23.1810   14.8090 O.2   156  HIS156     -0.2867
     93  CB        60.5160   21.8280   12.0490 C.3   156  HIS156      0.0745
     94  CG        60.6890   20.5510   11.2700 C.ar  156  HIS156      0.0817
     95  ND1       60.0490   19.3700   11.5870 N.ar  156  HIS156     -0.2268
     96  CD2       61.4780   20.2710   10.2030 C.ar  156  HIS156      0.1154
     97  CE1       60.4180   18.4280   10.7360 C.ar  156  HIS156      0.1986
     98  NE2       61.2860   18.9490    9.8840 N.ar  156  HIS156     -0.2212
     99  N         56.2020   23.0730   16.2040 N.3   159  GLU159     -0.1245
    100  CA        56.6220   22.1520   17.2590 C.3   159  GLU159      0.1567
    101  C         57.5430   22.8530   18.2580 C.2   159  GLU159      0.2260
    102  O         57.3610   22.7520   19.4750 O.2   159  GLU159     -0.2867
    103  CB        57.3210   20.9230   16.6570 C.3   159  GLU159      0.0388
    104  CG        57.8470   19.9790   17.7380 C.3   159  GLU159      0.1160
    105  CD        58.7540   18.8710   17.2290 C.2   159  GLU159      0.3649
    106  OE1       59.2320   18.9510   16.0790 O.co2 159  GLU159     -0.2457
    107  OE2       59.0080   17.9350   18.0160 O.co2 159  GLU159     -0.2457
@<TRIPOS>BOND
     1    84    83    1
     2    84    85    1
     3    78    79    1
     4    87    86    1
     5    39    38    2
     6    83    82    1
     7    38    37    1
     8    82    79    1
     9    85    86    2
    10    86    88    1
    11    28    27    2
    12    79    80    1
    13    51    49    1
    14    80    81    2
    15    27    26    1
    16    37    36    1
    17    37    40    1
    18    49    48    1
    19    50    48    1
    20    57    58    1
    21    57    56    1
    22    40    41    1
    23    44    45    1
    24    29    26    1
    25    29    30    1
    26    60    58   ar
    27    26    25    1
    28    48    45    1
    29    58    59   ar
    30    31    30    1
    31    31    32    1
    32    56    53    1
    33    98    96   ar
    34    98    97   ar
    35    45    46    1
    36    52    46   am
    37    52    53    1
    38    96    94   ar
    39    21    20    2
    40    25    20   am
    41    41    43    1
    42    41    42    1
    43    32    33    2
    44    46    47    2
    45    97    95   ar
    46    53    54    1
    47    20    19    1
    48    94    95   ar
    49    94    93    1
    50    33    34    1
    51    33    35    1
    52    89    90    1
    53    54    55    2
    54    93    90    1
    55    19    18    1
    56    19    22    1
    57    68    66    1
    58    90    91    1
    59    15    14    2
    60    22    24    1
    61    22    23    1
    62    66    65    1
    63    61    62    1
    64    91    92    2
    65    65    62    1
    66    65    67    1
    67    73    70    1
    68    14    13    1
    69    69    70    1
    70    69    63   am
    71    17    16    1
    72    62    63    1
    73    16    13    1
    74    70    71    1
    75    63    64    2
    76    13    12    1
    77    71    72    2
    78   106   105   ar
    79    99   100    1
    80     4     3    2
    81   103   100    1
    82   103   104    1
    83   105   104    1
    84   105   107   ar
    85   100   101    1
    86     3     2    1
    87   101   102    2
    88     5     2    1
    89     5     6    1
    90    10     9    1
    91     7     6    1
    92     7     8    1
    93     2     1    1
    94    74    75    1
    95     9     8    2
    96     9    11    1
    97    75    76    1
    98    76    77    2
