@<TRIPOS>MOLECULE
tmp/6atoA03.pdb
 91 84 0 0 0
SMALL
GASTEIGER

@<TRIPOS>ATOM
      1  N         80.5840   32.4610   -3.3690 N.3     5  LYS5       -0.1245
      2  CA        81.4790   33.1950   -2.4840 C.3     5  LYS5        0.1561
      3  C         81.3080   32.7030   -1.0540 C.2     5  LYS5        0.2260
      4  O         80.2060   32.7810   -0.4960 O.2     5  LYS5       -0.2867
      5  CB        81.2240   34.7010   -2.5840 C.3     5  LYS5        0.0271
      6  CG        82.3070   35.5430   -1.9430 C.3     5  LYS5        0.0035
      7  CD        82.1130   37.0180   -2.2670 C.3     5  LYS5        0.0206
      8  CE        83.2460   37.8560   -1.7040 C.3     5  LYS5        0.1093
      9  NZ        83.1830   39.2640   -2.1940 N.3     5  LYS5       -0.1314
     10  N         82.0570   32.8570    2.9380 N.3     7  HIS7       -0.1241
     11  CA        82.4060   33.7480    4.0360 C.3     7  HIS7        0.1621
     12  C         82.7120   32.9360    5.2890 C.2     7  HIS7        0.2264
     13  O         81.8240   32.2630    5.8280 O.2     7  HIS7       -0.2867
     14  CB        81.2730   34.7320    4.3040 C.3     7  HIS7        0.0745
     15  CG        80.9670   35.6210    3.1410 C.ar    7  HIS7        0.0817
     16  ND1       81.4420   36.9120    3.0500 N.ar    7  HIS7       -0.2268
     17  CD2       80.2510   35.4010    2.0120 C.ar    7  HIS7        0.1154
     18  CE1       81.0130   37.4580    1.9270 C.ar    7  HIS7        0.1986
     19  NE2       80.2900   36.5620    1.2760 N.ar    7  HIS7       -0.2212
     20  N         85.9740   35.1060    1.0310 N.3    32  LYS32      -0.1245
     21  CA        86.1720   36.3870    1.7060 C.3    32  LYS32       0.1561
     22  C         86.3990   36.1080    3.1830 C.2    32  LYS32       0.2260
     23  O         85.4780   35.6710    3.8910 O.2    32  LYS32      -0.2867
     24  CB        84.9900   37.3280    1.5070 C.3    32  LYS32       0.0271
     25  CG        85.3380   38.7610    1.9210 C.3    32  LYS32       0.0035
     26  CD        84.1250   39.6130    2.2280 C.3    32  LYS32       0.0206
     27  CE        84.5370   41.0690    2.3970 C.3    32  LYS32       0.1093
     28  NZ        85.8830   41.1850    3.0370 N.3    32  LYS32      -0.1314
     29  N         80.0180   43.2270   11.1790 N.3    42  LYS42      -0.1231
     30  CA        79.4800   43.9220   10.0130 C.3    42  LYS42       0.1693
     31  C         78.5390   43.0250    9.2190 C.2    42  LYS42       0.2591
     32  O         77.4400   43.4460    8.8370 O.2    42  LYS42      -0.2718
     33  CB        80.6140   44.4200    9.1170 C.3    42  LYS42       0.0285
     34  CG        80.1120   45.1630    7.8910 C.3    42  LYS42       0.0035
     35  CD        81.2560   45.7520    7.0830 C.3    42  LYS42       0.0206
     36  CE        80.7400   46.5020    5.8630 C.3    42  LYS42       0.1093
     37  NZ        79.8310   47.6270    6.2270 N.3    42  LYS42      -0.1314
     38  N         78.9550   41.7850    8.9460 N.am   43  LEU43      -0.1980
     39  CA        78.0550   40.8540    8.2690 C.3    43  LEU43       0.1596
     40  C         76.7570   40.6740    9.0400 C.2    43  LEU43       0.2287
     41  O         75.6830   40.5580    8.4390 O.2    43  LEU43      -0.2864
     42  CB        78.7290   39.4940    8.1000 C.3    43  LEU43       0.0297
     43  CG        79.8330   39.3950    7.0620 C.3    43  LEU43       0.0022
     44  CD1       80.5720   38.0840    7.2510 C.3    43  LEU43       0.0001
     45  CD2       79.2370   39.4880    5.6700 C.3    43  LEU43       0.0001
     46  N         74.5880   44.0670    8.9840 N.3    46  ASP46      -0.1239
     47  CA        74.0530   44.3610    7.6550 C.3    46  ASP46       0.1674
     48  C         73.0210   43.3430    7.1830 C.2    46  ASP46       0.2266
     49  O         72.5030   43.4840    6.0660 O.2    46  ASP46      -0.2867
     50  CB        75.1840   44.4370    6.6240 C.3    46  ASP46       0.1410
     51  CG        76.0950   45.6430    6.8210 C.2    46  ASP46       0.3668
     52  OD1       75.7860   46.5120    7.6530 O.co2  46  ASP46      -0.2456
     53  OD2       77.1450   45.7090    6.1350 O.co2  46  ASP46      -0.2456
     54  N         73.1690   39.8740    6.6690 N.3    48  TYR48      -0.1241
     55  CA        73.4880   38.7900    5.7470 C.3    48  TYR48       0.1605
     56  C         73.5630   37.4190    6.4070 C.2    48  TYR48       0.2264
     57  O         73.7280   36.4280    5.6920 O.2    48  TYR48      -0.2867
     58  CB        74.8010   39.0940    5.0190 C.3    48  TYR48       0.0534
     59  CG        74.6510   40.3070    4.1290 C.ar   48  TYR48      -0.0201
     60  CD1       73.8130   40.2700    3.0230 C.ar   48  TYR48      -0.0009
     61  CD2       75.3180   41.4920    4.4160 C.ar   48  TYR48      -0.0009
     62  CE1       73.6540   41.3810    2.2100 C.ar   48  TYR48       0.0417
     63  CE2       75.1610   42.6110    3.6140 C.ar   48  TYR48       0.0417
     64  CZ        74.3340   42.5450    2.5100 C.ar   48  TYR48       0.1957
     65  OH        74.1820   43.6620    1.7100 O.3    48  TYR48      -0.2866
     66  N         78.6720   31.2900    5.7650 N.3    56  MET56      -0.1245
     67  CA        77.6710   31.7960    4.8390 C.3    56  MET56       0.1570
     68  C         78.2280   31.6770    3.4290 C.2    56  MET56       0.2261
     69  O         79.4150   31.9330    3.1970 O.2    56  MET56      -0.2867
     70  CB        77.2700   33.2610    5.1500 C.3    56  MET56       0.0387
     71  CG        76.1240   33.7900    4.2830 C.3    56  MET56       0.0595
     72  SD        76.6050   34.5380    2.7160 S.3    56  MET56      -0.1393
     73  CE        77.1070   36.1430    3.2870 C.3    56  MET56       0.0692
     74  N         77.3260   32.7850   -0.6180 N.3    58  GLU58      -0.1245
     75  CA        76.5300   33.4580   -1.6360 C.3    58  GLU58       0.1567
     76  C         76.4970   32.5630   -2.8650 C.2    58  GLU58       0.2260
     77  O         77.5490   32.2610   -3.4460 O.2    58  GLU58      -0.2867
     78  CB        77.1270   34.8210   -1.9830 C.3    58  GLU58       0.0388
     79  CG        77.3540   35.7240   -0.7800 C.3    58  GLU58       0.1160
     80  CD        77.8690   37.1010   -1.1640 C.2    58  GLU58       0.3649
     81  OE1       77.1520   37.8320   -1.8860 O.co2  58  GLU58      -0.2457
     82  OE2       78.9880   37.4570   -0.7400 O.co2  58  GLU58      -0.2457
     83  N         71.7840   34.2080    0.0840 N.3    63  LYS63      -0.1245
     84  CA        72.8060   34.3430    1.1250 C.3    63  LYS63       0.1561
     85  C         72.5310   33.2220    2.1280 C.2    63  LYS63       0.2260
     86  O         71.7740   33.3880    3.0920 O.2    63  LYS63      -0.2867
     87  CB        72.7680   35.7310    1.7860 C.3    63  LYS63       0.0271
     88  CG        72.6570   36.9050    0.8140 C.3    63  LYS63       0.0035
     89  CD        73.6950   36.8430   -0.2950 C.3    63  LYS63       0.0206
     90  CE        73.5250   38.0320   -1.2610 C.3    63  LYS63       0.1093
     91  NZ        74.4130   37.9470   -2.4580 N.3    63  LYS63      -0.1314
@<TRIPOS>BOND
     1    77    76    2
     2     1     2    1
     3    76    75    1
     4     5     2    1
     5     5     6    1
     6     2     3    1
     7    91    90    1
     8     7     6    1
     9     7     8    1
    10     9     8    1
    11    78    75    1
    12    78    79    1
    13    81    80   ar
    14    75    74    1
    15    90    89    1
    16    80    79    1
    17    80    82   ar
    18     3     4    2
    19    89    88    1
    20    83    84    1
    21    88    87    1
    22    20    21    1
    23    84    87    1
    24    84    85    1
    25    19    18   ar
    26    19    17   ar
    27    24    21    1
    28    24    25    1
    29    21    22    1
    30    65    64    1
    31    25    26    1
    32    18    16   ar
    33    17    15   ar
    34    85    86    2
    35    62    64   ar
    36    62    60   ar
    37    26    27    1
    38    27    28    1
    39    64    63   ar
    40    72    73    1
    41    72    71    1
    42    10    11    1
    43    60    59   ar
    44    16    15   ar
    45    15    14    1
    46    22    23    2
    47    69    68    2
    48    68    67    1
    49    63    61   ar
    50    11    14    1
    51    11    12    1
    52    59    61   ar
    53    59    58    1
    54    71    70    1
    55    67    70    1
    56    67    66    1
    57    58    55    1
    58    12    13    2
    59    45    43    1
    60    57    56    2
    61    55    56    1
    62    55    54    1
    63    36    37    1
    64    36    35    1
    65    49    48    2
    66    53    51   ar
    67    50    51    1
    68    50    47    1
    69    51    52   ar
    70    43    44    1
    71    43    42    1
    72    35    34    1
    73    48    47    1
    74    47    46    1
    75    34    33    1
    76    42    39    1
    77    39    38    1
    78    39    40    1
    79    41    40    2
    80    32    31    2
    81    38    31   am
    82    33    30    1
    83    31    30    1
    84    30    29    1
