@<TRIPOS>MOLECULE
tmp/6atoA01.pdb
 111 107 0 0 0
SMALL
GASTEIGER

@<TRIPOS>ATOM
      1  N         83.9460   33.0320    5.7710 N.3     8  TYR8       -0.1227
      2  CA        84.4050   32.3080    6.9560 C.3     8  TYR8        0.1736
      3  C         85.7250   32.9380    7.3710 C.2     8  TYR8        0.2595
      4  O         86.2100   33.8670    6.7210 O.2     8  TYR8       -0.2718
      5  CB        84.5490   30.8050    6.6790 C.3     8  TYR8        0.0548
      6  CG        84.4920   29.9380    7.9160 C.ar    8  TYR8       -0.0200
      7  CD1       83.3640   29.9380    8.7280 C.ar    8  TYR8       -0.0009
      8  CD2       85.5600   29.1110    8.2700 C.ar    8  TYR8       -0.0009
      9  CE1       83.2920   29.1460    9.8700 C.ar    8  TYR8        0.0417
     10  CE2       85.5020   28.3050    9.4070 C.ar    8  TYR8        0.0417
     11  CZ        84.3630   28.3340   10.2060 C.ar    8  TYR8        0.1957
     12  OH        84.2940   27.5440   11.3280 O.3     8  TYR8       -0.2866
     13  N         86.3180   32.4440    8.4560 N.am    9  PHE9       -0.1976
     14  CA        87.6840   32.8770    8.7050 C.3     9  PHE9        0.1639
     15  C         88.6500   31.8970    8.0390 C.2     9  PHE9        0.2290
     16  O         88.2410   30.9080    7.4320 O.2     9  PHE9       -0.2864
     17  CB        87.9570   33.0920   10.1980 C.3     9  PHE9        0.0560
     18  CG        88.0780   31.8470   11.0320 C.ar    9  PHE9       -0.0200
     19  CD1       87.0240   30.9520   11.1570 C.ar    9  PHE9       -0.0042
     20  CD2       89.2220   31.6360   11.7950 C.ar    9  PHE9       -0.0042
     21  CE1       87.1390   29.8350   11.9680 C.ar    9  PHE9       -0.0003
     22  CE2       89.3370   30.5260   12.6090 C.ar    9  PHE9       -0.0003
     23  CZ        88.2960   29.6240   12.6970 C.ar    9  PHE9       -0.0000
     24  N         87.5440   24.7050   10.1070 N.3    13  GLY13      -0.1210
     25  CA        86.2970   24.8660   10.8460 C.3    13  GLY13       0.1956
     26  C         85.1140   24.1890   10.1940 C.2    13  GLY13       0.2611
     27  O         85.1970   23.0560    9.7100 O.2    13  GLY13      -0.2717
     28  N         83.9730   24.8830   10.2060 N.am   14  ARG14      -0.1979
     29  CA        82.7340   24.3550    9.6540 C.3    14  ARG14       0.1597
     30  C         82.5670   24.6400    8.1680 C.2    14  ARG14       0.2287
     31  O         81.5710   24.2070    7.5840 O.2    14  ARG14      -0.2864
     32  CB        81.5280   24.9190   10.4230 C.3    14  ARG14       0.0334
     33  CG        81.5360   24.5930   11.9070 C.3    14  ARG14       0.0492
     34  CD        80.2010   24.9640   12.5750 C.3    14  ARG14       0.2205
     35  NE        80.1760   24.5810   13.9860 N.pl3  14  ARG14      -0.0865
     36  CZ        79.9420   23.3460   14.4230 C.cat  14  ARG14       0.5346
     37  NH1       79.7240   22.3640   13.5620 N.pl3  14  ARG14       0.1354
     38  NH2       79.9410   23.0880   15.7250 N.pl3  14  ARG14       0.1354
     39  N         85.9120   17.8310   15.0940 N.3   106  LEU106     -0.1231
     40  CA        85.9160   19.2820   14.9320 C.3   106  LEU106      0.1693
     41  C         86.0960   20.0030   16.2610 C.2   106  LEU106      0.2591
     42  O         86.7670   21.0390   16.3280 O.2   106  LEU106     -0.2718
     43  CB        84.6140   19.7280   14.2650 C.3   106  LEU106      0.0284
     44  CG        84.2970   21.2240   14.2320 C.3   106  LEU106      0.0019
     45  CD1       85.2120   21.9410   13.2540 C.3   106  LEU106      0.0001
     46  CD2       82.8360   21.4350   13.8740 C.3   106  LEU106      0.0001
     47  N         85.4990   19.4810   17.3260 N.am  107  LEU107     -0.1980
     48  CA        85.4920   20.1830   18.6010 C.3   107  LEU107      0.1596
     49  C         86.6550   19.8020   19.5130 C.2   107  LEU107      0.2287
     50  O         86.7340   20.3130   20.6340 O.2   107  LEU107     -0.2864
     51  CB        84.1560   19.9430   19.3150 C.3   107  LEU107      0.0297
     52  CG        82.9430   20.4030   18.5000 C.3   107  LEU107      0.0022
     53  CD1       81.6450   20.0000   19.1770 C.3   107  LEU107      0.0001
     54  CD2       82.9880   21.9120   18.2660 C.3   107  LEU107      0.0001
     55  N         89.8830   20.7330   19.4430 N.3   109  PRO109     -0.2102
     56  CA        90.7210   21.8650   19.8810 C.3   109  PRO109      0.1504
     57  C         90.1130   22.6910   21.0040 C.2   109  PRO109      0.2575
     58  O         90.8600   23.3110   21.7710 O.2   109  PRO109     -0.2718
     59  CB        90.8980   22.6930   18.5970 C.3   109  PRO109      0.0282
     60  CG        89.8720   22.1720   17.6320 C.3   109  PRO109      0.0208
     61  CD        89.6610   20.7380   17.9890 C.3   109  PRO109      0.0893
     62  N         88.7870   22.7260   21.1340 N.am  110  VAL110     -0.1980
     63  CA        88.1410   23.4930   22.1950 C.3   110  VAL110      0.1595
     64  C         87.8170   22.6270   23.4070 C.2   110  VAL110      0.2287
     65  O         87.1080   23.0740   24.3130 O.2   110  VAL110     -0.2864
     66  CB        86.8800   24.2040   21.6800 C.3   110  VAL110      0.0276
     67  CG1       87.2350   25.1460   20.5410 C.3   110  VAL110      0.0022
     68  CG2       85.8410   23.1900   21.2360 C.3   110  VAL110      0.0022
     69  N         94.1050   23.2140   12.3110 N.3   207  MET207     -0.1245
     70  CA        94.1770   24.4220   13.1190 C.3   207  MET207      0.1570
     71  C         95.3550   24.3330   14.0800 C.2   207  MET207      0.2261
     72  O         95.5540   23.3060   14.7360 O.2   207  MET207     -0.2867
     73  CB        92.8750   24.6250   13.8910 C.3   207  MET207      0.0387
     74  CG        92.9040   25.8120   14.8340 C.3   207  MET207      0.0595
     75  SD        91.2960   26.1420   15.5750 S.3   207  MET207     -0.1393
     76  CE        90.4500   26.8650   14.1740 C.3   207  MET207      0.0692
     77  N         93.7650   29.0910   16.4780 N.3   212  LEU212     -0.1245
     78  CA        92.7890   29.0490   17.5610 C.3   212  LEU212      0.1561
     79  C         92.7140   30.3920   18.2690 C.2   212  LEU212      0.2260
     80  O         91.6270   30.8390   18.6560 O.2   212  LEU212     -0.2867
     81  CB        93.1310   27.9350   18.5510 C.3   212  LEU212      0.0270
     82  CG        92.2170   27.8510   19.7810 C.3   212  LEU212      0.0019
     83  CD1       90.7560   27.6510   19.3760 C.3   212  LEU212      0.0001
     84  CD2       92.6700   26.7360   20.7080 C.3   212  LEU212      0.0001
     85  N         90.5450   32.6050   16.2300 N.3   215  ALA215     -0.1245
     86  CA        89.1360   32.2490   16.3600 C.3   215  ALA215      0.1562
     87  C         88.5390   32.8100   17.6440 C.2   215  ALA215      0.2260
     88  O         87.4170   33.3380   17.6430 O.2   215  ALA215     -0.2867
     89  CB        88.9790   30.7310   16.3090 C.3   215  ALA215      0.0290
     90  N         85.3860   35.3430   17.2670 N.3   219  PHE219     -0.1241
     91  CA        84.1020   34.8600   17.7530 C.3   219  PHE219      0.1605
     92  C         83.8910   35.1300   19.2350 C.2   219  PHE219      0.2264
     93  O         82.8430   34.7590   19.7750 O.2   219  PHE219     -0.2867
     94  CB        83.9620   33.3610   17.4540 C.3   219  PHE219      0.0534
     95  CG        83.9580   33.0420   15.9850 C.ar  219  PHE219     -0.0203
     96  CD1       82.7940   33.1490   15.2400 C.ar  219  PHE219     -0.0042
     97  CD2       85.1230   32.6510   15.3430 C.ar  219  PHE219     -0.0042
     98  CE1       82.7880   32.8620   13.8810 C.ar  219  PHE219     -0.0003
     99  CE2       85.1300   32.3710   13.9830 C.ar  219  PHE219     -0.0003
    100  CZ        83.9670   32.4770   13.2490 C.ar  219  PHE219     -0.0000
    101  N         85.2110   34.0550   22.2930 N.3   221  PHE221     -0.1241
    102  CA        85.0240   32.9500   23.2300 C.3   221  PHE221      0.1605
    103  C         86.3610   32.5240   23.8210 C.2   221  PHE221      0.2264
    104  O         87.4090   33.0690   23.4690 O.2   221  PHE221     -0.2867
    105  CB        84.3280   31.7560   22.5570 C.3   221  PHE221      0.0534
    106  CG        85.2090   30.9760   21.6150 C.ar  221  PHE221     -0.0203
    107  CD1       85.3280   31.3500   20.2890 C.ar  221  PHE221     -0.0042
    108  CD2       85.8960   29.8530   22.0520 C.ar  221  PHE221     -0.0042
    109  CE1       86.1300   30.6270   19.4160 C.ar  221  PHE221     -0.0003
    110  CE2       86.7020   29.1260   21.1820 C.ar  221  PHE221     -0.0003
    111  CZ        86.8160   29.5130   19.8660 C.ar  221  PHE221     -0.0000
@<TRIPOS>BOND
     1     1     2    1
     2     5     2    1
     3     5     6    1
     4     4     3    2
     5     2     3    1
     6     3    13   am
     7    16    15    2
     8    31    30    2
     9     6     8   ar
    10     6     7   ar
    11    15    14    1
    12    30    29    1
    13     8    10   ar
    14    13    14    1
    15    14    17    1
    16     7     9   ar
    17    10    11   ar
    18    29    28    1
    19    29    32    1
    20    27    26    2
    21     9    11   ar
    22    24    25    1
    23    26    28   am
    24    26    25    1
    25    17    18    1
    26    11    12    1
    27    32    33    1
    28    18    19   ar
    29    18    20   ar
    30    19    21   ar
    31    20    22   ar
    32    33    34    1
    33    21    23   ar
    34    69    70    1
    35    34    35    1
    36    22    23   ar
    37    70    73    1
    38    70    71    1
    39   100    98   ar
    40   100    99   ar
    41    45    44    1
    42    37    36    1
    43    46    44    1
    44    98    96   ar
    45    73    74    1
    46    99    97   ar
    47    35    36    2
    48    71    72    2
    49    76    75    1
    50    44    43    1
    51    43    40    1
    52    36    38    1
    53    74    75    1
    54    40    39    1
    55    40    41    1
    56    96    95   ar
    57    97    95   ar
    58    95    94    1
    59    85    86    1
    60    41    42    2
    61    41    47   am
    62    89    86    1
    63    86    87    1
    64    77    78    1
    65    90    91    1
    66    47    48    1
    67    94    91    1
    68    78    79    1
    69    78    81    1
    70    60    61    1
    71    60    59    1
    72    88    87    2
    73    91    92    1
    74    61    55    1
    75    54    52    1
    76    79    80    2
    77    52    53    1
    78    52    51    1
    79    81    82    1
    80    59    56    1
    81    48    51    1
    82    48    49    1
    83    92    93    2
    84    83    82    1
    85   109   111   ar
    86   109   107   ar
    87    55    56    1
    88    49    50    2
    89    82    84    1
    90   111   110   ar
    91    56    57    1
    92   107   106   ar
    93    67    66    1
    94    57    62   am
    95    57    58    2
    96    62    63    1
    97   110   108   ar
    98    68    66    1
    99   106   108   ar
   100   106   105    1
   101    66    63    1
   102    63    64    1
   103   101   102    1
   104   105   102    1
   105   102   103    1
   106    64    65    2
   107   104   103    2
