@<TRIPOS>MOLECULE
tmp/6atoB03.pdb
 86 83 0 0 0
SMALL
GASTEIGER

@<TRIPOS>ATOM
      1  N         59.7940   11.7210   23.9010 N.3    10  ARG10      -0.1245
      2  CA        60.0100   12.6230   22.7680 C.3    10  ARG10       0.1563
      3  C         61.3410   12.3280   22.0940 C.2    10  ARG10       0.2260
      4  O         61.3790   11.8520   20.9550 O.2    10  ARG10      -0.2867
      5  CB        59.9930   14.0920   23.2030 C.3    10  ARG10       0.0307
      6  CG        58.6230   14.6330   23.6120 C.3    10  ARG10       0.0489
      7  CD        58.7190   16.1180   23.9740 C.3    10  ARG10       0.2205
      8  NE        57.4010   16.6580   24.3290 N.pl3  10  ARG10      -0.0865
      9  CZ        57.1990   17.7930   24.9920 C.cat  10  ARG10       0.5346
     10  NH1       58.2180   18.5280   25.4100 N.pl3  10  ARG10       0.1354
     11  NH2       55.9540   18.1860   25.2670 N.pl3  10  ARG10       0.1354
     12  N         67.5430   22.3940   23.7370 N.3   103  ILE103     -0.1231
     13  CA        66.4080   22.0480   24.5920 C.3   103  ILE103      0.1692
     14  C         66.3320   20.5400   24.8000 C.2   103  ILE103      0.2591
     15  O         66.0800   20.0620   25.9150 O.2   103  ILE103     -0.2718
     16  CB        65.1130   22.6030   23.9780 C.3   103  ILE103      0.0266
     17  CG1       65.0950   24.1270   24.0770 C.3   103  ILE103      0.0019
     18  CG2       63.8830   21.9660   24.6600 C.3   103  ILE103      0.0020
     19  CD1       64.0440   24.7700   23.2120 C.3   103  ILE103      0.0001
     20  N         66.5500   19.7710   23.7300 N.am  104  LEU104     -0.1980
     21  CA        66.4980   18.3150   23.8050 C.3   104  LEU104      0.1596
     22  C         67.3960   17.7780   24.9070 C.2   104  LEU104      0.2287
     23  O         67.0340   16.8250   25.6090 O.2   104  LEU104     -0.2864
     24  CB        66.9130   17.7230   22.4570 C.3   104  LEU104      0.0297
     25  CG        67.1860   16.2180   22.4170 C.3   104  LEU104      0.0022
     26  CD1       65.8990   15.4560   22.2030 C.3   104  LEU104      0.0001
     27  CD2       68.1970   15.8820   21.3350 C.3   104  LEU104      0.0001
     28  N         68.5470   19.2960   27.6760 N.3   106  LEU106     -0.1231
     29  CA        68.4040   19.7880   29.0440 C.3   106  LEU106      0.1678
     30  C         68.2970   18.6670   30.0720 C.2   106  LEU106      0.2434
     31  O         68.9430   18.7750   31.1290 O.2   106  LEU106     -0.2733
     32  CB        67.1920   20.7240   29.1400 C.3   106  LEU106      0.0284
     33  CG        67.4650   22.1320   28.6090 C.3   106  LEU106      0.0019
     34  CD1       66.1770   22.9280   28.4530 C.3   106  LEU106      0.0001
     35  CD2       68.4440   22.8720   29.5240 C.3   106  LEU106      0.0001
     36  N         67.5420   17.5900   29.8430 N.am  107  PRO107     -0.2729
     37  CA        67.4510   16.5340   30.8670 C.3   107  PRO107      0.1401
     38  C         68.7830   15.8800   31.1910 C.2   107  PRO107      0.2269
     39  O         68.9010   15.2490   32.2480 O.2   107  PRO107     -0.2865
     40  CB        66.4700   15.5300   30.2490 C.3   107  PRO107      0.0296
     41  CG        65.6470   16.3500   29.2940 C.3   107  PRO107      0.0237
     42  CD        66.6060   17.3600   28.7280 C.3   107  PRO107      0.0939
     43  N         57.4370   23.9050   22.5790 N.3   163  TYR163     -0.1241
     44  CA        58.4480   23.6490   23.6040 C.3   163  TYR163      0.1605
     45  C         58.8990   24.9400   24.2660 C.2   163  TYR163      0.2264
     46  O         59.1440   24.9670   25.4770 O.2   163  TYR163     -0.2867
     47  CB        59.6550   22.9210   23.0170 C.3   163  TYR163      0.0534
     48  CG        59.3140   21.6140   22.3590 C.ar  163  TYR163     -0.0201
     49  CD1       58.1710   20.9190   22.7100 C.ar  163  TYR163     -0.0009
     50  CD2       60.1430   21.0660   21.3740 C.ar  163  TYR163     -0.0009
     51  CE1       57.8460   19.7270   22.1030 C.ar  163  TYR163      0.0417
     52  CE2       59.8190   19.8850   20.7520 C.ar  163  TYR163      0.0417
     53  CZ        58.6690   19.2070   21.1290 C.ar  163  TYR163      0.1957
     54  OH        58.3170   18.0190   20.5300 O.3   163  TYR163     -0.2866
     55  N         56.4070   25.8090   26.8700 N.3   166  GLU166     -0.1231
     56  CA        56.6380   25.0410   28.0900 C.3   166  GLU166      0.1699
     57  C         57.7680   25.6380   28.9110 C.2   166  GLU166      0.2592
     58  O         57.7310   25.6000   30.1450 O.2   166  GLU166     -0.2718
     59  CB        56.9560   23.5850   27.7510 C.3   166  GLU166      0.0402
     60  CG        55.8500   22.8500   27.0290 C.3   166  GLU166      0.1161
     61  CD        56.2640   21.4600   26.5790 C.2   166  GLU166      0.3649
     62  OE1       57.4890   21.1590   26.5830 O.co2 166  GLU166     -0.2457
     63  OE2       55.3660   20.6760   26.2110 O.co2 166  GLU166     -0.2457
     64  N         58.7910   26.1730   28.2470 N.am  167  LEU167     -0.1980
     65  CA        59.9410   26.7210   28.9520 C.3   167  LEU167      0.1596
     66  C         59.6190   28.0680   29.5820 C.2   167  LEU167      0.2287
     67  O         59.9900   28.3280   30.7330 O.2   167  LEU167     -0.2864
     68  CB        61.1170   26.8590   27.9820 C.3   167  LEU167      0.0297
     69  CG        62.4260   27.3420   28.5950 C.3   167  LEU167      0.0022
     70  CD1       63.0300   26.2390   29.4480 C.3   167  LEU167      0.0001
     71  CD2       63.4060   27.7920   27.5100 C.3   167  LEU167      0.0001
     72  N         56.6640   16.0870   27.9500 N.3   204  PRO204     -0.2102
     73  CA        58.0300   16.3900   28.3880 C.3   204  PRO204      0.1504
     74  C         58.5880   15.2440   29.2150 C.2   204  PRO204      0.2575
     75  O         57.8670   14.5750   29.9600 O.2   204  PRO204     -0.2718
     76  CB        57.8660   17.6600   29.2320 C.3   204  PRO204      0.0282
     77  CG        56.5380   18.2330   28.8290 C.3   204  PRO204      0.0208
     78  CD        55.6840   17.0550   28.4740 C.3   204  PRO204      0.0893
     79  N         59.8880   15.0050   29.0720 N.am  205  MET205     -0.1980
     80  CA        60.5080   13.9130   29.8060 C.3   205  MET205      0.1605
     81  C         60.5160   14.2220   31.2980 C.2   205  MET205      0.2287
     82  O         60.8850   15.3210   31.7210 O.2   205  MET205     -0.2864
     83  CB        61.9290   13.6570   29.3100 C.3   205  MET205      0.0413
     84  CG        62.4120   12.2450   29.6140 C.3   205  MET205      0.0598
     85  SD        64.1260   11.9680   29.1530 S.3   205  MET205     -0.1393
     86  CE        64.9660   12.9180   30.4120 C.3   205  MET205      0.0692
@<TRIPOS>BOND
     1    54    53    1
     2    52    53   ar
     3    52    50   ar
     4     4     3    2
     5    53    51   ar
     6    27    25    1
     7    50    48   ar
     8     3     2    1
     9    51    49   ar
    10    26    25    1
    11    48    49   ar
    12    48    47    1
    13    25    24    1
    14    24    21    1
    15    43    44    1
    16     2     5    1
    17     2     1    1
    18    47    44    1
    19     5     6    1
    20    19    17    1
    21    44    45    1
    22     6     7    1
    23    20    21    1
    24    20    14   am
    25    12    13    1
    26    21    22    1
    27     7     8    1
    28    16    17    1
    29    16    13    1
    30    16    18    1
    31    45    46    2
    32     8     9    2
    33    13    14    1
    34    14    15    2
    35    22    23    2
    36     9    11    1
    37     9    10    1
    38    63    61   ar
    39    61    62   ar
    40    61    60    1
    41    55    56    1
    42    60    59    1
    43    71    69    1
    44    28    29    1
    45    59    56    1
    46    72    73    1
    47    72    78    1
    48    68    69    1
    49    68    65    1
    50    56    57    1
    51    64    57   am
    52    64    65    1
    53    73    74    1
    54    73    76    1
    55    34    33    1
    56    78    77    1
    57    69    70    1
    58    33    32    1
    59    33    35    1
    60    42    41    1
    61    42    36    1
    62    77    76    1
    63    57    58    2
    64    65    66    1
    65    29    32    1
    66    29    30    1
    67    79    74   am
    68    79    80    1
    69    85    84    1
    70    85    86    1
    71    74    75    2
    72    41    40    1
    73    83    84    1
    74    83    80    1
    75    66    67    2
    76    80    81    1
    77    36    30   am
    78    36    37    1
    79    30    31    2
    80    40    37    1
    81    37    38    1
    82    38    39    2
    83    81    82    2
