@<TRIPOS>MOLECULE
tmp/6atqA01.pdb
 111 106 0 0 0
SMALL
GASTEIGER

@<TRIPOS>ATOM
      1  N         84.7800   33.1450    5.7810 N.3     8  TYR8       -0.1227
      2  CA        85.1730   32.3380    6.9250 C.3     8  TYR8        0.1736
      3  C         86.4930   32.8660    7.4570 C.2     8  TYR8        0.2595
      4  O         87.1340   33.7220    6.8500 O.2     8  TYR8       -0.2718
      5  CB        85.2910   30.8410    6.5720 C.3     8  TYR8        0.0548
      6  CG        85.2120   29.9500    7.7960 C.ar    8  TYR8       -0.0200
      7  CD1       84.0740   29.9700    8.6170 C.ar    8  TYR8       -0.0009
      8  CD2       86.2770   29.1150    8.1550 C.ar    8  TYR8       -0.0009
      9  CE1       83.9890   29.1780    9.7430 C.ar    8  TYR8        0.0417
     10  CE2       86.2060   28.3130    9.2720 C.ar    8  TYR8        0.0417
     11  CZ        85.0490   28.3410   10.0640 C.ar    8  TYR8        0.1957
     12  OH        84.9510   27.5590   11.1870 O.3     8  TYR8       -0.2866
     13  N         86.8940   32.3340    8.6030 N.am    9  PHE9       -0.1976
     14  CA        88.2520   32.5610    9.0560 C.3     9  PHE9        0.1639
     15  C         89.2380   31.9310    8.0680 C.2     9  PHE9        0.2290
     16  O         88.8890   31.0480    7.2770 O.2     9  PHE9       -0.2864
     17  CB        88.4080   31.9960   10.4650 C.3     9  PHE9        0.0560
     18  CG        87.2590   32.3600   11.3750 C.ar    9  PHE9       -0.0200
     19  CD1       87.1570   33.6420   11.9000 C.ar    9  PHE9       -0.0042
     20  CD2       86.2590   31.4290   11.6770 C.ar    9  PHE9       -0.0042
     21  CE1       86.0910   33.9840   12.7230 C.ar    9  PHE9       -0.0003
     22  CE2       85.2020   31.7610   12.4990 C.ar    9  PHE9       -0.0003
     23  CZ        85.1070   33.0400   13.0190 C.ar    9  PHE9       -0.0000
     24  N         88.3480   24.9050    9.9740 N.3    13  GLY13      -0.1210
     25  CA        87.0870   24.9380   10.6990 C.3    13  GLY13       0.1956
     26  C         85.9110   24.3020    9.9860 C.2    13  GLY13       0.2611
     27  O         85.9910   23.1930    9.4260 O.2    13  GLY13      -0.2717
     28  N         84.8190   25.0550    9.9590 N.am   14  ARG14      -0.1979
     29  CA        83.5500   24.6030    9.4300 C.3    14  ARG14       0.1597
     30  C         83.3760   24.8980    7.9510 C.2    14  ARG14       0.2287
     31  O         82.3520   24.5250    7.3820 O.2    14  ARG14      -0.2864
     32  CB        82.4100   25.2500   10.2330 C.3    14  ARG14       0.0334
     33  CG        82.4150   24.8230   11.6960 C.3    14  ARG14       0.0492
     34  CD        81.0820   25.1000   12.3960 C.3    14  ARG14       0.2205
     35  NE        81.1230   24.6690   13.7950 N.pl3  14  ARG14      -0.0865
     36  CZ        80.8560   23.4390   14.2210 C.cat  14  ARG14       0.5346
     37  NH1       80.5090   22.4900   13.3650 N.pl3  14  ARG14       0.1354
     38  NH2       80.9340   23.1590   15.5190 N.pl3  14  ARG14       0.1354
     39  N         83.8700   40.2450   11.5330 N.3    40  LEU40      -0.1245
     40  CA        82.6820   39.4600   11.8560 C.3    40  LEU40       0.1561
     41  C         81.5240   40.3680   12.2490 C.2    40  LEU40       0.2260
     42  O         80.3930   40.1820   11.7850 O.2    40  LEU40      -0.2867
     43  CB        83.0070   38.4680   12.9730 C.3    40  LEU40       0.0270
     44  CG        81.9420   37.4510   13.3820 C.3    40  LEU40       0.0019
     45  CD1       81.4760   36.6590   12.1820 C.3    40  LEU40       0.0001
     46  CD2       82.5000   36.5220   14.4420 C.3    40  LEU40       0.0001
     47  N         77.6750   40.5260   10.5520 N.3    44  ARG44      -0.1245
     48  CA        76.5180   40.4570   11.4360 C.3    44  ARG44       0.1563
     49  C         75.6360   41.6860   11.2740 C.2    44  ARG44       0.2260
     50  O         74.4670   41.5870   10.8930 O.2    44  ARG44      -0.2867
     51  CB        76.9740   40.3640   12.8930 C.3    44  ARG44       0.0307
     52  CG        77.4320   39.0190   13.3420 C.3    44  ARG44       0.0489
     53  CD        77.9680   39.0870   14.7530 C.3    44  ARG44       0.2205
     54  NE        78.4090   37.7620   15.1710 N.pl3  44  ARG44      -0.0865
     55  CZ        79.1720   37.5190   16.2290 C.cat  44  ARG44       0.5346
     56  NH1       79.5840   38.5200   16.9980 N.pl3  44  ARG44       0.1354
     57  NH2       79.5180   36.2680   16.5220 N.pl3  44  ARG44       0.1354
     58  N         76.4330   33.8570   12.5440 N.3    53  GLN53      -0.1245
     59  CA        77.6500   33.0830   12.4550 C.3    53  GLN53       0.1566
     60  C         78.0460   32.7810   11.0190 C.2    53  GLN53       0.2260
     61  O         77.2190   32.7420   10.1390 O.2    53  GLN53      -0.2867
     62  CB        77.4780   31.7010   13.1150 C.3    53  GLN53       0.0367
     63  CG        76.8610   31.6330   14.4960 C.3    53  GLN53       0.0905
     64  CD        76.1280   30.3260   14.7310 C.2    53  GLN53       0.2608
     65  OE1       76.7350   29.2820   14.8720 O.2    53  GLN53      -0.2717
     66  NE2       74.8220   30.3820   14.7480 N.am   53  GLN53      -0.0878
     67  N         86.7410   17.8200   14.9960 N.3   106  LEU106     -0.1231
     68  CA        86.7650   19.2690   14.8390 C.3   106  LEU106      0.1693
     69  C         86.9530   19.9850   16.1740 C.2   106  LEU106      0.2591
     70  O         87.5960   21.0410   16.2260 O.2   106  LEU106     -0.2718
     71  CB        85.4740   19.7330   14.1610 C.3   106  LEU106      0.0284
     72  CG        85.2650   21.2380   13.9860 C.3   106  LEU106      0.0019
     73  CD1       86.1580   21.8080   12.8740 C.3   106  LEU106      0.0001
     74  CD2       83.8020   21.5290   13.7330 C.3   106  LEU106      0.0001
     75  N         86.4340   19.4220   17.2610 N.am  107  LEU107     -0.1980
     76  CA        86.3870   20.1110   18.5490 C.3   107  LEU107      0.1596
     77  C         87.4500   19.6340   19.5390 C.2   107  LEU107      0.2287
     78  O         87.5320   20.1710   20.6520 O.2   107  LEU107     -0.2864
     79  CB        84.9900   19.9540   19.1640 C.3   107  LEU107      0.0297
     80  CG        83.8830   20.6370   18.3530 C.3   107  LEU107      0.0022
     81  CD1       82.5130   20.0140   18.6150 C.3   107  LEU107      0.0001
     82  CD2       83.8560   22.1290   18.6460 C.3   107  LEU107      0.0001
     83  N         89.8090   22.5900   21.1700 N.3   110  VAL110     -0.1245
     84  CA        89.2460   23.4160   22.2390 C.3   110  VAL110      0.1561
     85  C         88.7290   22.5940   23.4080 C.2   110  VAL110      0.2260
     86  O         88.1700   23.1620   24.3550 O.2   110  VAL110     -0.2867
     87  CB        88.1380   24.3310   21.6790 C.3   110  VAL110      0.0252
     88  CG1       88.7450   25.3660   20.7510 C.3   110  VAL110      0.0019
     89  CG2       87.0840   23.5150   20.9440 C.3   110  VAL110      0.0019
     90  N         88.6020   36.5700   18.8280 N.3   219  PHE219     -0.1241
     91  CA        87.1770   36.2800   18.7500 C.3   219  PHE219      0.1605
     92  C         86.5890   35.8070   20.0680 C.2   219  PHE219      0.2264
     93  O         85.4070   35.4380   20.1100 O.2   219  PHE219     -0.2867
     94  CB        86.9210   35.2620   17.6360 C.3   219  PHE219      0.0534
     95  CG        87.3820   35.7470   16.3030 C.ar  219  PHE219     -0.0203
     96  CD1       86.6530   36.7040   15.6170 C.ar  219  PHE219     -0.0042
     97  CD2       88.5780   35.3050   15.7630 C.ar  219  PHE219     -0.0042
     98  CE1       87.0930   37.1820   14.4030 C.ar  219  PHE219     -0.0003
     99  CE2       89.0240   35.7810   14.5440 C.ar  219  PHE219     -0.0003
    100  CZ        88.2860   36.7190   13.8670 C.ar  219  PHE219     -0.0000
    101  N         86.6050   33.1530   22.5530 N.3   221  PHE221     -0.1241
    102  CA        85.8940   31.8810   22.6460 C.3   221  PHE221      0.1605
    103  C         86.8170   30.8180   23.2470 C.2   221  PHE221      0.2264
    104  O         86.3780   29.7900   23.7720 O.2   221  PHE221     -0.2867
    105  CB        85.3840   31.4300   21.2730 C.3   221  PHE221      0.0534
    106  CG        86.4480   30.8200   20.3930 C.ar  221  PHE221     -0.0203
    107  CD1       86.7270   29.4610   20.4550 C.ar  221  PHE221     -0.0042
    108  CD2       87.1610   31.6040   19.4990 C.ar  221  PHE221     -0.0042
    109  CE1       87.6940   28.8970   19.6560 C.ar  221  PHE221     -0.0003
    110  CE2       88.1290   31.0410   18.6880 C.ar  221  PHE221     -0.0003
    111  CZ        88.3930   29.6850   18.7700 C.ar  221  PHE221     -0.0000
@<TRIPOS>BOND
     1     1     2    1
     2     5     2    1
     3     5     6    1
     4     4     3    2
     5     2     3    1
     6    16    15    2
     7    31    30    2
     8     3    13   am
     9     6     8   ar
    10     6     7   ar
    11    30    29    1
    12    15    14    1
    13     8    10   ar
    14    13    14    1
    15     7     9   ar
    16    14    17    1
    17    10    11   ar
    18    27    26    2
    19    29    28    1
    20    29    32    1
    21     9    11   ar
    22    28    26   am
    23    24    25    1
    24    26    25    1
    25    11    12    1
    26    61    60    2
    27    32    33    1
    28    17    18    1
    29    47    48    1
    30    50    49    2
    31    60    59    1
    32    49    48    1
    33    18    20   ar
    34    18    19   ar
    35    48    51    1
    36    39    40    1
    37    20    22   ar
    38    33    34    1
    39    42    41    2
    40    40    41    1
    41    40    43    1
    42    19    21   ar
    43    45    44    1
    44    34    35    1
    45    59    58    1
    46    59    62    1
    47    22    23   ar
    48    21    23   ar
    49    73    72    1
    50    51    52    1
    51    43    44    1
    52    62    63    1
    53    52    53    1
    54    37    36    1
    55    44    46    1
    56    74    72    1
    57    35    36    2
    58   100    98   ar
    59   100    99   ar
    60    72    71    1
    61    71    68    1
    62    36    38    1
    63    98    96   ar
    64    63    64    1
    65    99    97   ar
    66    64    66   am
    67    64    65    2
    68    53    54    1
    69    68    67    1
    70    68    69    1
    71    54    55    2
    72    96    95   ar
    73    97    95   ar
    74    69    70    2
    75    69    75   am
    76    55    57    1
    77    55    56    1
    78    95    94    1
    79    75    76    1
    80    94    91    1
    81    80    81    1
    82    80    82    1
    83    80    79    1
    84    76    79    1
    85    76    77    1
    86   110   111   ar
    87   110   108   ar
    88    91    90    1
    89    91    92    1
    90   111   109   ar
    91   108   106   ar
    92    77    78    2
    93   109   107   ar
    94    92    93    2
    95   106   107   ar
    96   106   105    1
    97    88    87    1
    98    89    87    1
    99    83    84    1
   100   105   102    1
   101    87    84    1
   102    84    85    1
   103   101   102    1
   104   102   103    1
   105   103   104    2
   106    85    86    2
