@<TRIPOS>MOLECULE
tmp/6atrA00.pdb
 112 108 0 0 0
SMALL
GASTEIGER

@<TRIPOS>ATOM
      1  N         85.9220   32.4500    6.0940 N.3     8  TYR8       -0.1241
      2  CA        86.3200   31.6690    7.2580 C.3     8  TYR8        0.1605
      3  C         87.7020   32.1590    7.6600 C.2     8  TYR8        0.2264
      4  O         88.2630   33.0530    7.0170 O.2     8  TYR8       -0.2867
      5  CB        86.3230   30.1690    6.9390 C.3     8  TYR8        0.0534
      6  CG        86.2590   29.2700    8.1520 C.ar    8  TYR8       -0.0201
      7  CD1       85.1730   29.3250    9.0220 C.ar    8  TYR8       -0.0009
      8  CD2       87.2800   28.3510    8.4250 C.ar    8  TYR8       -0.0009
      9  CE1       85.0910   28.4990   10.1350 C.ar    8  TYR8        0.0417
     10  CE2       87.2060   27.5130    9.5340 C.ar    8  TYR8        0.0417
     11  CZ        86.1110   27.5990   10.3850 C.ar    8  TYR8        0.1957
     12  OH        86.0460   26.7740   11.4860 O.3     8  TYR8       -0.2866
     13  N         85.5500   24.2440   10.1900 N.3    14  ARG14      -0.1245
     14  CA        84.2550   23.8780    9.6360 C.3    14  ARG14       0.1563
     15  C         84.0950   24.2210    8.1660 C.2    14  ARG14       0.2260
     16  O         83.0270   23.9540    7.6120 O.2    14  ARG14      -0.2867
     17  CB        83.1390   24.5560   10.4300 C.3    14  ARG14       0.0307
     18  CG        83.0550   24.0640   11.8650 C.3    14  ARG14       0.0489
     19  CD        81.7680   24.5540   12.5350 C.3    14  ARG14       0.2205
     20  NE        81.7720   24.1330   13.9350 N.pl3  14  ARG14      -0.0865
     21  CZ        81.4600   22.9120   14.3450 C.cat  14  ARG14       0.5346
     22  NH1       81.0870   21.9820   13.4740 N.pl3  14  ARG14       0.1354
     23  NH2       81.5430   22.6140   15.6380 N.pl3  14  ARG14       0.1354
     24  N         85.6230   39.6620   11.7950 N.3    40  LEU40      -0.1245
     25  CA        84.3570   38.9730   12.0180 C.3    40  LEU40       0.1561
     26  C         83.2560   39.9620   12.3670 C.2    40  LEU40       0.2260
     27  O         82.1290   39.8570   11.8610 O.2    40  LEU40      -0.2867
     28  CB        84.5150   37.9210   13.1080 C.3    40  LEU40       0.0270
     29  CG        83.2470   37.1280   13.4420 C.3    40  LEU40       0.0019
     30  CD1       82.7270   36.3950   12.2210 C.3    40  LEU40       0.0001
     31  CD2       83.5330   36.1550   14.5790 C.3    40  LEU40       0.0001
     32  N         79.5260   40.6720   10.5840 N.3    44  ARG44      -0.1245
     33  CA        78.3010   40.7670   11.3760 C.3    44  ARG44       0.1563
     34  C         77.5920   42.1020   11.1620 C.2    44  ARG44       0.2260
     35  O         76.3830   42.1420   10.9020 O.2    44  ARG44      -0.2867
     36  CB        78.6440   40.5940   12.8530 C.3    44  ARG44       0.0307
     37  CG        79.0720   39.1900   13.2200 C.3    44  ARG44       0.0489
     38  CD        79.5620   39.1610   14.6590 C.3    44  ARG44       0.2205
     39  NE        79.7750   37.7870   15.1020 N.pl3  44  ARG44      -0.0865
     40  CZ        80.3860   37.4620   16.2340 C.cat  44  ARG44       0.5346
     41  NH1       80.8570   38.4130   17.0360 N.pl3  44  ARG44       0.1354
     42  NH2       80.5220   36.1880   16.5710 N.pl3  44  ARG44       0.1354
     43  N         75.2470   35.2860   12.9860 N.3    52  GLN52      -0.1231
     44  CA        76.4650   35.9650   13.4390 C.3    52  GLN52       0.1698
     45  C         77.6570   35.0200   13.5390 C.2    52  GLN52       0.2592
     46  O         78.5700   35.2520   14.3270 O.2    52  GLN52      -0.2718
     47  CB        76.2640   36.7440   14.7450 C.3    52  GLN52       0.0381
     48  CG        74.9190   37.4550   14.8550 C.3    52  GLN52       0.0905
     49  CD        74.5710   38.2780   13.6340 C.2    52  GLN52       0.2608
     50  OE1       75.4440   38.8250   12.9500 O.2    52  GLN52      -0.2717
     51  NE2       73.2820   38.3550   13.3370 N.am   52  GLN52      -0.0878
     52  N         77.6510   33.9580   12.7300 N.am   53  GLN53      -0.1966
     53  CA        78.7290   32.9800   12.6900 C.3    53  GLN53       0.1733
     54  C         79.1920   32.7340   11.2630 C.2    53  GLN53       0.2616
     55  O         78.4700   32.9780   10.2900 O.2    53  GLN53      -0.2715
     56  CB        78.2370   31.6270   13.2090 C.3    53  GLN53       0.0408
     57  CG        77.7100   31.6250   14.6470 C.3    53  GLN53       0.0908
     58  CD        77.0400   30.3040   14.9610 C.2    53  GLN53       0.2608
     59  OE1       76.1810   29.8340   14.2080 O.2    53  GLN53      -0.2717
     60  NE2       77.4670   29.6720   16.0320 N.am   53  GLN53      -0.0878
     61  N         80.4090   32.2040   11.1560 N.am   54  VAL54      -0.1964
     62  CA        80.9070   31.6100    9.9170 C.3    54  VAL54       0.1712
     63  C         81.0760   30.1130   10.1580 C.2    54  VAL54       0.2458
     64  O         81.0910   29.6830   11.3200 O.2    54  VAL54      -0.2730
     65  CB        82.2160   32.2680    9.4440 C.3    54  VAL54       0.0289
     66  CG1       81.9530   33.6940    8.9420 C.3    54  VAL54       0.0023
     67  CG2       83.2850   32.2540   10.5570 C.3    54  VAL54       0.0023
     68  N         81.2390   29.2690    9.1260 N.am   55  PRO55      -0.2727
     69  CA        81.3640   29.5150    7.6830 C.3    55  PRO55       0.1402
     70  C         80.2030   30.2930    7.0750 C.2    55  PRO55       0.2269
     71  O         79.0480   30.1650    7.4820 O.2    55  PRO55      -0.2865
     72  CB        81.3300   28.1020    7.0910 C.3    55  PRO55       0.0296
     73  CG        81.8440   27.2280    8.1730 C.3    55  PRO55       0.0237
     74  CD        81.3060   27.8260    9.4330 C.3    55  PRO55       0.0939
     75  N         75.7520   28.0770    7.8610 N.3    66  GLN66      -0.1231
     76  CA        75.4840   26.7060    8.3150 C.3    66  GLN66       0.1698
     77  C         76.1420   25.6930    7.3790 C.2    66  GLN66       0.2593
     78  O         75.7260   25.5360    6.2290 O.2    66  GLN66      -0.2718
     79  CB        73.9900   26.4090    8.5330 C.3    66  GLN66       0.0381
     80  CG        73.4060   27.1700    9.7120 C.3    66  GLN66       0.0905
     81  CD        73.8630   26.6370   11.0330 C.2    66  GLN66       0.2608
     82  OE1       74.4600   25.5590   11.1200 O.2    66  GLN66      -0.2717
     83  NE2       73.5920   27.3940   12.0870 N.am   66  GLN66      -0.0878
     84  N         77.1810   25.0110    7.8690 N.am   67  THR67      -0.1939
     85  CA        77.9310   24.0400    7.0770 C.3    67  THR67       0.2028
     86  C         77.0240   23.1390    6.2510 C.2    67  THR67       0.2642
     87  O         77.2320   22.9550    5.0440 O.2    67  THR67      -0.2714
     88  CB        78.7850   23.1790    8.0130 C.3    67  THR67       0.1808
     89  OG1       79.6150   24.0170    8.8320 O.3    67  THR67      -0.2208
     90  CG2       79.6830   22.2420    7.1990 C.3    67  THR67       0.0379
     91  N         76.0090   22.5580    6.8770 N.am   68  ARG68      -0.1977
     92  CA        75.1920   21.5850    6.1570 C.3    68  ARG68       0.1597
     93  C         74.3500   22.2340    5.0680 C.2    68  ARG68       0.2287
     94  O         74.0920   21.6010    4.0360 O.2    68  ARG68      -0.2864
     95  CB        74.3150   20.8030    7.1310 C.3    68  ARG68       0.0334
     96  CG        75.0570   19.8410    8.0280 C.3    68  ARG68       0.0492
     97  CD        74.0710   19.1080    8.9100 C.3    68  ARG68       0.2205
     98  NE        74.6960   17.9950    9.6130 N.pl3  68  ARG68      -0.0865
     99  CZ        75.3390   18.1030   10.7680 C.cat  68  ARG68       0.5346
    100  NH1       75.4530   19.2910   11.3550 N.pl3  68  ARG68       0.1354
    101  NH2       75.8640   17.0200   11.3280 N.pl3  68  ARG68       0.1354
    102  N         87.3070   34.3070   17.5780 N.3   219  PHE219     -0.1241
    103  CA        85.9850   33.8720   18.0010 C.3   219  PHE219      0.1605
    104  C         85.7540   34.0710   19.4910 C.2   219  PHE219      0.2264
    105  O         84.6820   33.7190   19.9930 O.2   219  PHE219     -0.2867
    106  CB        85.7280   32.4290   17.5550 C.3   219  PHE219      0.0534
    107  CG        85.8650   32.2430   16.0750 C.ar  219  PHE219     -0.0203
    108  CD1       84.8950   32.7440   15.2120 C.ar  219  PHE219     -0.0042
    109  CD2       86.9750   31.6100   15.5350 C.ar  219  PHE219     -0.0042
    110  CE1       85.0180   32.5940   13.8390 C.ar  219  PHE219     -0.0003
    111  CE2       87.1070   31.4550   14.1570 C.ar  219  PHE219     -0.0003
    112  CZ        86.1250   31.9520   13.3090 C.ar  219  PHE219     -0.0000
@<TRIPOS>BOND
     1    94    93    2
     2    87    86    2
     3    93    92    1
     4     1     2    1
     5    92    91    1
     6    92    95    1
     7    78    77    2
     8    86    91   am
     9    86    85    1
    10     5     2    1
    11     5     6    1
    12     4     3    2
    13    70    71    2
    14    70    69    1
    15    85    84    1
    16    85    88    1
    17    72    69    1
    18    72    73    1
    19    95    96    1
    20    90    88    1
    21     2     3    1
    22    77    84   am
    23    77    76    1
    24    16    15    2
    25    69    68    1
    26    75    76    1
    27    88    89    1
    28    96    97    1
    29     6     8   ar
    30     6     7   ar
    31    15    14    1
    32    73    74    1
    33    76    79    1
    34     8    10   ar
    35    79    80    1
    36    97    98    1
    37    66    65    1
    38     7     9   ar
    39    68    74    1
    40    68    63   am
    41    65    62    1
    42    65    67    1
    43    10    11   ar
    44    98    99    2
    45    14    13    1
    46    14    17    1
    47    80    81    1
    48    62    63    1
    49    62    61    1
    50     9    11   ar
    51    63    64    2
    52    55    54    2
    53    11    12    1
    54    17    18    1
    55    32    33    1
    56    99   101    1
    57    99   100    1
    58    35    34    2
    59    81    82    2
    60    81    83   am
    61    61    54   am
    62    34    33    1
    63    54    53    1
    64    33    36    1
    65    24    25    1
    66    27    26    2
    67    18    19    1
    68    25    26    1
    69    25    28    1
    70    30    29    1
    71    19    20    1
    72    53    52    1
    73    53    56    1
    74    52    45   am
    75    36    37    1
    76    50    49    2
    77    43    44    1
    78    28    29    1
    79    56    57    1
    80    37    38    1
    81   112   110   ar
    82   112   111   ar
    83    51    49   am
    84    44    45    1
    85    44    47    1
    86    29    31    1
    87    22    21    1
    88    45    46    2
    89    49    48    1
    90   110   108   ar
    91    20    21    2
    92   111   109   ar
    93    59    58    2
    94    21    23    1
    95    57    58    1
    96    38    39    1
    97    47    48    1
    98    58    60   am
    99    39    40    2
   100   108   107   ar
   101   109   107   ar
   102   107   106    1
   103    40    42    1
   104    40    41    1
   105   106   103    1
   106   102   103    1
   107   103   104    1
   108   104   105    2
