@<TRIPOS>MOLECULE
tmp/6atzB01.pdb
 74 68 0 0 0
SMALL
GASTEIGER

@<TRIPOS>ATOM
      1  N         13.1140  -10.7140    9.1100 N.3   125  ILE125     -0.1231
      2  CA        14.4310  -10.2880    8.6490 C.3   125  ILE125      0.1692
      3  C         15.3400  -11.5070    8.6230 C.2   125  ILE125      0.2592
      4  O         15.1910  -12.4290    9.4300 O.2   125  ILE125     -0.2718
      5  CB        14.9980   -9.1610    9.5520 C.3   125  ILE125      0.0266
      6  CG1       16.1480   -8.4280    8.8560 C.3   125  ILE125      0.0019
      7  CG2       15.4570   -9.7110   10.9000 C.3   125  ILE125      0.0020
      8  CD1       15.6990   -7.4120    7.8350 C.3   125  ILE125      0.0001
      9  N         16.2880  -11.5060    7.6890 N.am  126  GLU126     -0.1966
     10  CA        17.2900  -12.5620    7.5780 C.3   126  GLU126      0.1733
     11  C         18.6150  -11.9060    7.2230 C.2   126  GLU126      0.2616
     12  O         18.6990  -11.1790    6.2290 O.2   126  GLU126     -0.2715
     13  CB        16.8910  -13.5960    6.5190 C.3   126  GLU126      0.0429
     14  CG        17.7810  -14.8310    6.4650 C.3   126  GLU126      0.1163
     15  CD        17.6510  -15.7020    7.6990 C.2   126  GLU126      0.3649
     16  OE1       18.6640  -16.3080    8.1080 O.co2 126  GLU126     -0.2457
     17  OE2       16.5370  -15.7780    8.2620 O.co2 126  GLU126     -0.2457
     18  N         19.6450  -12.1590    8.0280 N.am  127  VAL127     -0.1963
     19  CA        20.9480  -11.5290    7.8570 C.3   127  VAL127      0.1727
     20  C         22.0110  -12.6150    7.7930 C.2   127  VAL127      0.2616
     21  O         21.9580  -13.5950    8.5440 O.2   127  VAL127     -0.2715
     22  CB        21.2480  -10.5360    8.9990 C.3   127  VAL127      0.0290
     23  CG1       22.5610   -9.8090    8.7480 C.3   127  VAL127      0.0023
     24  CG2       20.1030   -9.5400    9.1520 C.3   127  VAL127      0.0023
     25  N         22.9780  -12.4360    6.8950 N.am  128  ARG128     -0.1977
     26  CA        24.0400  -13.4080    6.6760 C.3   128  ARG128      0.1597
     27  C         25.3620  -12.6790    6.4790 C.2   128  ARG128      0.2287
     28  O         25.3990  -11.5940    5.8920 O.2   128  ARG128     -0.2864
     29  CB        23.7360  -14.2830    5.4480 C.3   128  ARG128      0.0334
     30  CG        22.5480  -15.2240    5.6220 C.3   128  ARG128      0.0492
     31  CD        21.8440  -15.5020    4.2960 C.3   128  ARG128      0.2205
     32  NE        22.6950  -16.1890    3.3270 N.pl3 128  ARG128     -0.0865
     33  CZ        22.4280  -16.2800    2.0260 C.cat 128  ARG128      0.5346
     34  NH1       21.3330  -15.7220    1.5240 N.pl3 128  ARG128      0.1354
     35  NH2       23.2590  -16.9280    1.2210 N.pl3 128  ARG128      0.1354
     36  N         29.0690  -16.1380   14.6180 N.3   140  VAL140     -0.1245
     37  CA        28.0480  -15.1050   14.4870 C.3   140  VAL140      0.1561
     38  C         27.2020  -15.0920   15.7520 C.2   140  VAL140      0.2260
     39  O         26.6230  -16.1160   16.1370 O.2   140  VAL140     -0.2867
     40  CB        27.1730  -15.3330   13.2440 C.3   140  VAL140      0.0252
     41  CG1       26.1240  -14.2320   13.1220 C.3   140  VAL140      0.0019
     42  CG2       28.0350  -15.3860   11.9910 C.3   140  VAL140      0.0019
     43  N         24.1730  -12.4420   17.7200 N.3   142  SER142     -0.1217
     44  CA        23.2190  -11.4020   17.3690 C.3   142  SER142      0.1889
     45  C         22.4050  -11.0250   18.5950 C.2   142  SER142      0.2288
     46  O         22.2860  -11.7940   19.5530 O.2   142  SER142     -0.2866
     47  CB        22.2880  -11.8550   16.2360 C.3   142  SER142      0.2089
     48  OG        21.1930  -10.9680   16.0880 O.3   142  SER142     -0.2183
     49  N         19.2740  -10.6150   18.2320 N.3   144  GLY144     -0.1210
     50  CA        17.9390  -11.0640   17.9120 C.3   144  GLY144      0.1956
     51  C         17.1020   -9.9110   17.3990 C.2   144  GLY144      0.2611
     52  O         17.5400   -8.7620   17.3130 O.2   144  GLY144     -0.2717
     53  N         15.8620  -10.2300   17.0500 N.am  145  LEU145     -0.1979
     54  CA        14.9360   -9.2120   16.5740 C.3   145  LEU145      0.1596
     55  C         14.5450   -8.2920   17.7250 C.2   145  LEU145      0.2287
     56  O         14.0270   -8.7510   18.7480 O.2   145  LEU145     -0.2864
     57  CB        13.7020   -9.8710   15.9660 C.3   145  LEU145      0.0297
     58  CG        12.6650   -8.9320   15.3520 C.3   145  LEU145      0.0022
     59  CD1       13.2740   -8.1210   14.2160 C.3   145  LEU145      0.0001
     60  CD2       11.4700   -9.7310   14.8650 C.3   145  LEU145      0.0001
     61  N         18.1460   -4.8450   14.5890 N.3   155  THR155     -0.1218
     62  CA        18.9390   -5.9790   15.0400 C.3   155  THR155      0.1862
     63  C         20.4040   -5.7090   14.7360 C.2   155  THR155      0.2287
     64  O         20.7340   -5.0550   13.7420 O.2   155  THR155     -0.2866
     65  CB        18.4900   -7.2860   14.3710 C.3   155  THR155      0.1770
     66  OG1       19.2470   -8.3820   14.9010 O.3   155  THR155     -0.2211
     67  CG2       18.6820   -7.2240   12.8560 C.3   155  THR155      0.0375
     68  N         23.8160   -7.9400   14.0580 N.3   157  VAL157     -0.1245
     69  CA        24.3480   -9.2620   13.7500 C.3   157  VAL157      0.1561
     70  C         25.8590   -9.1200   13.6610 C.2   157  VAL157      0.2260
     71  O         26.3850   -8.5500   12.6960 O.2   157  VAL157     -0.2867
     72  CB        23.7580   -9.8370   12.4560 C.3   157  VAL157      0.0252
     73  CG1       24.3410  -11.2160   12.1660 C.3   157  VAL157      0.0019
     74  CG2       22.2450   -9.9100   12.5680 C.3   157  VAL157      0.0019
@<TRIPOS>BOND
     1    35    33    1
     2    34    33    1
     3    33    32    2
     4    32    31    1
     5    31    30    1
     6    29    30    1
     7    29    26    1
     8    28    27    2
     9    12    11    2
    10    14    13    1
    11    14    15    1
    12    27    26    1
    13    13    10    1
    14    26    25    1
    15    25    20   am
    16    11    10    1
    17    11    18   am
    18    10     9    1
    19     9     3   am
    20    15    16   ar
    21    15    17   ar
    22    20    19    1
    23    20    21    2
    24     8     6    1
    25    19    18    1
    26    19    22    1
    27     3     2    1
    28     3     4    2
    29     2     1    1
    30     2     5    1
    31    23    22    1
    32     6     5    1
    33    22    24    1
    34     5     7    1
    35    42    40    1
    36    73    72    1
    37    72    74    1
    38    72    69    1
    39    71    70    2
    40    67    65    1
    41    41    40    1
    42    40    37    1
    43    70    69    1
    44    64    63    2
    45    69    68    1
    46    59    58    1
    47    65    66    1
    48    65    62    1
    49    37    36    1
    50    37    38    1
    51    61    62    1
    52    63    62    1
    53    60    58    1
    54    58    57    1
    55    38    39    2
    56    57    54    1
    57    48    47    1
    58    47    44    1
    59    54    53    1
    60    54    55    1
    61    53    51   am
    62    52    51    2
    63    44    43    1
    64    44    45    1
    65    51    50    1
    66    55    56    2
    67    50    49    1
    68    45    46    2
