@<TRIPOS>MOLECULE
tmp/6au0A00.pdb
 130 125 0 0 0
SMALL
GASTEIGER

@<TRIPOS>ATOM
      1  N         26.0020    2.6700   16.1860 N.3    75  MET75      -0.1230
      2  CA        25.5910    2.9690   17.5520 C.3    75  MET75       0.1702
      3  C         25.0270    4.4140   17.5780 C.2    75  MET75       0.2592
      4  O         25.3580    5.2580   16.7090 O.2    75  MET75      -0.2718
      5  CB        26.7800    2.8140   18.5120 C.3    75  MET75       0.0401
      6  CG        27.3650    1.4110   18.6240 C.3    75  MET75       0.0596
      7  SD        26.2110    0.1360   19.1920 S.3    75  MET75      -0.1393
      8  CE        26.3040    0.5250   20.9600 C.3    75  MET75       0.0692
      9  N         24.1830    4.7040   18.5540 N.am   76  ASP76      -0.1960
     10  CA        23.6620    6.0640   18.7250 C.3    76  ASP76       0.1840
     11  C         24.7970    7.0870   18.7950 C.2    76  ASP76       0.2622
     12  O         25.8440    6.8380   19.4220 O.2    76  ASP76      -0.2715
     13  CB        22.8820    6.1770   20.0290 C.3    76  ASP76       0.1450
     14  CG        21.6220    5.4000   20.0060 C.2    76  ASP76       0.3671
     15  OD1       20.9400    5.3780   18.9830 O.co2  76  ASP76      -0.2456
     16  OD2       21.2870    4.7870   21.0230 O.co2  76  ASP76      -0.2456
     17  N         24.5530    8.2400   18.1810 N.am   77  ALA77      -0.1963
     18  CA        25.4460    9.3860   18.1600 C.3    77  ALA77       0.1728
     19  C         26.6680    9.1710   17.2980 C.2    77  ALA77       0.2616
     20  O         27.5450   10.0250   17.3030 O.2    77  ALA77      -0.2715
     21  CB        25.8760    9.7980   19.5660 C.3    77  ALA77       0.0334
     22  N         26.7230    8.0880   16.5150 N.am   78  ALA78      -0.1963
     23  CA        27.8430    7.8870   15.5770 C.3    78  ALA78       0.1728
     24  C         27.8110    8.8690   14.4060 C.2    78  ALA78       0.2617
     25  O         28.8040    9.0570   13.7580 O.2    78  ALA78      -0.2715
     26  CB        27.8400    6.4720   15.0600 C.3    78  ALA78       0.0334
     27  N         26.6780    9.5150   14.1700 N.am   79  GLY79      -0.1940
     28  CA        26.5250   10.4910   13.0930 C.3    79  GLY79       0.2014
     29  C         25.7550    9.9600   11.8870 C.2    79  GLY79       0.2639
     30  O         25.8380   10.5350   10.7990 O.2    79  GLY79      -0.2714
     31  N         25.0210    8.8590   12.0660 N.am   80  LYS80      -0.1963
     32  CA        24.2830    8.2410   10.9690 C.3    80  LYS80       0.1728
     33  C         23.2090    9.1600   10.3710 C.2    80  LYS80       0.2616
     34  O         23.1640    9.3340    9.1570 O.2    80  LYS80      -0.2715
     35  CB        23.6710    6.9300   11.4550 C.3    80  LYS80       0.0311
     36  CG        22.7310    6.2540   10.4860 C.3    80  LYS80       0.0038
     37  CD        22.3830    4.8310   10.9250 C.3    80  LYS80       0.0206
     38  CE        21.7060    4.7700   12.2820 C.3    80  LYS80       0.1093
     39  NZ        20.5630    5.7030   12.3930 N.3    80  LYS80      -0.1314
     40  N         22.3500    9.7450   11.2130 N.am   81  ASP81      -0.1957
     41  CA        21.2590   10.6000   10.7310 C.3    81  ASP81       0.1840
     42  C         21.7650   11.8530   10.0050 C.2    81  ASP81       0.2622
     43  O         21.2090   12.2460    8.9650 O.2    81  ASP81      -0.2715
     44  CB        20.2670   10.9620   11.8610 C.3    81  ASP81       0.1450
     45  CG        19.4500    9.7430   12.3620 C.2    81  ASP81       0.3671
     46  OD1       19.4330    8.6860   11.6790 O.co2  81  ASP81      -0.2456
     47  OD2       18.8520    9.8150   13.4730 O.co2  81  ASP81      -0.2456
     48  N         22.8510   12.4360   10.5150 N.am   82  GLY82      -0.1954
     49  CA        23.4970   13.5540    9.8460 C.3    82  GLY82       0.1869
     50  C         24.1060   13.1740    8.5170 C.2    82  GLY82       0.2309
     51  O         24.0050   13.9470    7.5740 O.2    82  GLY82      -0.2863
     52  N         21.2090   12.8100    6.1290 N.3    85  LYS85      -0.1245
     53  CA        20.7230   14.1600    5.7470 C.3    85  LYS85       0.1561
     54  C         21.6560   14.8590    4.7600 C.2    85  LYS85       0.2260
     55  O         21.2200   15.4270    3.7340 O.2    85  LYS85      -0.2867
     56  CB        20.5870   15.0840    6.9380 C.3    85  LYS85       0.0271
     57  CG        19.3870   14.8080    7.7870 C.3    85  LYS85       0.0035
     58  CD        19.4480   15.6190    9.0790 C.3    85  LYS85       0.0206
     59  CE        18.1930   15.4140    9.9090 C.3    85  LYS85       0.1093
     60  NZ        18.5130   14.6990   11.1590 N.3    85  LYS85      -0.1314
     61  N         29.8020   13.1250   22.7490 N.3   203  ARG203     -0.1231
     62  CA        28.6500   13.6080   21.9960 C.3   203  ARG203      0.1694
     63  C         27.3910   13.6710   22.8620 C.2   203  ARG203      0.2592
     64  O         26.6900   14.6490   22.7990 O.2   203  ARG203     -0.2718
     65  CB        28.4480   12.7530   20.7510 C.3   203  ARG203      0.0321
     66  CG        29.5530   13.0190   19.7390 C.3   203  ARG203      0.0489
     67  CD        29.4960   12.1110   18.5330 C.3   203  ARG203      0.2205
     68  NE        30.6790   12.2890   17.7150 N.pl3 203  ARG203     -0.0865
     69  CZ        30.8890   11.6960   16.5600 C.cat 203  ARG203      0.5346
     70  NH1       29.9910   10.8710   16.0250 N.pl3 203  ARG203      0.1354
     71  NH2       32.0270   11.9350   15.9110 N.pl3 203  ARG203      0.1354
     72  N         27.1570   12.6540   23.6940 N.am  204  PHE204     -0.1976
     73  CA        26.0350   12.6180   24.6270 C.3   204  PHE204      0.1639
     74  C         26.0640   13.8160   25.5640 C.2   204  PHE204      0.2290
     75  O         25.0620   14.4810   25.7590 O.2   204  PHE204     -0.2864
     76  CB        26.0900   11.3530   25.4830 C.3   204  PHE204      0.0560
     77  CG        25.4800   10.1110   24.8510 C.ar  204  PHE204     -0.0200
     78  CD1       25.1450   10.0320   23.5180 C.ar  204  PHE204     -0.0042
     79  CD2       25.2620    8.9950   25.6450 C.ar  204  PHE204     -0.0042
     80  CE1       24.5850    8.8660   22.9960 C.ar  204  PHE204     -0.0003
     81  CE2       24.7200    7.8330   25.1320 C.ar  204  PHE204     -0.0003
     82  CZ        24.3750    7.7640   23.7930 C.ar  204  PHE204     -0.0000
     83  N         25.3870   17.1690   23.7780 N.3   207  ARG207     -0.1245
     84  CA        23.9540   17.3570   23.5780 C.3   207  ARG207      0.1563
     85  C         23.1980   17.7020   24.8760 C.2   207  ARG207      0.2260
     86  O         22.3530   18.5950   24.8770 O.2   207  ARG207     -0.2867
     87  CB        23.3290   16.1300   22.9600 C.3   207  ARG207      0.0307
     88  CG        21.8290   16.1920   22.9490 C.3   207  ARG207      0.0489
     89  CD        21.2290   15.1430   22.0790 C.3   207  ARG207      0.2205
     90  NE        21.4350   15.4460   20.6680 N.pl3 207  ARG207     -0.0865
     91  CZ        20.9250   14.7220   19.6870 C.cat 207  ARG207      0.5346
     92  NH1       20.1680   13.6540   19.9390 N.pl3 207  ARG207      0.1354
     93  NH2       21.1830   15.0650   18.4330 N.pl3 207  ARG207      0.1354
     94  N         15.8730   16.4800   23.1220 N.3   216  LYS216     -0.1231
     95  CA        15.9820   15.2260   22.3900 C.3   216  LYS216      0.1693
     96  C         16.5430   14.0420   23.1650 C.2   216  LYS216      0.2592
     97  O         16.2260   12.9210   22.8520 O.2   216  LYS216     -0.2718
     98  CB        16.8180   15.4620   21.1360 C.3   216  LYS216      0.0285
     99  CG        16.1370   16.5020   20.2810 C.3   216  LYS216      0.0035
    100  CD        16.6300   16.5130   18.8730 C.3   216  LYS216      0.0206
    101  CE        18.0110   17.1250   18.7920 C.3   216  LYS216      0.1093
    102  NZ        18.0810   17.7240   17.4300 N.3   216  LYS216     -0.1314
    103  N         17.3410   14.2890   24.1830 N.am  217  PHE217     -0.1976
    104  CA        17.9980   13.2300   24.9230 C.3   217  PHE217      0.1639
    105  C         17.1470   12.6170   26.0470 C.2   217  PHE217      0.2290
    106  O         16.8400   13.3020   27.0270 O.2   217  PHE217     -0.2864
    107  CB        19.2980   13.7730   25.5070 C.3   217  PHE217      0.0560
    108  CG        20.2270   12.7090   25.9500 C.ar  217  PHE217     -0.0200
    109  CD1       20.1460   12.1940   27.2380 C.ar  217  PHE217     -0.0042
    110  CD2       21.1660   12.1980   25.0710 C.ar  217  PHE217     -0.0042
    111  CE1       21.0040   11.1830   27.6410 C.ar  217  PHE217     -0.0003
    112  CE2       22.0240   11.1940   25.4580 C.ar  217  PHE217     -0.0003
    113  CZ        21.9480   10.6780   26.7410 C.ar  217  PHE217     -0.0000
    114  N         18.5870    6.4110   26.0160 N.3   221  ASP221     -0.1239
    115  CA        19.8470    6.5410   25.2850 C.3   221  ASP221      0.1674
    116  C         21.0470    6.0260   26.1070 C.2   221  ASP221      0.2266
    117  O         21.9250    5.3330   25.5830 O.2   221  ASP221     -0.2867
    118  CB        20.0400    8.0100   24.8960 C.3   221  ASP221      0.1410
    119  CG        18.9240    8.5230   23.9920 C.2   221  ASP221      0.3668
    120  OD1       18.7380    7.9080   22.9060 O.co2 221  ASP221     -0.2456
    121  OD2       18.2460    9.5130   24.3670 O.co2 221  ASP221     -0.2456
    122  N         33.4400   13.4660   11.9110 N.3   257  LYS257     -0.1245
    123  CA        32.2640   13.4140   11.0450 C.3   257  LYS257      0.1561
    124  C         32.5250   13.7840    9.5870 C.2   257  LYS257      0.2260
    125  O         31.9820   13.1240    8.7000 O.2   257  LYS257     -0.2867
    126  CB        31.1510   14.3030   11.5820 C.3   257  LYS257      0.0271
    127  CG        30.4890   13.7360   12.8200 C.3   257  LYS257      0.0035
    128  CD        29.5370   14.7460   13.4350 C.3   257  LYS257      0.0206
    129  CE        28.7050   14.0720   14.4990 C.3   257  LYS257      0.1093
    130  NZ        27.8450   15.0450   15.2160 N.3   257  LYS257     -0.1314
@<TRIPOS>BOND
     1    55    54    2
     2    54    53    1
     3    53    52    1
     4    53    56    1
     5    56    57    1
     6    51    50    2
     7    57    58    1
     8    50    49    1
     9   125   124    2
    10    43    42    2
    11    58    59    1
    12    34    33    2
    13   124   123    1
    14    49    48    1
    15    59    60    1
    16    42    48   am
    17    42    41    1
    18    33    32    1
    19    33    40   am
    20    36    37    1
    21    36    35    1
    22    41    40    1
    23    41    44    1
    24    30    29    2
    25    37    38    1
    26    32    35    1
    27    32    31    1
    28   123   126    1
    29   123   122    1
    30   126   127    1
    31    46    45   ar
    32    44    45    1
    33    29    31   am
    34    29    28    1
    35    38    39    1
    36    45    47   ar
    37   127   128    1
    38    28    27    1
    39   128   129    1
    40    25    24    2
    41    27    24   am
    42    24    23    1
    43   129   130    1
    44    26    23    1
    45    23    22    1
    46    71    69    1
    47    70    69    1
    48     1     2    1
    49    22    19   am
    50    69    68    2
    51     4     3    2
    52    19    20    2
    53    19    18    1
    54   102   101    1
    55     2     3    1
    56     2     5    1
    57     3     9   am
    58    68    67    1
    59    18    17    1
    60    18    21    1
    61    17    11   am
    62    93    91    1
    63     5     6    1
    64    67    66    1
    65     9    10    1
    66     6     7    1
    67    10    11    1
    68    10    13    1
    69   101   100    1
    70    11    12    2
    71   100    99    1
    72    15    14   ar
    73     7     8    1
    74    91    92    1
    75    91    90    2
    76    66    65    1
    77    14    13    1
    78    14    16   ar
    79    99    98    1
    80    90    89    1
    81    65    62    1
    82    98    95    1
    83    62    61    1
    84    62    63    1
    85    89    88    1
    86    95    94    1
    87    95    96    1
    88    64    63    2
    89    97    96    2
    90    63    72   am
    91   120   119   ar
    92    88    87    1
    93    87    84    1
    94    80    78   ar
    95    80    82   ar
    96    96   103   am
    97    78    77   ar
    98    84    83    1
    99    84    85    1
   100    72    73    1
   101    82    81   ar
   102   119   121   ar
   103   119   118    1
   104   103   104    1
   105    73    76    1
   106    73    74    1
   107    77    76    1
   108    77    79   ar
   109    85    86    2
   110   118   115    1
   111   104   107    1
   112   104   105    1
   113   110   112   ar
   114   110   108   ar
   115    81    79   ar
   116   115   114    1
   117   115   116    1
   118   112   113   ar
   119   107   108    1
   120    74    75    2
   121   117   116    2
   122   108   109   ar
   123   105   106    2
   124   113   111   ar
   125   109   111   ar
