@<TRIPOS>MOLECULE
tmp/6au2A00.pdb
 126 124 0 0 0
SMALL
GASTEIGER

@<TRIPOS>ATOM
      1  N         20.4660   63.6150    9.9230 N.3   106  PHE106     -0.1227
      2  CA        19.9560   62.6100    9.0240 C.3   106  PHE106      0.1736
      3  C         21.0310   62.2860    7.9910 C.2   106  PHE106      0.2595
      4  O         21.3530   63.1150    7.1290 O.2   106  PHE106     -0.2718
      5  CB        18.7000   63.1190    8.3170 C.3   106  PHE106      0.0547
      6  CG        17.4960   63.3630    9.2060 C.ar  106  PHE106     -0.0202
      7  CD1       17.3550   62.7990   10.4820 C.ar  106  PHE106     -0.0042
      8  CD2       16.4460   64.1460    8.7170 C.ar  106  PHE106     -0.0042
      9  CE1       16.1910   62.9950   11.2340 C.ar  106  PHE106     -0.0003
     10  CE2       15.2950   64.3580    9.4760 C.ar  106  PHE106     -0.0003
     11  CZ        15.1690   63.7850   10.7300 C.ar  106  PHE106     -0.0000
     12  N         21.6080   61.0970    8.0870 N.am  107  PHE107     -0.1962
     13  CA        22.7070   60.6930    7.1960 C.3   107  PHE107      0.1771
     14  C         22.1710   60.2450    5.8520 C.2   107  PHE107      0.2619
     15  O         20.9990   59.8530    5.7320 O.2   107  PHE107     -0.2715
     16  CB        23.5170   59.5660    7.8180 C.3   107  PHE107      0.0574
     17  CG        24.3580   59.9920    8.9830 C.ar  107  PHE107     -0.0200
     18  CD1       25.6290   60.4860    8.7890 C.ar  107  PHE107     -0.0042
     19  CD2       23.8860   59.8800   10.2720 C.ar  107  PHE107     -0.0042
     20  CE1       26.4210   60.8420    9.8640 C.ar  107  PHE107     -0.0003
     21  CE2       24.6510   60.2540   11.3540 C.ar  107  PHE107     -0.0003
     22  CZ        25.9430   60.7150   11.1540 C.ar  107  PHE107     -0.0000
     23  N         23.0240   60.3150    4.8320 N.am  108  ASP108     -0.1971
     24  CA        22.5850   60.0860    3.4490 C.3   108  ASP108      0.1709
     25  C         22.0180   58.7020    3.1880 C.2   108  ASP108      0.2293
     26  O         21.2850   58.5400    2.2300 O.2   108  ASP108     -0.2864
     27  CB        23.7510   60.2820    2.4880 C.3   108  ASP108      0.1436
     28  CG        24.1470   61.7300    2.3110 C.2   108  ASP108      0.3671
     29  OD1       23.7410   62.6070    3.0970 O.co2 108  ASP108     -0.2456
     30  OD2       24.9180   62.0010    1.3630 O.co2 108  ASP108     -0.2456
     31  N         20.0660   56.9990    5.2730 N.3   110  GLY110     -0.1210
     32  CA        18.8460   56.7820    6.0250 C.3   110  GLY110      0.1956
     33  C         18.9770   56.5740    7.5320 C.2   110  GLY110      0.2612
     34  O         17.9610   56.3660    8.1830 O.2   110  GLY110     -0.2717
     35  N         20.2040   56.5930    8.0620 N.am  111  TYR111     -0.1962
     36  CA        20.4820   56.5020    9.5120 C.3   111  TYR111      0.1771
     37  C         20.2590   57.8930   10.1220 C.2   111  TYR111      0.2619
     38  O         20.3570   58.9140    9.4270 O.2   111  TYR111     -0.2715
     39  CB        21.9380   56.0350    9.7230 C.3   111  TYR111      0.0574
     40  CG        22.4770   55.8160   11.1530 C.ar  111  TYR111     -0.0198
     41  CD1       22.2790   54.6140   11.8400 C.ar  111  TYR111     -0.0009
     42  CD2       23.2790   56.7780   11.7620 C.ar  111  TYR111     -0.0009
     43  CE1       22.8120   54.4270   13.1200 C.ar  111  TYR111      0.0417
     44  CE2       23.8190   56.5990   13.0220 C.ar  111  TYR111      0.0417
     45  CZ        23.5900   55.4320   13.7030 C.ar  111  TYR111      0.1957
     46  OH        24.1510   55.3010   14.9600 O.3   111  TYR111     -0.2866
     47  N         19.9390   57.9230   11.4110 N.am  112  ALA112     -0.1977
     48  CA        19.7850   59.1800   12.1460 C.3   112  ALA112      0.1597
     49  C         20.4650   59.0500   13.4880 C.2   112  ALA112      0.2287
     50  O         20.4020   57.9970   14.1150 O.2   112  ALA112     -0.2864
     51  CB        18.3280   59.5030   12.3560 C.3   112  ALA112      0.0319
     52  N         22.0250   64.0030   -2.4830 N.3   134  ILE134     -0.1245
     53  CA        21.6910   62.7580   -1.7770 C.3   134  ILE134      0.1561
     54  C         21.3050   61.7500   -2.8690 C.2   134  ILE134      0.2260
     55  O         20.3960   62.0110   -3.6570 O.2   134  ILE134     -0.2867
     56  CB        20.5750   62.9570   -0.7460 C.3   134  ILE134      0.0252
     57  CG1       21.0330   63.9300    0.3550 C.3   134  ILE134      0.0019
     58  CG2       20.1630   61.6180   -0.1090 C.3   134  ILE134      0.0019
     59  CD1       19.9180   64.3380    1.3040 C.3   134  ILE134      0.0001
     60  N         14.3730   58.3650   -2.7220 N.3   138  SER138     -0.1202
     61  CA        13.4500   58.3090   -1.5870 C.3   138  SER138      0.2020
     62  C         14.0310   59.0680   -0.3940 C.2   138  SER138      0.2619
     63  O         13.2930   59.8120    0.2790 O.2   138  SER138     -0.2717
     64  CB        13.0910   56.8680   -1.2120 C.3   138  SER138      0.2103
     65  OG        14.2370   56.1330   -0.8570 O.3   138  SER138     -0.2182
     66  N         15.3370   58.9070   -0.1590 N.am  139  CYS139     -0.1969
     67  CA        16.0330   59.6580    0.8970 C.3   139  CYS139      0.1712
     68  C         16.0120   61.1600    0.5730 C.2   139  CYS139      0.2296
     69  O         15.6990   61.9980    1.4260 O.2   139  CYS139     -0.2864
     70  CB        17.4940   59.1950    1.0430 C.3   139  CYS139      0.0983
     71  SG        17.7410   57.4310    1.4250 S.3   139  CYS139     -0.0798
     72  N         12.4620   62.7590    0.9190 N.3   142  PHE142     -0.1227
     73  CA        12.1410   62.8980    2.3420 C.3   142  PHE142      0.1736
     74  C         12.8190   64.1420    2.9310 C.2   142  PHE142      0.2595
     75  O         12.1990   64.8910    3.6710 O.2   142  PHE142     -0.2718
     76  CB        12.5690   61.6820    3.1350 C.3   142  PHE142      0.0547
     77  CG        12.3170   61.8200    4.6060 C.ar  142  PHE142     -0.0202
     78  CD1       13.2500   62.4410    5.4350 C.ar  142  PHE142     -0.0042
     79  CD2       11.1130   61.3770    5.1650 C.ar  142  PHE142     -0.0042
     80  CE1       12.9980   62.5980    6.7790 C.ar  142  PHE142     -0.0003
     81  CE2       10.8690   61.5340    6.5260 C.ar  142  PHE142     -0.0003
     82  CZ        11.8170   62.1370    7.3180 C.ar  142  PHE142     -0.0000
     83  N         14.1080   64.3150    2.6520 N.am  143  ILE143     -0.1980
     84  CA        14.8370   65.4660    3.2100 C.3   143  ILE143      0.1595
     85  C         14.2870   66.7940    2.6760 C.2   143  ILE143      0.2287
     86  O         14.1560   67.7470    3.4330 O.2   143  ILE143     -0.2864
     87  CB        16.3630   65.3660    2.9380 C.3   143  ILE143      0.0276
     88  CG1       16.9760   64.1580    3.6630 C.3   143  ILE143      0.0022
     89  CG2       17.0620   66.6630    3.3380 C.3   143  ILE143      0.0022
     90  CD1       16.8960   64.1820    5.1680 C.3   143  ILE143      0.0001
     91  N         13.9060   57.9590   13.5000 N.3   199  TYR199     -0.1241
     92  CA        13.2250   59.2530   13.6590 C.3   199  TYR199      0.1605
     93  C         11.7000   59.0700   13.9010 C.2   199  TYR199      0.2264
     94  O         11.0350   58.3360   13.1710 O.2   199  TYR199     -0.2867
     95  CB        13.5040   60.1250   12.4070 C.3   199  TYR199      0.0534
     96  CG        12.7210   61.4100   12.3560 C.ar  199  TYR199     -0.0201
     97  CD1       12.8030   62.3400   13.3840 C.ar  199  TYR199     -0.0009
     98  CD2       11.9070   61.7120   11.2640 C.ar  199  TYR199     -0.0009
     99  CE1       12.0580   63.5220   13.3500 C.ar  199  TYR199      0.0417
    100  CE2       11.1620   62.8910   11.2220 C.ar  199  TYR199      0.0417
    101  CZ        11.2370   63.7880   12.2620 C.ar  199  TYR199      0.1957
    102  OH        10.4740   64.9300   12.2110 O.3   199  TYR199     -0.2866
    103  N          9.3630   59.2700   10.9400 N.3   202  SER202     -0.1202
    104  CA         9.6260   58.3500    9.8270 C.3   202  SER202      0.2020
    105  C          8.3720   57.5690    9.4640 C.2   202  SER202      0.2619
    106  O          7.7220   57.0540   10.3330 O.2   202  SER202     -0.2717
    107  CB        10.7060   57.3590   10.2130 C.3   202  SER202      0.2103
    108  OG        10.9370   56.4100    9.1680 O.3   202  SER202     -0.2182
    109  N          8.0660   57.4400    8.1660 N.am  203  THR203     -0.1938
    110  CA         6.9740   56.5540    7.7670 C.3   203  THR203      0.2028
    111  C          7.3470   55.0760    7.8860 C.2   203  THR203      0.2642
    112  O          6.4930   54.2300    7.6220 O.2   203  THR203     -0.2714
    113  CB         6.4860   56.8340    6.3390 C.3   203  THR203      0.1808
    114  OG1        7.6020   56.7540    5.4550 O.3   203  THR203     -0.2208
    115  CG2        5.8070   58.1910    6.2710 C.3   203  THR203      0.0379
    116  N          8.5860   54.7470    8.2960 N.am  204  ARG204     -0.1977
    117  CA         8.8920   53.3710    8.7250 C.3   204  ARG204      0.1597
    118  C          8.1380   52.9520    9.9950 C.2   204  ARG204      0.2287
    119  O          8.0480   51.7580   10.3000 O.2   204  ARG204     -0.2864
    120  CB        10.3920   53.1460    8.9510 C.3   204  ARG204      0.0334
    121  CG        11.2780   53.2840    7.7240 C.3   204  ARG204      0.0492
    122  CD        12.7210   53.0400    8.0870 C.3   204  ARG204      0.2205
    123  NE        12.9410   51.6670    8.5720 N.pl3 204  ARG204     -0.0865
    124  CZ        13.9780   51.2520    9.2880 C.cat 204  ARG204      0.5346
    125  NH1       14.9690   52.0910    9.6180 N.pl3 204  ARG204      0.1354
    126  NH2       14.0460   49.9980    9.6670 N.pl3 204  ARG204      0.1354
@<TRIPOS>BOND
     1    55    54    2
     2    54    53    1
     3    60    61    1
     4    52    53    1
     5    53    56    1
     6    61    64    1
     7    61    62    1
     8    64    65    1
     9    56    58    1
    10    56    57    1
    11    62    66   am
    12    62    63    2
    13    66    67    1
    14    57    59    1
    15    68    67    1
    16    68    69    2
    17    67    70    1
    18    72    73    1
    19    70    71    1
    20    30    28   ar
    21    26    25    2
    22    28    27    1
    23    28    29   ar
    24    73    74    1
    25    73    76    1
    26    27    24    1
    27    83    74   am
    28    83    84    1
    29    85    84    1
    30    85    86    2
    31    74    75    2
    32    87    84    1
    33    87    89    1
    34    87    88    1
    35    76    77    1
    36    25    24    1
    37    24    23    1
    38    88    90    1
    39    77    79   ar
    40    77    78   ar
    41    23    14   am
    42    79    81   ar
    43    31    32    1
    44    78    80   ar
    45   114   113    1
    46    15    14    2
    47    14    13    1
    48    32    33    1
    49   115   113    1
    50   113   110    1
    51    81    82   ar
    52    80    82   ar
    53     4     3    2
    54    13    16    1
    55    13    12    1
    56    33    35   am
    57    33    34    2
    58   112   111    2
    59   121   122    1
    60   121   120    1
    61   110   111    1
    62   110   109    1
    63    16    17    1
    64   111   116   am
    65     3    12   am
    66     3     2    1
    67    35    36    1
    68   122   123    1
    69   109   105   am
    70   116   117    1
    71     5     2    1
    72     5     6    1
    73   123   124    2
    74     8     6   ar
    75     8    10   ar
    76   117   120    1
    77   117   118    1
    78    18    17   ar
    79    18    20   ar
    80    17    19   ar
    81     2     1    1
    82   108   107    1
    83     6     7   ar
    84   124   125    1
    85   124   126    1
    86    38    37    2
    87   105   104    1
    88   105   106    2
    89    10    11   ar
    90    36    39    1
    91    36    37    1
    92    39    40    1
    93   104   107    1
    94   104   103    1
    95    20    22   ar
    96   118   119    2
    97    37    47   am
    98    19    21   ar
    99     7     9   ar
   100    11     9   ar
   101    40    42   ar
   102    40    41   ar
   103    22    21   ar
   104   100    98   ar
   105   100   101   ar
   106    98    96   ar
   107    47    48    1
   108    42    44   ar
   109    41    43   ar
   110    48    51    1
   111    48    49    1
   112   102   101    1
   113   101    99   ar
   114    96    95    1
   115    96    97   ar
   116    95    92    1
   117    44    45   ar
   118    43    45   ar
   119    94    93    2
   120    99    97   ar
   121    49    50    2
   122    91    92    1
   123    92    93    1
   124    45    46    1
