@<TRIPOS>MOLECULE
tmp/6au3A00.pdb
 149 150 0 0 0
SMALL
GASTEIGER

@<TRIPOS>ATOM
      1  N         20.7540   63.6970    9.8830 N.3   103  PHE103     -0.1227
      2  CA        20.2390   62.6620    8.9730 C.3   103  PHE103      0.1736
      3  C         21.3590   62.3940    7.9480 C.2   103  PHE103      0.2595
      4  O         21.6800   63.2590    7.1080 O.2   103  PHE103     -0.2718
      5  CB        18.9820   63.1200    8.2370 C.3   103  PHE103      0.0547
      6  CG        17.7390   63.2690    9.0950 C.ar  103  PHE103     -0.0202
      7  CD1       17.6180   62.6550   10.3530 C.ar  103  PHE103     -0.0042
      8  CD2       16.6750   64.0150    8.6230 C.ar  103  PHE103     -0.0042
      9  CE1       16.4520   62.8150   11.1020 C.ar  103  PHE103     -0.0003
     10  CE2       15.5030   64.1760    9.3880 C.ar  103  PHE103     -0.0003
     11  CZ        15.4090   63.5430   10.6010 C.ar  103  PHE103     -0.0000
     12  N         21.9830   61.2310    8.0680 N.am  104  PHE104     -0.1976
     13  CA        23.1000   60.8450    7.1850 C.3   104  PHE104      0.1639
     14  C         22.5530   60.4460    5.8170 C.2   104  PHE104      0.2290
     15  O         21.3820   60.0650    5.6800 O.2   104  PHE104     -0.2864
     16  CB        23.9230   59.7160    7.7960 C.3   104  PHE104      0.0560
     17  CG        24.7710   60.1310    8.9580 C.ar  104  PHE104     -0.0200
     18  CD1       26.0380   60.6680    8.7540 C.ar  104  PHE104     -0.0042
     19  CD2       24.3280   59.9710   10.2590 C.ar  104  PHE104     -0.0042
     20  CE1       26.8380   61.0390    9.8000 C.ar  104  PHE104     -0.0003
     21  CE2       25.1200   60.3450   11.3130 C.ar  104  PHE104     -0.0003
     22  CZ        26.3720   60.8750   11.1010 C.ar  104  PHE104     -0.0000
     23  N         22.8670   57.8870    4.0450 N.3   106  ASP106     -0.1225
     24  CA        22.3660   56.4960    3.9530 C.3   106  ASP106      0.1805
     25  C         21.0580   56.2650    4.7400 C.2   106  ASP106      0.2598
     26  O         20.5480   55.1420    4.7770 O.2   106  ASP106     -0.2718
     27  CB        23.4620   55.5270    4.4030 C.3   106  ASP106      0.1424
     28  CG        23.7340   55.5670    5.8950 C.2   106  ASP106      0.3668
     29  OD1       23.2680   56.4860    6.6220 O.co2 106  ASP106     -0.2456
     30  OD2       24.4330   54.6550    6.3620 O.co2 106  ASP106     -0.2456
     31  N         20.5200   57.3100    5.3720 N.am  107  GLY107     -0.1942
     32  CA        19.2730   57.1920    6.1390 C.3   107  GLY107      0.2014
     33  C         19.4530   57.0170    7.6430 C.2   107  GLY107      0.2639
     34  O         18.4750   57.1230    8.3690 O.2   107  GLY107     -0.2714
     35  N         20.6730   56.7920    8.1180 N.am  108  TYR108     -0.1959
     36  CA        20.9490   56.7170    9.5680 C.3   108  TYR108      0.1771
     37  C         20.6990   58.0940   10.2580 C.2   108  TYR108      0.2619
     38  O         20.9690   59.1630    9.6690 O.2   108  TYR108     -0.2715
     39  CB        22.3830   56.2280    9.7600 C.3   108  TYR108      0.0574
     40  CG        22.8360   55.9640   11.1620 C.ar  108  TYR108     -0.0198
     41  CD1       22.3690   54.8520   11.8800 C.ar  108  TYR108     -0.0009
     42  CD2       23.7920   56.7850   11.7660 C.ar  108  TYR108     -0.0009
     43  CE1       22.8110   54.6080   13.1860 C.ar  108  TYR108      0.0417
     44  CE2       24.2500   56.5450   13.0500 C.ar  108  TYR108      0.0417
     45  CZ        23.7540   55.4640   13.7620 C.ar  108  TYR108      0.1957
     46  OH        24.2290   55.2610   15.0400 O.3   108  TYR108     -0.2866
     47  N         20.1270   58.0750   11.4680 N.am  109  ALA109     -0.1977
     48  CA        19.8450   59.2970   12.2270 C.3   109  ALA109      0.1597
     49  C         20.5280   59.2460   13.5640 C.2   109  ALA109      0.2287
     50  O         20.4640   58.2250   14.2440 O.2   109  ALA109     -0.2864
     51  CB        18.3390   59.5320   12.4030 C.3   109  ALA109      0.0319
     52  N         14.7040   58.2850   -2.9040 N.3   135  SER135     -0.1202
     53  CA        13.7760   58.1850   -1.7670 C.3   135  SER135      0.2020
     54  C         14.2890   59.0380   -0.5980 C.2   135  SER135      0.2619
     55  O         13.5080   59.7550    0.0650 O.2   135  SER135     -0.2717
     56  CB        13.5790   56.7310   -1.3190 C.3   135  SER135      0.2103
     57  OG        14.7490   56.2030   -0.7210 O.3   135  SER135     -0.2182
     58  N         15.5950   58.9390   -0.3560 N.am  136  CYS136     -0.1969
     59  CA        16.2460   59.6870    0.7230 C.3   136  CYS136      0.1712
     60  C         16.2370   61.1890    0.4380 C.2   136  CYS136      0.2296
     61  O         15.9040   61.9910    1.3170 O.2   136  CYS136     -0.2864
     62  CB        17.6730   59.1880    0.9510 C.3   136  CYS136      0.0983
     63  SG        17.7360   57.4550    1.5080 S.3   136  CYS136     -0.0798
     64  N         12.7180   62.6880    0.9010 N.3   139  PHE139     -0.1227
     65  CA        12.3450   62.8220    2.3130 C.3   139  PHE139      0.1736
     66  C         13.0060   64.0820    2.8900 C.2   139  PHE139      0.2595
     67  O         12.3670   64.8640    3.5880 O.2   139  PHE139     -0.2718
     68  CB        12.7360   61.6010    3.1600 C.3   139  PHE139      0.0547
     69  CG        12.6410   61.8690    4.6260 C.ar  139  PHE139     -0.0202
     70  CD1       11.3940   61.9540    5.2440 C.ar  139  PHE139     -0.0042
     71  CD2       13.7650   62.1290    5.3670 C.ar  139  PHE139     -0.0042
     72  CE1       11.2870   62.2520    6.5920 C.ar  139  PHE139     -0.0003
     73  CE2       13.6670   62.4290    6.7110 C.ar  139  PHE139     -0.0003
     74  CZ        12.4240   62.4920    7.3220 C.ar  139  PHE139     -0.0000
     75  N         14.2980   64.2480    2.6000 N.am  140  ILE140     -0.1980
     76  CA        15.0500   65.3800    3.1410 C.3   140  ILE140      0.1595
     77  C         14.4880   66.7090    2.6100 C.2   140  ILE140      0.2287
     78  O         14.2880   67.6320    3.3780 O.2   140  ILE140     -0.2864
     79  CB        16.5630   65.2470    2.8560 C.3   140  ILE140      0.0276
     80  CG1       17.1560   64.0180    3.5710 C.3   140  ILE140      0.0022
     81  CG2       17.2970   66.5230    3.2400 C.3   140  ILE140      0.0022
     82  CD1       17.1610   64.0970    5.0670 C.3   140  ILE140      0.0001
     83  N         16.8790   49.4890   16.4940 N.3   193  GLU193     -0.1231
     84  CA        17.2580   50.5770   15.6000 C.3   193  GLU193      0.1699
     85  C         16.7030   51.8780   16.1350 C.2   193  GLU193      0.2592
     86  O         15.5740   51.8870   16.6350 O.2   193  GLU193     -0.2718
     87  CB        16.6330   50.3330   14.2080 C.3   193  GLU193      0.0402
     88  CG        17.0770   51.2870   13.1200 C.3   193  GLU193      0.1161
     89  CD        16.2460   51.1730   11.8320 C.2   193  GLU193      0.3649
     90  OE1       15.4250   50.2210   11.7090 O.co2 193  GLU193     -0.2457
     91  OE2       16.3980   52.0650   10.9480 O.co2 193  GLU193     -0.2457
     92  N         17.4630   52.9720   16.0060 N.am  194  TRP194     -0.1962
     93  CA        16.9430   54.3120   16.2650 C.3   194  TRP194      0.1771
     94  C         16.2940   54.8940   15.0270 C.2   194  TRP194      0.2619
     95  O         16.9310   54.9490   13.9810 O.2   194  TRP194     -0.2715
     96  CB        18.0760   55.2460   16.6990 C.3   194  TRP194      0.0590
     97  CG        18.5800   54.9800   18.0720 C.ar  194  TRP194      0.0006
     98  CD1       19.6550   54.2290   18.4280 C.ar  194  TRP194      0.0946
     99  CD2       17.9960   55.4610   19.2930 C.ar  194  TRP194      0.0152
    100  NE1       19.8140   54.2570   19.8000 N.ar  194  TRP194     -0.2442
    101  CE2       18.8060   55.0140   20.3470 C.ar  194  TRP194      0.0810
    102  CE3       16.8830   56.2600   19.5840 C.ar  194  TRP194      0.0012
    103  CZ2       18.5260   55.3200   21.6860 C.ar  194  TRP194      0.0191
    104  CZ3       16.6070   56.5570   20.8920 C.ar  194  TRP194      0.0001
    105  CH2       17.4380   56.0960   21.9330 C.ar  194  TRP194      0.0015
    106  N         15.0480   55.3460   15.1280 N.am  195  ILE195     -0.1963
    107  CA        14.2370   55.8440   14.0310 C.3   195  ILE195      0.1727
    108  C         13.6400   57.2080   14.3670 C.2   195  ILE195      0.2616
    109  O         13.2320   57.4530   15.5220 O.2   195  ILE195     -0.2715
    110  CB        13.0890   54.8490   13.6880 C.3   195  ILE195      0.0290
    111  CG1       13.7010   53.4790   13.3370 C.3   195  ILE195      0.0022
    112  CG2       12.1490   55.4090   12.6180 C.3   195  ILE195      0.0023
    113  CD1       12.6830   52.4020   13.0470 C.3   195  ILE195      0.0001
    114  N         13.6190   58.1210   13.3820 N.am  196  TYR196     -0.1974
    115  CA        13.0450   59.4350   13.5460 C.3   196  TYR196      0.1639
    116  C         11.5320   59.2740   13.8150 C.2   196  TYR196      0.2290
    117  O         10.8500   58.5260   13.0900 O.2   196  TYR196     -0.2864
    118  CB        13.3120   60.3000   12.2770 C.3   196  TYR196      0.0560
    119  CG        12.5310   61.5760   12.2140 C.ar  196  TYR196     -0.0198
    120  CD1       12.6670   62.5530   13.2200 C.ar  196  TYR196     -0.0009
    121  CD2       11.6790   61.8430   11.1670 C.ar  196  TYR196     -0.0009
    122  CE1       11.9130   63.7210   13.1630 C.ar  196  TYR196      0.0417
    123  CE2       10.9410   63.0220   11.1010 C.ar  196  TYR196      0.0417
    124  CZ        11.0630   63.9410   12.1270 C.ar  196  TYR196      0.1957
    125  OH        10.3290   65.0800   12.0950 O.3   196  TYR196     -0.2866
    126  N          9.0050   59.4550   10.9500 N.3   199  SER199     -0.1202
    127  CA         9.0820   58.4410    9.8820 C.3   199  SER199      0.2020
    128  C          7.7660   57.7410    9.6110 C.2   199  SER199      0.2619
    129  O          7.0920   57.3050   10.5170 O.2   199  SER199     -0.2717
    130  CB        10.1120   57.3820   10.2230 C.3   199  SER199      0.2103
    131  OG        10.1730   56.3630    9.2050 O.3   199  SER199     -0.2182
    132  N          7.4020   57.6000    8.3310 N.am  200  THR200     -0.1938
    133  CA         6.2170   56.8250    7.9620 C.3   200  THR200      0.2028
    134  C          6.4080   55.3110    8.1820 C.2   200  THR200      0.2642
    135  O          5.4350   54.5440    8.1220 O.2   200  THR200     -0.2714
    136  CB         5.8230   57.1020    6.4920 C.3   200  THR200      0.1808
    137  OG1        6.9810   56.9760    5.6880 O.3   200  THR200     -0.2208
    138  CG2        5.2770   58.4860    6.3630 C.3   200  THR200      0.0379
    139  N          7.6290   54.8900    8.4960 N.am  201  ARG201     -0.1977
    140  CA         7.8890   53.5120    8.9130 C.3   201  ARG201      0.1597
    141  C          7.2500   53.0820   10.2330 C.2   201  ARG201      0.2287
    142  O          7.2030   51.8770   10.5250 O.2   201  ARG201     -0.2864
    143  CB         9.3740   53.2430    8.9790 C.3   201  ARG201      0.0334
    144  CG        10.0720   53.3640    7.6230 C.3   201  ARG201      0.0492
    145  CD        11.5550   53.2140    7.8050 C.3   201  ARG201      0.2205
    146  NE        11.9390   51.9190    8.3830 N.pl3 201  ARG201     -0.0865
    147  CZ        13.0630   51.7010    9.0660 C.cat 201  ARG201      0.5346
    148  NH1       13.9360   52.6910    9.2900 N.pl3 201  ARG201      0.1354
    149  NH2       13.3210   50.5140    9.5630 N.pl3 201  ARG201      0.1354
@<TRIPOS>BOND
     1    52    53    1
     2    53    56    1
     3    53    54    1
     4    56    57    1
     5    54    58   am
     6    54    55    2
     7    58    59    1
     8    60    59    1
     9    60    61    2
    10    59    62    1
    11    64    65    1
    12    62    63    1
    13    65    66    1
    14    65    68    1
    15    75    66   am
    16    75    76    1
    17    77    76    1
    18    77    78    2
    19    79    76    1
    20    79    81    1
    21    79    80    1
    22    66    67    2
    23    68    69    1
    24    80    82    1
    25    24    23    1
    26    24    27    1
    27    24    25    1
    28    27    28    1
    29    69    70   ar
    30    69    71   ar
    31    25    26    2
    32    25    31   am
    33    70    72   ar
    34    71    73   ar
    35    31    32    1
    36    15    14    2
    37   137   136    1
    38    14    13    1
    39    28    30   ar
    40    28    29   ar
    41    32    33    1
    42   138   136    1
    43   136   133    1
    44    72    74   ar
    45    73    74   ar
    46     4     3    2
    47    13    16    1
    48    13    12    1
    49   144   145    1
    50   144   143    1
    51    33    35   am
    52    33    34    2
    53    16    17    1
    54   145   146    1
    55     3    12   am
    56     3     2    1
    57   133   134    1
    58   133   132    1
    59    35    36    1
    60   135   134    2
    61   134   139   am
    62     5     2    1
    63     5     6    1
    64   132   128   am
    65   146   147    2
    66   139   140    1
    67     8     6   ar
    68     8    10   ar
    69    18    17   ar
    70    18    20   ar
    71   140   143    1
    72   140   141    1
    73    17    19   ar
    74     2     1    1
    75   147   148    1
    76   147   149    1
    77     6     7   ar
    78   131   130    1
    79    10    11   ar
    80    36    39    1
    81    36    37    1
    82   128   127    1
    83   128   129    2
    84    38    37    2
    85    39    40    1
    86    20    22   ar
    87   127   130    1
    88   127   126    1
    89   141   142    2
    90    37    47   am
    91    19    21   ar
    92     7     9   ar
    93    11     9   ar
    94    91    89   ar
    95    22    21   ar
    96   123   121   ar
    97   123   124   ar
    98    40    42   ar
    99    40    41   ar
   100   121   119   ar
   101    47    48    1
   102    90    89   ar
   103    42    44   ar
   104    89    88    1
   105    41    43   ar
   106   125   124    1
   107   124   122   ar
   108   119   118    1
   109   119   120   ar
   110    48    51    1
   111    48    49    1
   112   118   115    1
   113   112   110    1
   114   113   111    1
   115    44    45   ar
   116   117   116    2
   117    88    87    1
   118   122   120   ar
   119    43    45   ar
   120   111   110    1
   121   114   115    1
   122   114   108   am
   123   115   116    1
   124    49    50    2
   125   110   107    1
   126    45    46    1
   127    95    94    2
   128   107   108    1
   129   107   106    1
   130    87    84    1
   131   108   109    2
   132    94   106   am
   133    94    93    1
   134    84    85    1
   135    84    83    1
   136    92    85   am
   137    92    93    1
   138    85    86    2
   139    93    96    1
   140    96    97    1
   141    97    98   ar
   142    97    99   ar
   143    98   100   ar
   144    99   102   ar
   145    99   101   ar
   146   102   104   ar
   147   100   101   ar
   148   101   103   ar
   149   104   105   ar
   150   103   105   ar
