@<TRIPOS>MOLECULE
tmp/6au6A00.pdb
 173 165 0 0 0
SMALL
GASTEIGER

@<TRIPOS>ATOM
      1  N          5.9190   -0.7640  -14.6120 N.3    12  GLY12      -0.1210
      2  CA         5.4250   -0.8850  -15.9710 C.3    12  GLY12       0.1956
      3  C          3.9470   -1.2440  -15.9980 C.2    12  GLY12       0.2612
      4  O          3.4600   -2.0320  -15.1830 O.2    12  GLY12      -0.2717
      5  N          3.2260   -0.6180  -16.9320 N.am   13  GLU13      -0.1965
      6  CA         1.8080   -0.8520  -17.2200 C.3    13  GLU13       0.1733
      7  C          0.8810   -0.3780  -16.1080 C.2    13  GLU13       0.2617
      8  O         -0.3010   -0.7410  -16.0810 O.2    13  GLU13      -0.2715
      9  CB         1.5360   -2.3250  -17.5460 C.3    13  GLU13       0.0429
     10  CG         1.9430   -2.6820  -18.9560 C.3    13  GLU13       0.1163
     11  CD         1.9310   -4.1690  -19.2040 C.2    13  GLU13       0.3649
     12  OE1        2.6730   -4.8740  -18.4910 O.co2  13  GLU13      -0.2457
     13  OE2        1.1840   -4.6250  -20.0990 O.co2  13  GLU13      -0.2457
     14  N          1.3660    0.4740  -15.2110 N.am   14  SER14      -0.1936
     15  CA         0.5060    0.9220  -14.1220 C.3    14  SER14       0.2055
     16  C         -0.4960    1.9850  -14.5630 C.2    14  SER14       0.2644
     17  O         -1.5820    2.0690  -13.9800 O.2    14  SER14      -0.2714
     18  CB         1.3510    1.4390  -12.9540 C.3    14  SER14       0.2130
     19  OG         2.2310    2.4870  -13.3330 O.3    14  SER14      -0.2179
     20  N         -0.1590    2.7980  -15.5670 N.am   15  GLY15      -0.1939
     21  CA        -1.0540    3.8330  -16.0660 C.3    15  GLY15       0.2014
     22  C         -0.4420    5.2150  -16.2620 C.2    15  GLY15       0.2639
     23  O         -1.1660    6.1760  -16.5360 O.2    15  GLY15      -0.2714
     24  N          0.8840    5.3300  -16.1810 N.am   16  LYS16      -0.1963
     25  CA         1.5250    6.6450  -16.2060 C.3    16  LYS16       0.1728
     26  C          1.3180    7.3510  -17.5430 C.2    16  LYS16       0.2617
     27  O          0.9070    8.5160  -17.5950 O.2    16  LYS16      -0.2715
     28  CB         3.0160    6.4940  -15.9140 C.3    16  LYS16       0.0311
     29  CG         3.3400    5.8340  -14.5800 C.3    16  LYS16       0.0038
     30  CD         4.8420    5.6920  -14.3790 C.3    16  LYS16       0.0206
     31  CE         5.4940    4.7820  -15.4130 C.3    16  LYS16       0.1093
     32  NZ         4.9460    3.4060  -15.3730 N.3    16  LYS16      -0.1314
     33  N          1.6400    6.6740  -18.6410 N.am   17  SER17      -0.1936
     34  CA         1.4980    7.3030  -19.9410 C.3    17  SER17       0.2055
     35  C          0.0430    7.6010  -20.2370 C.2    17  SER17       0.2643
     36  O         -0.2610    8.5800  -20.9220 O.2    17  SER17      -0.2714
     37  CB         2.1190    6.4100  -21.0080 C.3    17  SER17       0.2130
     38  OG         3.5090    6.2690  -20.7580 O.3    17  SER17      -0.2179
     39  N         -0.8690    6.7910  -19.6960 N.am   18  THR18      -0.1950
     40  CA        -2.2890    7.0560  -19.8880 C.3    18  THR18       0.1897
     41  C         -2.6870    8.3600  -19.2050 C.2    18  THR18       0.2313
     42  O         -3.4630    9.1450  -19.7550 O.2    18  THR18      -0.2863
     43  CB        -3.1080    5.8800  -19.3500 C.3    18  THR18       0.1794
     44  OG1       -2.6360    4.6610  -19.9380 O.3    18  THR18      -0.2208
     45  CG2       -4.5710    6.0310  -19.6760 C.3    18  THR18       0.0378
     46  N         -1.6690   11.1590  -21.3860 N.3    21  LYS21      -0.1245
     47  CA        -2.6310   11.2930  -22.4720 C.3    21  LYS21       0.1561
     48  C         -3.8530   12.0880  -22.0270 C.2    21  LYS21       0.2260
     49  O         -4.3470   12.9410  -22.7720 O.2    21  LYS21      -0.2867
     50  CB        -3.0530    9.9190  -22.9900 C.3    21  LYS21       0.0271
     51  CG        -1.9260    9.1640  -23.6800 C.3    21  LYS21       0.0035
     52  CD        -2.3530    7.7750  -24.1020 C.3    21  LYS21       0.0206
     53  CE        -1.1590    6.9260  -24.4940 C.3    21  LYS21       0.1093
     54  NZ        -1.5710    5.5430  -24.8750 N.3    21  LYS21      -0.1314
     55  N         -3.6660   -5.4530  -20.9180 N.3   122  ASP122     -0.1225
     56  CA        -4.9570   -5.2760  -20.2560 C.3   122  ASP122      0.1805
     57  C         -6.0600   -4.8640  -21.2140 C.2   122  ASP122      0.2598
     58  O         -7.2420   -5.0900  -20.9290 O.2   122  ASP122     -0.2718
     59  CB        -4.8290   -4.2190  -19.1590 C.3   122  ASP122      0.1424
     60  CG        -4.3550   -4.8010  -17.8690 C.2   122  ASP122      0.3668
     61  OD1       -4.0880   -6.0210  -17.8320 O.co2 122  ASP122     -0.2456
     62  OD2       -4.2470   -4.0330  -16.9030 O.co2 122  ASP122     -0.2456
     63  N         -5.7120   -4.2280  -22.3190 N.am  123  CYS123     -0.1970
     64  CA        -6.6960   -3.7500  -23.2780 C.3   123  CYS123      0.1712
     65  C         -7.1990   -4.8490  -24.2150 C.2   123  CYS123      0.2296
     66  O         -7.9610   -4.5460  -25.1400 O.2   123  CYS123     -0.2864
     67  CB        -6.1020   -2.6180  -24.1050 C.3   123  CYS123      0.0983
     68  SG        -4.6240   -3.1240  -25.0130 S.3   123  CYS123     -0.0798
     69  N         -6.7310    6.0230  -25.7330 N.3   147  LEU147     -0.1231
     70  CA        -6.3810    5.8990  -24.3200 C.3   147  LEU147      0.1693
     71  C         -6.1600    4.4490  -23.9170 C.2   147  LEU147      0.2592
     72  O         -5.3140    4.1600  -23.0640 O.2   147  LEU147     -0.2718
     73  CB        -7.4820    6.5060  -23.4570 C.3   147  LEU147      0.0284
     74  CG        -7.5030    8.0340  -23.4430 C.3   147  LEU147      0.0019
     75  CD1       -8.8850    8.5490  -23.0760 C.3   147  LEU147      0.0001
     76  CD2       -6.4470    8.5520  -22.4860 C.3   147  LEU147      0.0001
     77  N         -6.9370    3.5300  -24.4820 N.am  148  ARG148     -0.1966
     78  CA        -6.7980    2.1190  -24.1470 C.3   148  ARG148      0.1729
     79  C         -5.5820    1.4960  -24.8030 C.2   148  ARG148      0.2616
     80  O         -5.1110    0.4560  -24.3410 O.2   148  ARG148     -0.2715
     81  CB        -8.0460    1.3530  -24.5670 C.3   148  ARG148      0.0348
     82  CG        -9.3100    1.8210  -23.9020 C.3   148  ARG148      0.0492
     83  CD        -9.6530    1.0120  -22.6620 C.3   148  ARG148      0.2205
     84  NE       -10.9700    1.4020  -22.1720 N.pl3 148  ARG148     -0.0865
     85  CZ       -11.7700    0.6430  -21.4310 C.cat 148  ARG148      0.5346
     86  NH1      -11.4020   -0.5800  -21.0630 N.pl3 148  ARG148      0.1354
     87  NH2      -12.9480    1.1220  -21.0560 N.pl3 148  ARG148      0.1354
     88  N         -5.0730    2.1150  -25.8590 N.am  149  CYS149     -0.1954
     89  CA        -3.9240    1.5950  -26.5730 C.3   149  CYS149      0.1843
     90  C         -2.7340    1.4380  -25.6300 C.2   149  CYS149      0.2626
     91  O         -2.4490    2.3170  -24.8110 O.2   149  CYS149     -0.2714
     92  CB        -3.6020    2.5400  -27.7280 C.3   149  CYS149      0.0997
     93  SG        -2.3730    1.9380  -28.8580 S.3   149  CYS149     -0.0797
     94  N         -2.0560    0.2970  -25.7240 N.am  150  CYS150     -0.1954
     95  CA        -0.9360   -0.0400  -24.8480 C.3   150  CYS150      0.1843
     96  C          0.3470    0.0350  -25.6690 C.2   150  CYS150      0.2625
     97  O          0.6360   -0.8610  -26.4670 O.2   150  CYS150     -0.2714
     98  CB        -1.1180   -1.4280  -24.2420 C.3   150  CYS150      0.0997
     99  SG         0.1280   -1.8980  -23.0140 S.3   150  CYS150     -0.0797
    100  N          1.1160    1.1010  -25.4620 N.am  151  VAL151     -0.1963
    101  CA         2.4050    1.2990  -26.1250 C.3   151  VAL151      0.1727
    102  C          3.4090    1.6190  -25.0260 C.2   151  VAL151      0.2616
    103  O          3.4210    2.7330  -24.4880 O.2   151  VAL151     -0.2715
    104  CB         2.3530    2.4040  -27.1820 C.3   151  VAL151      0.0290
    105  CG1        3.7430    2.6790  -27.7470 C.3   151  VAL151      0.0023
    106  CG2        1.3870    2.0060  -28.3000 C.3   151  VAL151      0.0023
    107  N          4.2500    0.6430  -24.6860 N.am  152  LEU152     -0.1977
    108  CA         5.1200    0.7380  -23.5190 C.3   152  LEU152      0.1596
    109  C          6.5190    1.1870  -23.9370 C.2   152  LEU152      0.2287
    110  O          7.5070    0.4570  -23.8390 O.2   152  LEU152     -0.2864
    111  CB         5.1600   -0.6010  -22.7880 C.3   152  LEU152      0.0297
    112  CG         3.7860   -1.1740  -22.4280 C.3   152  LEU152      0.0022
    113  CD1        3.9330   -2.5560  -21.8070 C.3   152  LEU152      0.0001
    114  CD2        3.0300   -0.2270  -21.4960 C.3   152  LEU152      0.0001
    115  N          6.5070   11.6360  -17.0870 N.3   172  ASP172     -0.1239
    116  CA         6.1220   10.2300  -17.1870 C.3   172  ASP172      0.1674
    117  C          7.4180    9.4360  -17.1480 C.2   172  ASP172      0.2266
    118  O          8.1080    9.3030  -18.1570 O.2   172  ASP172     -0.2867
    119  CB         5.3100   10.0240  -18.4640 C.3   172  ASP172      0.1410
    120  CG         5.1020    8.5630  -18.8360 C.2   172  ASP172      0.3668
    121  OD1        5.3540    7.6590  -18.0100 O.co2 172  ASP172     -0.2456
    122  OD2        4.6660    8.3250  -19.9930 O.co2 172  ASP172     -0.2456
    123  N         -5.0200    2.7840   -9.3810 N.3   241  ASN241     -0.1225
    124  CA        -5.5610    2.9020  -10.7230 C.3   241  ASN241      0.1785
    125  C         -6.2040    1.5840  -11.1670 C.2   241  ASN241      0.2597
    126  O         -6.1400    0.5600  -10.4820 O.2   241  ASN241     -0.2718
    127  CB        -4.4390    3.3360  -11.6620 C.3   241  ASN241      0.1169
    128  CG        -4.9280    3.7110  -13.0280 C.2   241  ASN241      0.2627
    129  OD1       -5.9420    4.3980  -13.1790 O.2   241  ASN241     -0.2716
    130  ND2       -4.1990    3.2710  -14.0470 N.am  241  ASN241     -0.0877
    131  N         -6.8210    1.6180  -12.3510 N.am  242  LYS242     -0.1980
    132  CA        -7.4780    0.4580  -12.9500 C.3   242  LYS242      0.1596
    133  C         -8.6240   -0.0360  -12.0720 C.2   242  LYS242      0.2287
    134  O         -8.8790   -1.2320  -11.9600 O.2   242  LYS242     -0.2864
    135  CB        -6.4740   -0.6620  -13.2400 C.3   242  LYS242      0.0298
    136  CG        -5.3990   -0.2240  -14.2210 C.3   242  LYS242      0.0038
    137  CD        -4.5580   -1.3670  -14.7640 C.3   242  LYS242      0.0206
    138  CE        -3.5880   -0.8530  -15.8170 C.3   242  LYS242      0.1093
    139  NZ        -2.7650   -1.9340  -16.4300 N.3   242  LYS242     -0.1314
    140  N        -11.6840    0.1440  -12.7390 N.3   244  ASP244     -0.1225
    141  CA       -12.6920   -0.5300  -13.5500 C.3   244  ASP244      0.1805
    142  C        -12.3460   -2.0010  -13.7140 C.2   244  ASP244      0.2597
    143  O        -13.1990   -2.8790  -13.5150 O.2   244  ASP244     -0.2718
    144  CB       -12.8440    0.1640  -14.9070 C.3   244  ASP244      0.1424
    145  CG       -11.5510    0.2240  -15.7120 C.2   244  ASP244      0.3668
    146  OD1      -10.4570    0.3720  -15.1230 O.co2 244  ASP244     -0.2456
    147  OD2      -11.6400    0.1330  -16.9590 O.co2 244  ASP244     -0.2456
    148  N        -11.0890   -2.2900  -14.0540 N.am  245  LEU245     -0.1979
    149  CA       -10.6530   -3.6710  -14.2050 C.3   245  LEU245      0.1596
    150  C        -10.6370   -4.4040  -12.8770 C.2   245  LEU245      0.2287
    151  O        -10.9180   -5.6070  -12.8350 O.2   245  LEU245     -0.2864
    152  CB        -9.2660   -3.7150  -14.8370 C.3   245  LEU245      0.0297
    153  CG        -9.1590   -3.0920  -16.2230 C.3   245  LEU245      0.0022
    154  CD1       -7.7160   -3.1140  -16.6670 C.3   245  LEU245      0.0001
    155  CD2      -10.0500   -3.8270  -17.2330 C.3   245  LEU245      0.0001
    156  N         -9.3440    5.6770  -12.5160 N.3   314  CYS314     -0.1221
    157  CA        -9.4890    4.9250  -13.7550 C.3   314  CYS314      0.1808
    158  C         -8.8730    5.7880  -14.8540 C.2   314  CYS314      0.2601
    159  O         -9.5070    6.7230  -15.3440 O.2   314  CYS314     -0.2717
    160  CB       -10.9450    4.6120  -14.0230 C.3   314  CYS314      0.0970
    161  SG       -11.1450    3.7720  -15.5780 S.3   314  CYS314     -0.0800
    162  N         -7.6170    5.5040  -15.2110 N.am  315  ALA315     -0.1965
    163  CA        -6.8580    6.4460  -16.0200 C.3   315  ALA315      0.1728
    164  C         -7.4240    6.5880  -17.4230 C.2   315  ALA315      0.2616
    165  O         -7.1720    7.6060  -18.0760 O.2   315  ALA315     -0.2715
    166  CB        -5.3850    6.0350  -16.0910 C.3   315  ALA315      0.0334
    167  N         -8.1750    5.5970  -17.9050 N.am  316  VAL316     -0.1977
    168  CA        -8.7540    5.7160  -19.2410 C.3   316  VAL316      0.1596
    169  C        -10.0480    6.5130  -19.2490 C.2   316  VAL316      0.2287
    170  O        -10.5630    6.8200  -20.3270 O.2   316  VAL316     -0.2864
    171  CB        -9.0100    4.3370  -19.8760 C.3   316  VAL316      0.0276
    172  CG1       -7.6820    3.6240  -20.1460 C.3   316  VAL316      0.0022
    173  CG2       -9.9060    3.4900  -18.9920 C.3   316  VAL316      0.0022
@<TRIPOS>BOND
     1    93    92    1
     2   106   104    1
     3   105   104    1
     4    92    89    1
     5   104   101    1
     6    89    88    1
     7    89    90    1
     8    97    96    2
     9   101   100    1
    10   101   102    1
    11    88    79   am
    12    69    70    1
    13    94    90   am
    14    94    95    1
    15    96   100   am
    16    96    95    1
    17    90    91    2
    18    66    65    2
    19   102   107   am
    20   102   103    2
    21    68    67    1
    22    54    53    1
    23    95    98    1
    24    79    80    2
    25    79    78    1
    26   107   108    1
    27    81    78    1
    28    81    82    1
    29    53    52    1
    30    77    78    1
    31    77    71   am
    32    70    71    1
    33    70    73    1
    34    98    99    1
    35    65    64    1
    36    67    64    1
    37    52    51    1
    38   109   110    2
    39   109   108    1
    40    71    72    2
    41    82    83    1
    42    51    50    1
    43   108   111    1
    44    73    74    1
    45    74    75    1
    46    74    76    1
    47    64    63    1
    48    50    47    1
    49   111   112    1
    50    49    48    2
    51    83    84    1
    52    47    48    1
    53    47    46    1
    54   112   113    1
    55   112   114    1
    56    63    57   am
    57    84    85    2
    58    85    86    1
    59    85    87    1
    60    57    58    2
    61    57    56    1
    62    37    38    1
    63    37    34    1
    64    36    35    2
    65    55    56    1
    66   170   169    2
    67    56    59    1
    68    35    34    1
    69    35    39   am
    70   172   171    1
    71    13    11   ar
    72   122   120   ar
    73    34    33    1
    74    44    43    1
    75    40    39    1
    76    40    43    1
    77    40    41    1
    78   171   168    1
    79   171   173    1
    80    42    41    2
    81    45    43    1
    82   169   168    1
    83   168   167    1
    84    11    10    1
    85    11    12   ar
    86    59    60    1
    87    10     9    1
    88   120   119    1
    89   120   121   ar
    90    33    26   am
    91   119   116    1
    92   118   117    2
    93   165   164    2
    94   167   164   am
    95    60    61   ar
    96    60    62   ar
    97    27    26    2
    98     9     6    1
    99    26    25    1
   100   164   163    1
   101   155   153    1
   102     6     5    1
   103     6     7    1
   104   116   117    1
   105   116   115    1
   106   147   145   ar
   107     5     3   am
   108   154   153    1
   109    23    22    2
   110   139   138    1
   111    22    24   am
   112    22    21    1
   113   153   152    1
   114    25    24    1
   115    25    28    1
   116     7     8    2
   117     7    14   am
   118   166   163    1
   119    21    20    1
   120   163   162    1
   121     3     2    1
   122     3     4    2
   123     2     1    1
   124    28    29    1
   125   138   137    1
   126   145   146   ar
   127   145   144    1
   128   161   160    1
   129    20    16   am
   130    31    32    1
   131    31    30    1
   132   159   158    2
   133   162   158   am
   134    14    15    1
   135   144   141    1
   136   158   157    1
   137   152   149    1
   138   137   136    1
   139    29    30    1
   140    16    15    1
   141    16    17    2
   142   136   135    1
   143   149   148    1
   144   149   150    1
   145    15    18    1
   146   148   142   am
   147   130   128   am
   148   160   157    1
   149   157   156    1
   150   142   141    1
   151   142   143    2
   152   141   140    1
   153    19    18    1
   154   135   132    1
   155   129   128    2
   156   128   127    1
   157   132   131    1
   158   132   133    1
   159   150   151    2
   160   131   125   am
   161   133   134    2
   162   127   124    1
   163   125   124    1
   164   125   126    2
   165   124   123    1
