@<TRIPOS>MOLECULE
tmp/6au9A00.pdb
 162 152 0 0 0
SMALL
GASTEIGER

@<TRIPOS>ATOM
      1  N         26.6210   79.8840   60.7520 N.3   117  VAL117     -0.1245
      2  CA        27.5460   79.6450   59.6450 C.3   117  VAL117      0.1561
      3  C         27.1510   78.3480   58.9530 C.2   117  VAL117      0.2260
      4  O         26.9210   77.3350   59.6220 O.2   117  VAL117     -0.2867
      5  CB        29.0080   79.5790   60.1250 C.3   117  VAL117      0.0252
      6  CG1       29.9380   79.3750   58.9390 C.3   117  VAL117      0.0019
      7  CG2       29.3760   80.8470   60.8820 C.3   117  VAL117      0.0019
      8  N         27.7260   75.8200   55.1340 N.2   119  PRO119     -0.2584
      9  CA        28.4500   75.6190   53.8660 C.3   119  PRO119      0.1895
     10  C         27.5860   76.0320   52.6830 C.2   119  PRO119      0.2359
     11  O         26.4830   75.5110   52.4910 O.2   119  PRO119     -0.2858
     12  CB        28.7370   74.1080   53.8360 C.2   119  PRO119      0.0071
     13  CG        28.1640   73.5280   55.0430 C.2   119  PRO119      0.0180
     14  CD        27.4600   74.5610   55.8500 C.2   119  PRO119      0.0937
     15  N         34.5880   79.2170   52.5940 N.3   272  GLU272     -0.1231
     16  CA        35.9160   78.8980   53.1030 C.3   272  GLU272      0.1699
     17  C         35.9110   77.5650   53.8470 C.2   272  GLU272      0.2592
     18  O         35.6820   76.5180   53.2340 O.2   272  GLU272     -0.2718
     19  CB        36.4340   80.0370   54.0000 C.3   272  GLU272      0.0402
     20  CG        37.9550   80.0550   54.2180 C.3   272  GLU272      0.1161
     21  CD        38.3580   80.2890   55.6740 C.2   272  GLU272      0.3649
     22  OE1       37.5040   80.1580   56.5870 O.co2 272  GLU272     -0.2457
     23  OE2       39.5410   80.6080   55.9180 O.co2 272  GLU272     -0.2457
     24  N         36.1240   77.5850   55.1680 N.am  273  ASP273     -0.1960
     25  CA        36.5790   76.3680   55.8430 C.3   273  ASP273      0.1840
     26  C         35.5180   75.2780   55.9790 C.2   273  ASP273      0.2622
     27  O         35.8810   74.1380   56.3020 O.2   273  ASP273     -0.2715
     28  CB        37.1370   76.7090   57.2280 C.3   273  ASP273      0.1450
     29  CG        38.6130   77.0860   57.1790 C.2   273  ASP273      0.3671
     30  OD1       39.2170   77.2370   58.2500 O.co2 273  ASP273     -0.2456
     31  OD2       39.1660   77.2370   56.0630 O.co2 273  ASP273     -0.2456
     32  N         34.2350   75.5700   55.7610 N.am  274  SER274     -0.1950
     33  CA        33.2310   74.5170   55.8720 C.3   274  SER274      0.1924
     34  C         32.8570   73.8860   54.5300 C.2   274  SER274      0.2314
     35  O         31.9800   73.0170   54.5010 O.2   274  SER274     -0.2863
     36  CB        31.9700   75.0370   56.5750 C.3   274  SER274      0.2116
     37  OG        31.2180   75.8960   55.7380 O.3   274  SER274     -0.2180
     38  N         31.3560   84.3950   53.3630 N.3   330  ARG330     -0.1245
     39  CA        32.7550   84.2870   53.7730 C.3   330  ARG330      0.1563
     40  C         33.5680   83.8920   52.5430 C.2   330  ARG330      0.2260
     41  O         33.4370   82.7700   52.0330 O.2   330  ARG330     -0.2867
     42  CB        32.9740   83.3020   54.9240 C.3   330  ARG330      0.0307
     43  CG        34.4560   83.2620   55.3690 C.3   330  ARG330      0.0489
     44  CD        34.6490   82.7700   56.8080 C.3   330  ARG330      0.2205
     45  NE        34.3800   81.3410   56.9250 N.pl3 330  ARG330     -0.0865
     46  CZ        34.6180   80.6180   58.0170 C.cat 330  ARG330      0.5346
     47  NH1       35.1780   81.1750   59.0860 N.pl3 330  ARG330      0.1354
     48  NH2       34.3390   79.3270   58.0230 N.pl3 330  ARG330      0.1354
     49  N         37.8380   88.5260   60.6260 N.3   420  MET420     -0.1245
     50  CA        38.1580   87.4390   61.5400 C.3   420  MET420      0.1570
     51  C         39.4480   87.7880   62.2700 C.2   420  MET420      0.2261
     52  O         40.4700   88.0810   61.6350 O.2   420  MET420     -0.2867
     53  CB        38.3050   86.1000   60.8120 C.3   420  MET420      0.0387
     54  CG        37.0790   85.6490   60.0400 C.3   420  MET420      0.0595
     55  SD        35.6270   85.3410   61.0560 S.3   420  MET420     -0.1393
     56  CE        36.3020   84.1940   62.2790 C.3   420  MET420      0.0692
     57  N         41.6580   85.7320   63.9360 N.3   422  GLU422     -0.1245
     58  CA        41.9080   84.3020   64.0700 C.3   422  GLU422      0.1567
     59  C         43.3440   83.9410   63.6920 C.2   422  GLU422      0.2260
     60  O         43.6240   82.7730   63.4090 O.2   422  GLU422     -0.2867
     61  CB        40.9310   83.4850   63.2280 C.3   422  GLU422      0.0388
     62  CG        41.0970   83.6340   61.7170 C.3   422  GLU422      0.1160
     63  CD        40.0050   82.9210   60.9630 C.2   422  GLU422      0.3649
     64  OE1       39.8340   83.1970   59.7610 O.co2 422  GLU422     -0.2457
     65  OE2       39.3020   82.0850   61.5770 O.co2 422  GLU422     -0.2457
     66  N         37.8640   84.0110   65.7890 N.3   447  GLY447     -0.1210
     67  CA        37.8240   82.6530   65.2600 C.3   447  GLY447      0.1956
     68  C         38.7970   81.7970   66.0480 C.2   447  GLY447      0.2612
     69  O         39.9280   81.5740   65.6060 O.2   447  GLY447     -0.2717
     70  N         38.3730   81.3180   67.2210 N.am  448  PHE448     -0.1962
     71  CA        39.3240   80.7630   68.1830 C.3   448  PHE448      0.1771
     72  C         39.9630   79.4650   67.7140 C.2   448  PHE448      0.2619
     73  O         41.0480   79.1140   68.1970 O.2   448  PHE448     -0.2715
     74  CB        38.6450   80.5520   69.5370 C.3   448  PHE448      0.0574
     75  CG        37.7920   79.3230   69.6060 C.ar  448  PHE448     -0.0200
     76  CD1       38.2660   78.1630   70.2240 C.ar  448  PHE448     -0.0042
     77  CD2       36.5110   79.3190   69.0730 C.ar  448  PHE448     -0.0042
     78  CE1       37.4870   77.0300   70.3080 C.ar  448  PHE448     -0.0003
     79  CE2       35.7220   78.1730   69.1380 C.ar  448  PHE448     -0.0003
     80  CZ        36.2140   77.0270   69.7770 C.ar  448  PHE448     -0.0000
     81  N         39.3300   78.7420   66.7900 N.am  449  LEU449     -0.1963
     82  CA        39.9340   77.5020   66.3190 C.3   449  LEU449      0.1728
     83  C         41.1420   77.7920   65.4450 C.2   449  LEU449      0.2616
     84  O         42.2360   77.2740   65.6990 O.2   449  LEU449     -0.2715
     85  CB        38.9080   76.6560   65.5800 C.3   449  LEU449      0.0311
     86  CG        37.7910   76.1960   66.5120 C.3   449  LEU449      0.0022
     87  CD1       36.6240   75.7080   65.6910 C.3   449  LEU449      0.0001
     88  CD2       38.2740   75.1030   67.4520 C.3   449  LEU449      0.0001
     89  N         40.9700   78.6270   64.4100 N.am  450  ASP450     -0.1971
     90  CA        42.1130   78.9990   63.5810 C.3   450  ASP450      0.1709
     91  C         43.1910   79.6480   64.4240 C.2   450  ASP450      0.2293
     92  O         44.3900   79.4080   64.2130 O.2   450  ASP450     -0.2864
     93  CB        41.6970   79.9590   62.4600 C.3   450  ASP450      0.1436
     94  CG        41.4460   79.2410   61.1470 C.2   450  ASP450      0.3671
     95  OD1       40.3960   79.4910   60.5290 O.co2 450  ASP450     -0.2456
     96  OD2       42.2990   78.4150   60.7480 O.co2 450  ASP450     -0.2456
     97  N         33.1560   82.8230   68.9970 N.3   502  GLY502     -0.1210
     98  CA        33.3540   81.6590   68.1550 C.3   502  GLY502      0.1956
     99  C         32.2700   80.6000   68.2420 C.2   502  GLY502      0.2611
    100  O         31.2570   80.7420   68.9300 O.2   502  GLY502     -0.2717
    101  N         32.5290   79.4970   67.5420 N.am  503  MET503     -0.1979
    102  CA        31.5390   78.4760   67.2380 C.3   503  MET503      0.1605
    103  C         31.4150   77.4580   68.3630 C.2   503  MET503      0.2287
    104  O         32.4170   77.0320   68.9420 O.2   503  MET503     -0.2864
    105  CB        31.9290   77.7500   65.9490 C.3   503  MET503      0.0413
    106  CG        31.0610   76.5650   65.6070 C.3   503  MET503      0.0598
    107  SD        29.4210   77.1340   65.0970 S.3   503  MET503     -0.1393
    108  CE        29.7190   77.8180   63.4520 C.3   503  MET503      0.0692
    109  N         30.7950   73.7210   68.8100 N.3   505  THR505     -0.1218
    110  CA        30.9790   72.5970   67.8970 C.3   505  THR505      0.1862
    111  C         30.3630   71.2910   68.3920 C.2   505  THR505      0.2287
    112  O         30.2930   70.3350   67.6180 O.2   505  THR505     -0.2866
    113  CB        32.4730   72.3790   67.6360 C.3   505  THR505      0.1770
    114  OG1       33.1210   72.0660   68.8770 O.3   505  THR505     -0.2211
    115  CG2       33.0910   73.6410   67.0580 C.3   505  THR505      0.0375
    116  N         28.8200   82.4400   67.1670 N.3   529  TRP529     -0.1241
    117  CA        28.5610   81.4990   66.0850 C.3   529  TRP529      0.1605
    118  C         27.8690   80.2340   66.5750 C.2   529  TRP529      0.2264
    119  O         28.2460   79.6550   67.6010 O.2   529  TRP529     -0.2867
    120  CB        29.8670   81.1360   65.3650 C.3   529  TRP529      0.0550
    121  CG        30.3350   82.2130   64.4280 C.ar  529  TRP529      0.0003
    122  CD1       29.8270   83.4750   64.3190 C.ar  529  TRP529      0.0946
    123  CD2       31.3910   82.1180   63.4570 C.ar  529  TRP529      0.0152
    124  NE1       30.5050   84.1790   63.3390 N.ar  529  TRP529     -0.2442
    125  CE2       31.4760   83.3690   62.8030 C.ar  529  TRP529      0.0810
    126  CE3       32.2720   81.1000   63.0750 C.ar  529  TRP529      0.0012
    127  CZ2       32.4120   83.6260   61.7890 C.ar  529  TRP529      0.0191
    128  CZ3       33.2030   81.3610   62.0520 C.ar  529  TRP529      0.0001
    129  CH2       33.2600   82.6110   61.4290 C.ar  529  TRP529      0.0015
    130  N         26.1300   76.3950   64.9620 N.3   531  PRO531     -0.2116
    131  CA        26.3050   75.4740   63.8250 C.3   531  PRO531      0.1372
    132  C         25.0290   74.9990   63.1430 C.2   531  PRO531      0.2244
    133  O         25.1390   74.2720   62.1550 O.2   531  PRO531     -0.2868
    134  CB        26.9950   74.2820   64.5020 C.3   531  PRO531      0.0268
    135  CG        26.3210   74.2200   65.8380 C.3   531  PRO531      0.0207
    136  CD        26.1320   75.6700   66.2530 C.3   531  PRO531      0.0892
    137  N         32.5090   69.9970   55.9290 N.3   607  ALA607     -0.1245
    138  CA        32.1450   70.0360   57.3400 C.3   607  ALA607      0.1562
    139  C         31.4180   68.7430   57.6740 C.2   607  ALA607      0.2260
    140  O         30.4670   68.3780   56.9780 O.2   607  ALA607     -0.2867
    141  CB        31.2670   71.2490   57.6730 C.3   607  ALA607      0.0290
    142  N         31.3130   68.8740   65.3660 N.3   619  MET619     -0.1245
    143  CA        31.2050   69.4010   64.0120 C.3   619  MET619      0.1570
    144  C         32.5570   69.9740   63.6260 C.2   619  MET619      0.2261
    145  O         33.0080   70.9630   64.2070 O.2   619  MET619     -0.2867
    146  CB        30.1190   70.4630   63.9060 C.3   619  MET619      0.0387
    147  CG        30.0340   71.0420   62.5040 C.3   619  MET619      0.0595
    148  SD        29.5350   69.8160   61.2690 S.3   619  MET619     -0.1393
    149  CE        27.8860   69.4830   61.8690 C.3   619  MET619      0.0692
    150  N         35.5410   71.3930   60.8800 N.3   621  ASP621     -0.1239
    151  CA        35.8650   72.1730   59.7010 C.3   621  ASP621      0.1674
    152  C         37.3750   72.1590   59.5130 C.2   621  ASP621      0.2266
    153  O         38.1090   71.4920   60.2490 O.2   621  ASP621     -0.2867
    154  CB        35.3690   73.6100   59.8660 C.3   621  ASP621      0.1410
    155  CG        36.1480   74.3770   60.9390 C.2   621  ASP621      0.3668
    156  OD1       36.3030   73.8600   62.0780 O.co2 621  ASP621     -0.2456
    157  OD2       36.6200   75.4940   60.6370 O.co2 621  ASP621     -0.2456
    158  N         39.4660   74.3820   60.3770 N.3   623  ALA623     -0.1245
    159  CA        40.1810   74.9910   61.4950 C.3   623  ALA623      0.1562
    160  C         40.4880   73.9660   62.5820 C.2   623  ALA623      0.2260
    161  O         41.6140   73.9060   63.0850 O.2   623  ALA623     -0.2867
    162  CB        39.3820   76.1600   62.0600 C.3   623  ALA623      0.0290
@<TRIPOS>BOND
     1    41    40    2
     2    11    10    2
     3    40    39    1
     4    15    16    1
     5    10     9    1
     6    16    17    1
     7    16    19    1
     8    18    17    2
     9    38    39    1
    10    39    42    1
    11    12     9    1
    12    12    13    2
    13    17    24   am
    14     9     8    1
    15    19    20    1
    16    20    21    1
    17    35    34    2
    18    34    33    1
    19    42    43    1
    20    13    14    1
    21     8    14    2
    22    24    25    1
    23    43    44    1
    24    21    23   ar
    25    21    22   ar
    26    37    36    1
    27    32    33    1
    28    32    26   am
    29    25    26    1
    30    25    28    1
    31    33    36    1
    32   137   138    1
    33    26    27    2
    34    31    29   ar
    35    44    45    1
    36    45    46    2
    37   140   139    2
    38    29    28    1
    39    29    30   ar
    40   138   141    1
    41   138   139    1
    42    46    48    1
    43    46    47    1
    44     6     5    1
    45     3     4    2
    46     3     2    1
    47   152   151    1
    48   152   153    2
    49     2     5    1
    50     2     1    1
    51   151   154    1
    52   151   150    1
    53    64    63   ar
    54   154   155    1
    55    54    53    1
    56    54    55    1
    57     5     7    1
    58   158   159    1
    59    95    94   ar
    60    49    50    1
    61   157   155   ar
    62    96    94   ar
    63    53    50    1
    64   155   156   ar
    65    63    65   ar
    66    63    62    1
    67    55    56    1
    68    94    93    1
    69   148   149    1
    70   148   147    1
    71   129   127   ar
    72   129   128   ar
    73   159   162    1
    74   159   160    1
    75    50    51    1
    76    52    51    2
    77    62    61    1
    78   127   125   ar
    79   128   126   ar
    80   133   132    2
    81    93    90    1
    82   147   146    1
    83   160   161    2
    84   125   124   ar
    85   125   123   ar
    86   126   123   ar
    87   132   131    1
    88    61    58    1
    89   124   122   ar
    90    60    59    2
    91   108   107    1
    92   123   121   ar
    93    90    89    1
    94    90    91    1
    95   144   143    1
    96   144   145    2
    97    59    58    1
    98   131   134    1
    99   131   130    1
   100   146   143    1
   101    57    58    1
   102   143   142    1
   103    92    91    2
   104   122   121   ar
   105    89    83   am
   106   121   120    1
   107   134   135    1
   108   130   136    1
   109   107   106    1
   110    67    66    1
   111    67    68    1
   112   120   117    1
   113    83    84    2
   114    83    82    1
   115    85    82    1
   116    85    86    1
   117    69    68    2
   118   106   105    1
   119    87    86    1
   120   135   136    1
   121   105   102    1
   122    68    70   am
   123   117   118    1
   124   117   116    1
   125    82    81    1
   126    86    88    1
   127   118   119    2
   128    81    72   am
   129   115   113    1
   130    70    71    1
   131   102   101    1
   132   102   103    1
   133   101    99   am
   134   112   111    2
   135   113   110    1
   136   113   114    1
   137    72    71    1
   138    72    73    2
   139   110   111    1
   140   110   109    1
   141    98    99    1
   142    98    97    1
   143    71    74    1
   144    99   100    2
   145   103   104    2
   146    77    79   ar
   147    77    75   ar
   148    79    80   ar
   149    74    75    1
   150    75    76   ar
   151    80    78   ar
   152    76    78   ar
