@<TRIPOS>MOLECULE
tmp/6audA00.pdb
 225 210 0 0 0
SMALL
GASTEIGER

@<TRIPOS>ATOM
      1  N          4.8970   -8.2370    9.2330 N.3   561  LYS561     -0.1245
      2  CA         5.5790   -7.7890   10.4400 C.3   561  LYS561      0.1561
      3  C          7.0960   -7.7760   10.2970 C.2   561  LYS561      0.2260
      4  O          7.7870   -7.3430   11.2260 O.2   561  LYS561     -0.2867
      5  CB         5.1810   -8.6690   11.6300 C.3   561  LYS561      0.0271
      6  CG         3.7150   -8.5550   12.0210 C.3   561  LYS561      0.0035
      7  CD         3.4030   -9.3870   13.2540 C.3   561  LYS561      0.0206
      8  CE         1.9610   -9.1980   13.6950 C.3   561  LYS561      0.1093
      9  NZ         1.6440  -10.0020   14.9080 N.3   561  LYS561     -0.1314
     10  N         10.6990   -6.4350    8.8440 N.3   563  THR563     -0.1218
     11  CA        11.2180   -5.1320    8.4460 C.3   563  THR563      0.1862
     12  C         12.7300   -5.1220    8.6330 C.2   563  THR563      0.2287
     13  O         13.3380   -6.1170    9.0390 O.2   563  THR563     -0.2866
     14  CB        10.5580   -4.0030    9.2440 C.3   563  THR563      0.1770
     15  OG1       10.9350   -2.7400    8.6840 O.3   563  THR563     -0.2211
     16  CG2       10.9990   -4.0500   10.6990 C.3   563  THR563      0.0375
     17  N         15.6920   -3.1050   10.6770 N.3   565  MET565     -0.1245
     18  CA        15.8660   -2.2480   11.8400 C.3   565  MET565      0.1570
     19  C         16.6890   -1.0130   11.4890 C.2   565  MET565      0.2261
     20  O         17.5610   -1.0440   10.6170 O.2   565  MET565     -0.2867
     21  CB        16.5330   -3.0210   12.9780 C.3   565  MET565      0.0387
     22  CG        15.5520   -3.7140   13.9100 C.3   565  MET565      0.0595
     23  SD        16.3190   -4.9980   14.9170 S.3   565  MET565     -0.1393
     24  CE        16.5410   -6.2780   13.6900 C.3   565  MET565      0.0692
     25  N         19.0430    0.3560   12.9240 N.3   567  SER567     -0.1217
     26  CA        20.3970    0.3820   13.4500 C.3   567  SER567      0.1889
     27  C         21.4040    0.5720   12.3170 C.2   567  SER567      0.2288
     28  O         21.0730    0.4940   11.1300 O.2   567  SER567     -0.2866
     29  CB        20.6960   -0.9020   14.2220 C.3   567  SER567      0.2089
     30  OG        22.0100   -0.8840   14.7540 O.3   567  SER567     -0.2183
     31  N         23.8850   -1.4070   11.5510 N.3   569  LYS569     -0.1245
     32  CA        24.1570   -2.6680   10.8730 C.3   569  LYS569      0.1561
     33  C         23.0150   -3.1100    9.9670 C.2   569  LYS569      0.2260
     34  O         23.1810   -4.0850    9.2250 O.2   569  LYS569     -0.2867
     35  CB        24.4500   -3.7620   11.9030 C.3   569  LYS569      0.0271
     36  CG        25.2080   -3.2790   13.1340 C.3   569  LYS569      0.0035
     37  CD        26.5730   -2.7060   12.7810 C.3   569  LYS569      0.0206
     38  CE        27.4840   -3.7600   12.1790 C.3   569  LYS569      0.1093
     39  NZ        28.8460   -3.2190   11.9190 N.3   569  LYS569     -0.1314
     40  N         20.0900   -4.7370   10.5930 N.3   571  PRO571     -0.2116
     41  CA        19.7280   -6.1460   10.7630 C.3   571  PRO571      0.1372
     42  C         18.2640   -6.3960   10.4280 C.2   571  PRO571      0.2244
     43  O         17.4230   -5.4960   10.4590 O.2   571  PRO571     -0.2868
     44  CB        20.0070   -6.4060   12.2460 C.3   571  PRO571      0.0268
     45  CG        19.7810   -5.0920   12.8930 C.3   571  PRO571      0.0207
     46  CD        20.1430   -4.0290   11.8870 C.3   571  PRO571      0.0892
     47  N         14.5630   -7.8520   11.0040 N.3   573  TRP573     -0.1241
     48  CA        13.5910   -8.1240   12.0590 C.3   573  TRP573      0.1605
     49  C         12.5350   -9.0490   11.4620 C.2   573  TRP573      0.2264
     50  O         11.6360   -8.5980   10.7490 O.2   573  TRP573     -0.2867
     51  CB        12.9850   -6.8250   12.5820 C.3   573  TRP573      0.0550
     52  CG        11.9000   -7.0030   13.6010 C.ar  573  TRP573      0.0003
     53  CD1       10.5870   -7.2880   13.3600 C.ar  573  TRP573      0.0946
     54  CD2       12.0290   -6.8820   15.0230 C.ar  573  TRP573      0.0152
     55  NE1        9.8930   -7.3640   14.5440 N.ar  573  TRP573     -0.2442
     56  CE2       10.7560   -7.1180   15.5790 C.ar  573  TRP573      0.0810
     57  CE3       13.0980   -6.6040   15.8790 C.ar  573  TRP573      0.0012
     58  CZ2       10.5230   -7.0840   16.9530 C.ar  573  TRP573      0.0191
     59  CZ3       12.8650   -6.5730   17.2420 C.ar  573  TRP573      0.0001
     60  CH2       11.5890   -6.8110   17.7650 C.ar  573  TRP573      0.0015
     61  N          9.6120  -12.2280   11.8560 N.3   575  GLU575     -0.1245
     62  CA         8.6340  -12.8230   12.7570 C.3   575  GLU575      0.1567
     63  C          7.9550  -13.9910   12.0580 C.2   575  GLU575      0.2260
     64  O          7.5290  -13.8690   10.9060 O.2   575  GLU575     -0.2867
     65  CB         7.5950  -11.7930   13.2180 C.3   575  GLU575      0.0388
     66  CG         8.1860  -10.6680   14.0560 C.3   575  GLU575      0.1160
     67  CD         7.1280   -9.7920   14.6970 C.2   575  GLU575      0.3649
     68  OE1        6.0270  -10.3030   14.9910 O.co2 575  GLU575     -0.2457
     69  OE2        7.3980   -8.5910   14.9040 O.co2 575  GLU575     -0.2457
     70  N         16.0680  -12.0190   15.0130 N.3   592  ILE592     -0.1245
     71  CA        16.8750  -10.9630   14.4130 C.3   592  ILE592      0.1561
     72  C         18.0660  -11.6070   13.7150 C.2   592  ILE592      0.2260
     73  O         18.8370  -12.3440   14.3400 O.2   592  ILE592     -0.2867
     74  CB        17.3450   -9.9460   15.4650 C.3   592  ILE592      0.0252
     75  CG1       16.1800   -9.0680   15.9270 C.3   592  ILE592      0.0019
     76  CG2       18.4800   -9.0960   14.9140 C.3   592  ILE592      0.0019
     77  CD1       16.5360   -8.1240   17.0560 C.3   592  ILE592      0.0001
     78  N         21.5000  -10.5310   11.9090 N.3   594  LYS594     -0.1245
     79  CA        22.3560   -9.3520   11.9010 C.3   594  LYS594      0.1561
     80  C         23.7080   -9.6450   11.2680 C.2   594  LYS594      0.2260
     81  O         24.3370  -10.6680   11.5630 O.2   594  LYS594     -0.2867
     82  CB        22.5690   -8.8090   13.3170 C.3   594  LYS594      0.0271
     83  CG        23.3720   -7.5140   13.3390 C.3   594  LYS594      0.0035
     84  CD        23.6290   -7.0210   14.7490 C.3   594  LYS594      0.0206
     85  CE        24.5520   -7.9600   15.5020 C.3   594  LYS594      0.1093
     86  NZ        25.0570   -7.3400   16.7550 N.3   594  LYS594     -0.1314
     87  N         29.1860  -12.4130   16.5260 N.3   599  LEU599     -0.1245
     88  CA        28.2310  -12.9270   17.5010 C.3   599  LEU599      0.1561
     89  C         28.8020  -14.0480   18.3600 C.2   599  LEU599      0.2260
     90  O         28.1750  -14.4150   19.3590 O.2   599  LEU599     -0.2867
     91  CB        26.9620  -13.4080   16.7930 C.3   599  LEU599      0.0270
     92  CG        25.8060  -12.4090   16.6530 C.3   599  LEU599      0.0019
     93  CD1       26.2130  -11.0020   17.0720 C.3   599  LEU599      0.0001
     94  CD2       25.2760  -12.4050   15.2330 C.3   599  LEU599      0.0001
     95  N         29.1250  -12.6000   21.6040 N.3   602  ASP602     -0.1239
     96  CA        27.8410  -12.5520   22.2940 C.3   602  ASP602      0.1674
     97  C         27.4930  -13.9060   22.9010 C.2   602  ASP602      0.2266
     98  O         26.9850  -13.9750   24.0260 O.2   602  ASP602     -0.2867
     99  CB        26.7410  -12.0970   21.3340 C.3   602  ASP602      0.1410
    100  CG        26.9060  -10.6510   20.9010 C.2   602  ASP602      0.3668
    101  OD1       27.8490  -10.3620   20.1360 O.co2 602  ASP602     -0.2456
    102  OD2       26.0900   -9.8040   21.3260 O.co2 602  ASP602     -0.2456
    103  N         19.2260  -13.9780   26.6060 N.3   628  TYR628     -0.1241
    104  CA        18.4560  -14.3340   25.4240 C.3   628  TYR628      0.1605
    105  C         19.2700  -15.2350   24.4940 C.2   628  TYR628      0.2264
    106  O         20.4920  -15.3630   24.6080 O.2   628  TYR628     -0.2867
    107  CB        18.0190  -13.0690   24.6850 C.3   628  TYR628      0.0534
    108  CG        19.1730  -12.1390   24.3910 C.ar  628  TYR628     -0.0201
    109  CD1       19.9110  -12.2680   23.2220 C.ar  628  TYR628     -0.0009
    110  CD2       19.5370  -11.1430   25.2900 C.ar  628  TYR628     -0.0009
    111  CE1       20.9720  -11.4300   22.9520 C.ar  628  TYR628      0.0417
    112  CE2       20.6000  -10.2990   25.0280 C.ar  628  TYR628      0.0417
    113  CZ        21.3130  -10.4480   23.8560 C.ar  628  TYR628      0.1957
    114  OH        22.3730   -9.6180   23.5790 O.3   628  TYR628     -0.2866
    115  N         19.5800  -13.7660   16.5780 N.3   640  ILE640     -0.1231
    116  CA        19.3570  -13.3100   17.9450 C.3   640  ILE640      0.1692
    117  C         17.8810  -13.4800   18.2800 C.2   640  ILE640      0.2592
    118  O         17.0100  -13.2380   17.4370 O.2   640  ILE640     -0.2718
    119  CB        19.7950  -11.8400   18.1280 C.3   640  ILE640      0.0266
    120  CG1       21.2590  -11.6620   17.7230 C.3   640  ILE640      0.0019
    121  CG2       19.5890  -11.3870   19.5650 C.3   640  ILE640      0.0020
    122  CD1       21.6930  -10.2210   17.6200 C.3   640  ILE640      0.0001
    123  N         17.6030  -13.9000   19.5130 N.am  641  GLU641     -0.1966
    124  CA        16.2260  -14.0320   19.9730 C.3   641  GLU641      0.1733
    125  C         15.6110  -12.6610   20.2210 C.2   641  GLU641      0.2616
    126  O         16.2240  -11.7990   20.8580 O.2   641  GLU641     -0.2715
    127  CB        16.1730  -14.8630   21.2540 C.3   641  GLU641      0.0429
    128  CG        14.8080  -14.8730   21.9280 C.3   641  GLU641      0.1163
    129  CD        14.8010  -15.6570   23.2280 C.2   641  GLU641      0.3649
    130  OE1       13.7190  -15.7870   23.8390 O.co2 641  GLU641     -0.2457
    131  OE2       15.8740  -16.1430   23.6390 O.co2 641  GLU641     -0.2457
    132  N         14.3930  -12.4640   19.7260 N.am  642  ILE642     -0.1963
    133  CA        13.6440  -11.2400   19.9900 C.3   642  ILE642      0.1727
    134  C         12.9140  -11.3940   21.3180 C.2   642  ILE642      0.2616
    135  O         12.0460  -12.2620   21.4650 O.2   642  ILE642     -0.2715
    136  CB        12.6600  -10.9320   18.8520 C.3   642  ILE642      0.0290
    137  CG1       13.4110  -10.4440   17.6120 C.3   642  ILE642      0.0022
    138  CG2       11.6280   -9.9080   19.3020 C.3   642  ILE642      0.0023
    139  CD1       12.5120  -10.0650   16.4550 C.3   642  ILE642      0.0001
    140  N         13.2740  -10.5620   22.2900 N.am  643  VAL643     -0.1977
    141  CA        12.5670  -10.5210   23.5650 C.3   643  VAL643      0.1596
    142  C         11.3610   -9.6060   23.4070 C.2   643  VAL643      0.2287
    143  O         11.5010   -8.4340   23.0410 O.2   643  VAL643     -0.2864
    144  CB        13.4850  -10.0400   24.6980 C.3   643  VAL643      0.0276
    145  CG1       12.6830   -9.8050   25.9690 C.3   643  VAL643      0.0022
    146  CG2       14.5990  -11.0490   24.9440 C.3   643  VAL643      0.0022
    147  N         10.0270   -5.2890   24.8410 N.3   646  ALA646     -0.1231
    148  CA        11.2690   -4.7370   25.2970 C.3   646  ALA646      0.1694
    149  C         11.7320   -3.6300   24.4070 C.2   646  ALA646      0.2593
    150  O         11.5190   -3.6590   23.2440 O.2   646  ALA646     -0.2718
    151  CB        12.3360   -5.7910   25.3680 C.3   646  ALA646      0.0304
    152  N         12.3800   -2.6620   24.9980 N.am  647  THR647     -0.1939
    153  CA        12.9300   -1.5640   24.2740 C.3   647  THR647      0.2028
    154  C         14.2800   -1.1470   24.8660 C.2   647  THR647      0.2642
    155  O         14.6070   -1.5390   25.9270 O.2   647  THR647     -0.2714
    156  CB        11.9320   -0.4060   24.1740 C.3   647  THR647      0.1808
    157  OG1       12.3750    0.4570   23.1480 O.3   647  THR647     -0.2208
    158  CG2       11.8780    0.3530   25.3850 C.3   647  THR647      0.0379
    159  N         15.0660   -0.3880   24.1440 N.am  648  THR648     -0.1950
    160  CA        16.3440    0.0500   24.6520 C.3   648  THR648      0.1897
    161  C         16.2030    1.2740   25.5440 C.2   648  THR648      0.2313
    162  O         15.3040    2.0470   25.3790 O.2   648  THR648     -0.2863
    163  CB        17.3700    0.3280   23.5450 C.3   648  THR648      0.1794
    164  OG1       17.0290    1.5220   22.8450 O.3   648  THR648     -0.2208
    165  CG2       17.4430   -0.8050   22.6130 C.3   648  THR648      0.0378
    166  N         16.1940    4.4130   23.4660 N.3   651  LYS651     -0.1245
    167  CA        14.9440    4.7260   22.7800 C.3   651  LYS651      0.1561
    168  C         13.9230    5.3510   23.7230 C.2   651  LYS651      0.2260
    169  O         13.1370    6.2070   23.3020 O.2   651  LYS651     -0.2867
    170  CB        14.3620    3.4720   22.1270 C.3   651  LYS651      0.0271
    171  CG        15.0730    3.0470   20.8520 C.3   651  LYS651      0.0035
    172  CD        14.3240    1.9240   20.1510 C.3   651  LYS651      0.0206
    173  CE        15.0780    1.4330   18.9240 C.3   651  LYS651      0.1093
    174  NZ        16.3530    0.7540   19.2890 N.3   651  LYS651     -0.1314
    175  N         22.3660    2.6420   24.5790 N.3   711  ASP711     -0.1225
    176  CA        21.7060    2.0290   23.4340 C.3   711  ASP711      0.1805
    177  C         21.8630    0.5140   23.4390 C.2   711  ASP711      0.2597
    178  O         21.1230   -0.1800   22.7330 O.2   711  ASP711     -0.2718
    179  CB        22.2570    2.6090   22.1320 C.3   711  ASP711      0.1424
    180  CG        21.3640    2.3200   20.9400 C.2   711  ASP711      0.3668
    181  OD1       20.1550    2.0790   21.1450 O.co2 711  ASP711     -0.2456
    182  OD2       21.8730    2.3260   19.7990 O.co2 711  ASP711     -0.2456
    183  N         22.8050   -0.0110   24.2240 N.am  712  ASN712     -0.1974
    184  CA        23.0420   -1.4430   24.3380 C.3   712  ASN712      0.1688
    185  C         22.4560   -2.0260   25.6180 C.2   712  ASN712      0.2292
    186  O         22.8030   -3.1490   26.0020 O.2   712  ASN712     -0.2864
    187  CB        24.5410   -1.7310   24.2540 C.3   712  ASN712      0.1181
    188  CG        25.1390   -1.2940   22.9320 C.2   712  ASN712      0.2629
    189  OD1       24.5350   -1.4810   21.8770 O.2   712  ASN712     -0.2716
    190  ND2       26.3250   -0.6970   22.9830 N.am  712  ASN712     -0.0877
    191  N         18.6810   -2.7830   27.5030 N.3   714  MET714     -0.1245
    192  CA        17.2600   -2.8900   27.2250 C.3   714  MET714      0.1570
    193  C         16.4870   -3.1130   28.5170 C.2   714  MET714      0.2261
    194  O         17.0520   -3.4320   29.5670 O.2   714  MET714     -0.2867
    195  CB        16.9760   -4.0240   26.2330 C.3   714  MET714      0.0387
    196  CG        17.6680   -3.8550   24.8940 C.3   714  MET714      0.0595
    197  SD        16.9510   -4.9120   23.6270 S.3   714  MET714     -0.1393
    198  CE        15.2670   -4.3030   23.6120 C.3   714  MET714      0.0692
    199  N         18.2550   -5.7280   30.9410 N.3   722  PHE722     -0.1241
    200  CA        19.2340   -6.6730   30.4170 C.3   722  PHE722      0.1605
    201  C         20.0750   -6.0050   29.3380 C.2   722  PHE722      0.2264
    202  O         19.5940   -5.1420   28.5980 O.2   722  PHE722     -0.2867
    203  CB        18.5680   -7.9490   29.8770 C.3   722  PHE722      0.0534
    204  CG        17.6560   -7.7270   28.7000 C.ar  722  PHE722     -0.0203
    205  CD1       18.0890   -8.0020   27.4120 C.ar  722  PHE722     -0.0042
    206  CD2       16.3570   -7.2790   28.8820 C.ar  722  PHE722     -0.0042
    207  CE1       17.2510   -7.8170   26.3270 C.ar  722  PHE722     -0.0003
    208  CE2       15.5150   -7.0900   27.8000 C.ar  722  PHE722     -0.0003
    209  CZ        15.9620   -7.3600   26.5220 C.ar  722  PHE722     -0.0000
    210  N         22.6380   -6.0270   25.9140 N.3   724  ILE724     -0.1231
    211  CA        22.6480   -6.6320   24.5860 C.3   724  ILE724      0.1692
    212  C         23.9130   -6.2010   23.8520 C.2   724  ILE724      0.2592
    213  O         24.6700   -5.3470   24.3150 O.2   724  ILE724     -0.2718
    214  CB        21.4060   -6.2480   23.7520 C.3   724  ILE724      0.0266
    215  CG1       21.4100   -4.7450   23.4600 C.3   724  ILE724      0.0019
    216  CG2       20.1220   -6.6630   24.4580 C.3   724  ILE724      0.0020
    217  CD1       20.3390   -4.3080   22.4910 C.3   724  ILE724      0.0001
    218  N         24.1350   -6.8240   22.6910 N.am  725  ASP725     -0.1974
    219  CA        25.1270   -6.3820   21.7080 C.3   725  ASP725      0.1709
    220  C         26.5430   -6.3690   22.2920 C.2   725  ASP725      0.2293
    221  O         27.1950   -5.3280   22.3950 O.2   725  ASP725     -0.2864
    222  CB        24.7560   -5.0040   21.1490 C.3   725  ASP725      0.1436
    223  CG        25.3590   -4.7480   19.7840 C.2   725  ASP725      0.3671
    224  OD1       25.0330   -3.7060   19.1760 O.co2 725  ASP725     -0.2456
    225  OD2       26.1400   -5.5990   19.3090 O.co2 725  ASP725     -0.2456
@<TRIPOS>BOND
     1    11    12    1
     2    11    10    1
     3    11    14    1
     4    12    13    2
     5    15    14    1
     6    34    33    2
     7     1     2    1
     8    14    16    1
     9    33    32    1
    10     3     2    1
    11     3     4    2
    12    42    43    2
    13    42    41    1
    14     2     5    1
    15    40    41    1
    16    40    46    1
    17    20    19    2
    18    17    18    1
    19    50    49    2
    20    41    44    1
    21    32    31    1
    22    32    35    1
    23    64    63    2
    24    47    48    1
    25    28    27    2
    26    80    81    2
    27    80    79    1
    28    49    48    1
    29    19    18    1
    30     5     6    1
    31    18    21    1
    32    61    62    1
    33    46    45    1
    34    79    78    1
    35    79    82    1
    36    35    36    1
    37    39    38    1
    38     6     7    1
    39    63    62    1
    40    48    51    1
    41    38    37    1
    42    44    45    1
    43    27    26    1
    44    51    52    1
    45    62    65    1
    46    37    36    1
    47    25    26    1
    48    21    22    1
    49    65    66    1
    50     7     8    1
    51    82    83    1
    52    83    84    1
    53    53    52   ar
    54    53    55   ar
    55    26    29    1
    56    52    54   ar
    57    24    23    1
    58     8     9    1
    59    72    73    2
    60    72    71    1
    61    22    23    1
    62    66    67    1
    63    29    30    1
    64    71    70    1
    65    71    74    1
    66    55    56   ar
    67    67    69   ar
    68    67    68   ar
    69    84    85    1
    70    76    74    1
    71    54    56   ar
    72    54    57   ar
    73    94    92    1
    74    74    75    1
    75    85    86    1
    76    56    58   ar
    77    57    59   ar
    78    75    77    1
    79   139   137    1
    80    87    88    1
    81   115   116    1
    82    92    91    1
    83    92    93    1
    84    91    88    1
    85    58    60   ar
    86    59    60   ar
    87   118   117    2
    88    88    89    1
    89   137   136    1
    90   122   120    1
    91   120   119    1
    92   116   119    1
    93   116   117    1
    94   119   121    1
    95   117   123   am
    96    89    90    2
    97   136   138    1
    98   136   133    1
    99   173   174    1
   100   173   172    1
   101   224   223   ar
   102   225   223   ar
   103   123   124    1
   104   132   133    1
   105   132   125   am
   106   223   222    1
   107   182   180   ar
   108   124   125    1
   109   124   127    1
   110   133   134    1
   111   101   100   ar
   112   172   171    1
   113   125   126    2
   114   171   170    1
   115   100   102   ar
   116   100    99    1
   117   180   181   ar
   118   180   179    1
   119   222   219    1
   120   127   128    1
   121   134   135    2
   122   134   140   am
   123    99    96    1
   124    95    96    1
   125   219   220    1
   126   219   218    1
   127   189   188    2
   128   128   129    1
   129   170   167    1
   130   179   176    1
   131   140   141    1
   132   220   221    2
   133    96    97    1
   134   217   215    1
   135   165   163    1
   136   218   212   am
   137   178   177    2
   138   167   166    1
   139   167   168    1
   140   164   163    1
   141    97    98    2
   142   188   190   am
   143   188   187    1
   144   111   109   ar
   145   111   113   ar
   146   143   142    2
   147   157   156    1
   148   109   108   ar
   149   129   131   ar
   150   129   130   ar
   151   150   149    2
   152   169   168    2
   153   142   141    1
   154   176   177    1
   155   176   175    1
   156   177   183   am
   157   215   214    1
   158   163   160    1
   159   141   144    1
   160   114   113    1
   161   198   197    1
   162   197   196    1
   163   214   216    1
   164   214   211    1
   165   212   213    2
   166   212   211    1
   167   113   112   ar
   168   159   160    1
   169   159   154   am
   170   156   153    1
   171   156   158    1
   172   183   184    1
   173   187   184    1
   174   153   154    1
   175   153   152    1
   176   184   185    1
   177   108   107    1
   178   108   110   ar
   179   149   152   am
   180   149   148    1
   181   105   106    2
   182   105   104    1
   183   211   210    1
   184   160   161    1
   185   107   104    1
   186   144   146    1
   187   144   145    1
   188   147   148    1
   189   154   155    2
   190   196   195    1
   191   112   110   ar
   192   148   151    1
   193   162   161    2
   194   104   103    1
   195   185   186    2
   196   195   192    1
   197   207   209   ar
   198   207   205   ar
   199   209   208   ar
   200   192   191    1
   201   192   193    1
   202   205   204   ar
   203   208   206   ar
   204   193   194    2
   205   202   201    2
   206   204   206   ar
   207   204   203    1
   208   201   200    1
   209   203   200    1
   210   200   199    1
