@<TRIPOS>MOLECULE
tmp/6aueA00.pdb
 160 152 0 0 0
SMALL
GASTEIGER

@<TRIPOS>ATOM
      1  N        -19.4040    3.8200   -4.7610 N.3    11  ASN11      -0.1240
      2  CA       -18.1750    4.5650   -4.4570 C.3    11  ASN11       0.1653
      3  C        -18.0550    5.8380   -5.2450 C.2    11  ASN11       0.2266
      4  O        -18.9530    6.1690   -6.0730 O.2    11  ASN11      -0.2867
      5  CB       -16.9240    3.6750   -4.4990 C.3    11  ASN11       0.1155
      6  CG       -16.5130    3.3320   -5.8870 C.2    11  ASN11       0.2627
      7  OD1      -16.9690    3.8660   -6.8920 O.2    11  ASN11      -0.2716
      8  ND2      -15.5470    2.3860   -5.9830 N.am   11  ASN11      -0.0877
      9  N        -16.2440    6.6200   -7.6830 N.3    13  LEU13      -0.1301
     10  CA       -16.0960    6.4290   -9.1320 C.3    13  LEU13       0.1247
     11  C        -17.4520    6.1340   -9.7330 C.3    13  LEU13       0.2009
     12  O        -17.4400    6.0060  -11.0040 O.3    13  LEU13      -0.2188
     13  CB       -15.1130    5.2250   -9.4180 C.3    13  LEU13       0.0217
     14  CG       -13.6980    5.3880   -8.8700 C.3    13  LEU13       0.0015
     15  CD1      -12.8520    4.1330   -8.8970 C.3    13  LEU13       0.0000
     16  CD2      -12.9970    6.4110   -9.7040 C.3    13  LEU13       0.0000
     17  N        -18.9220    3.0900   -9.0300 N.3    15  SER15      -0.1217
     18  CA       -19.0740    1.6930   -9.0330 C.3    15  SER15       0.1889
     19  C        -20.1780    1.2830   -8.0370 C.2    15  SER15       0.2288
     20  O        -20.3960    1.9420   -7.0290 O.2    15  SER15      -0.2866
     21  CB       -17.7020    1.0230   -8.6370 C.3    15  SER15       0.2089
     22  OG       -16.7450    1.3800   -9.5830 O.3    15  SER15      -0.2183
     23  N        -20.0710   -7.0400   -7.7580 N.3    31  TYR31      -0.1241
     24  CA       -19.4460   -5.7090   -7.9320 C.3    31  TYR31       0.1605
     25  C        -19.5130   -5.3640   -9.3950 C.2    31  TYR31       0.2264
     26  O        -19.1960   -6.1850  -10.2390 O.2    31  TYR31      -0.2867
     27  CB       -17.9260   -5.8220   -7.4560 C.3    31  TYR31       0.0534
     28  CG       -17.3620   -4.4670   -7.1190 C.ar   31  TYR31      -0.0201
     29  CD1      -16.8380   -3.6770   -8.0940 C.ar   31  TYR31      -0.0009
     30  CD2      -17.2960   -4.0250   -5.7900 C.ar   31  TYR31      -0.0009
     31  CE1      -16.3000   -2.3880   -7.8130 C.ar   31  TYR31       0.0417
     32  CE2      -16.8080   -2.7600   -5.5160 C.ar   31  TYR31       0.0417
     33  CZ       -16.2660   -1.9900   -6.4620 C.ar   31  TYR31       0.1957
     34  OH       -15.7140   -0.7870   -6.1810 O.3    31  TYR31      -0.2866
     35  N        -17.7820   -2.3550  -11.6580 N.3    33  SER33      -0.1217
     36  CA       -16.8630   -1.2340  -11.7470 C.3    33  SER33       0.1889
     37  C        -17.2870   -0.2490  -12.8030 C.2    33  SER33       0.2288
     38  O        -17.4710   -0.6600  -13.9960 O.2    33  SER33      -0.2866
     39  CB       -15.4350   -1.6990  -11.9610 C.3    33  SER33       0.2089
     40  OG       -14.6000   -0.5940  -11.9760 O.3    33  SER33      -0.2183
     41  N        -15.0620    1.8340  -13.9580 N.3    35  VAL35      -0.1231
     42  CA       -13.8140    2.0730  -14.6520 C.3    35  VAL35       0.1692
     43  C        -13.0170    0.7960  -14.8660 C.2    35  VAL35       0.2593
     44  O        -13.2810   -0.2600  -14.2730 O.2    35  VAL35      -0.2718
     45  CB       -12.8970    3.0840  -13.8440 C.3    35  VAL35       0.0266
     46  CG1      -13.5670    4.4340  -13.6190 C.3    35  VAL35       0.0020
     47  CG2      -12.4360    2.4780  -12.4890 C.3    35  VAL35       0.0020
     48  N        -12.0420    0.8960  -15.7430 N.am   36  GLY36      -0.1942
     49  CA       -11.1850   -0.1730  -16.0040 C.3    36  GLY36       0.2014
     50  C        -11.6340   -1.2440  -16.9580 C.2    36  GLY36       0.2639
     51  O        -12.6190   -1.0060  -17.6870 O.2    36  GLY36      -0.2714
     52  N        -10.9560   -2.3690  -16.9780 N.am   37  ASN37      -0.1958
     53  CA       -11.2240   -3.4480  -17.9610 C.3    37  ASN37       0.1819
     54  C        -12.2990   -4.3720  -17.3580 C.2    37  ASN37       0.2621
     55  O        -12.0320   -5.4450  -16.8580 O.2    37  ASN37      -0.2715
     56  CB        -9.9880   -4.1460  -18.3550 C.3    37  ASN37       0.1195
     57  CG       -10.2370   -5.1620  -19.5000 C.2    37  ASN37       0.2630
     58  OD1      -11.3550   -5.1620  -20.0790 O.2    37  ASN37      -0.2716
     59  ND2       -9.3540   -6.0650  -19.6590 N.am   37  ASN37      -0.0877
     60  N        -13.5390   -3.8770  -17.3410 N.am   38  ALA38      -0.1977
     61  CA       -14.6780   -4.4380  -16.6350 C.3    38  ALA38       0.1597
     62  C        -15.9810   -4.0830  -17.2890 C.2    38  ALA38       0.2287
     63  O        -16.1640   -2.9630  -17.7800 O.2    38  ALA38      -0.2864
     64  CB       -14.6850   -4.0360  -15.1690 C.3    38  ALA38       0.0319
     65  N        -11.4760  -10.4520  -11.6630 N.3    67  TRP67      -0.1241
     66  CA       -12.0950   -9.7300  -12.7590 C.3    67  TRP67       0.1605
     67  C        -12.3420  -10.5900  -14.0080 C.2    67  TRP67       0.2264
     68  O        -11.9970  -10.2530  -15.1680 O.2    67  TRP67      -0.2867
     69  CB       -11.3000   -8.4800  -13.0800 C.3    67  TRP67       0.0550
     70  CG       -11.2630   -7.5500  -11.9260 C.ar   67  TRP67       0.0003
     71  CD1      -10.1570   -7.2700  -11.1240 C.ar   67  TRP67       0.0946
     72  CD2      -12.3160   -6.6550  -11.5480 C.ar   67  TRP67       0.0152
     73  NE1      -10.5370   -6.3550  -10.1690 N.ar   67  TRP67      -0.2442
     74  CE2      -11.8740   -6.0150  -10.3390 C.ar   67  TRP67       0.0810
     75  CE3      -13.6590   -6.5000  -11.9450 C.ar   67  TRP67       0.0012
     76  CZ2      -12.6130   -5.0380   -9.7390 C.ar   67  TRP67       0.0191
     77  CZ3      -14.4150   -5.5630  -11.3270 C.ar   67  TRP67       0.0001
     78  CH2      -13.9220   -4.8870  -10.1560 C.ar   67  TRP67       0.0015
     79  N         -9.9900   -9.8660  -17.2050 N.3    74  ALA74      -0.1245
     80  CA        -8.9190   -8.8880  -17.0500 C.3    74  ALA74       0.1562
     81  C         -7.6840   -9.4550  -16.3230 C.2    74  ALA74       0.2260
     82  O         -6.7650   -8.7080  -15.9870 O.2    74  ALA74      -0.2867
     83  CB        -9.4440   -7.6540  -16.3900 C.3    74  ALA74       0.0290
     84  N         -6.8860  -10.4500  -13.3320 N.3    76  SER76      -0.1217
     85  CA        -6.5520   -9.5250  -12.1920 C.3    76  SER76       0.1889
     86  C         -7.5490   -9.7250  -11.1420 C.2    76  SER76       0.2288
     87  O         -8.6010  -10.2770  -11.3000 O.2    76  SER76      -0.2866
     88  CB        -6.4060   -8.0530  -12.5990 C.3    76  SER76       0.2089
     89  OG        -7.5780   -7.6230  -13.3010 O.3    76  SER76      -0.2183
     90  N         -8.9090   -7.6420   -7.3350 N.3    78  THR78      -0.1218
     91  CA        -8.8240   -6.5800   -6.3370 C.3    78  THR78       0.1862
     92  C         -9.2560   -7.0220   -5.0130 C.2    78  THR78       0.2287
     93  O        -10.2940   -7.7430   -4.9050 O.2    78  THR78      -0.2866
     94  CB        -9.6100   -5.3350   -6.7400 C.3    78  THR78       0.1770
     95  OG1       -9.2110   -4.9290   -8.0730 O.3    78  THR78      -0.2211
     96  CG2       -9.5250   -4.1770   -5.8290 C.3    78  THR78       0.0375
     97  N        -10.3880   -5.2770   -1.2600 N.3    80  TRP80      -0.1241
     98  CA       -10.6280   -4.1170   -0.4920 C.3    80  TRP80       0.1605
     99  C        -10.5360   -4.4830    0.9660 C.2    80  TRP80       0.2264
    100  O        -11.1790   -5.4700    1.3730 O.2    80  TRP80      -0.2867
    101  CB       -12.0810   -3.5510   -0.7290 C.3    80  TRP80       0.0550
    102  CG       -12.2700   -2.9770   -2.1040 C.ar   80  TRP80       0.0003
    103  CD1      -12.4110   -1.6300   -2.3550 C.ar   80  TRP80       0.0946
    104  CD2      -12.4780   -3.6110   -3.3680 C.ar   80  TRP80       0.0152
    105  NE1      -12.6420   -1.3820   -3.7190 N.ar   80  TRP80      -0.2442
    106  CE2      -12.7610   -2.6330   -4.3080 C.ar   80  TRP80       0.0810
    107  CE3      -12.6160   -4.9590   -3.7330 C.ar   80  TRP80       0.0012
    108  CZ2      -13.0450   -2.9840   -5.6940 C.ar   80  TRP80       0.0191
    109  CZ3      -12.8860   -5.2420   -5.0830 C.ar   80  TRP80       0.0001
    110  CH2      -13.1660   -4.2760   -5.9510 C.ar   80  TRP80       0.0015
    111  N         -7.4190   -0.5050   -1.2170 N.3    96  TRP96      -0.1241
    112  CA        -7.4520   -1.6990   -2.0630 C.3    96  TRP96       0.1605
    113  C         -6.1490   -1.9530   -2.7500 C.2    96  TRP96       0.2264
    114  O         -5.3110   -1.0860   -2.9200 O.2    96  TRP96      -0.2867
    115  CB        -8.6080   -1.5920   -3.0810 C.3    96  TRP96       0.0550
    116  CG        -8.6250   -0.3790   -3.9470 C.ar   96  TRP96       0.0003
    117  CD1       -9.5240    0.6580   -3.8440 C.ar   96  TRP96       0.0946
    118  CD2       -7.9050   -0.1230   -5.1550 C.ar   96  TRP96       0.0152
    119  NE1       -9.3410    1.5920   -4.8450 N.ar   96  TRP96      -0.2442
    120  CE2       -8.2890    1.1750   -5.6500 C.ar   96  TRP96       0.0810
    121  CE3       -6.8240   -0.7560   -5.7770 C.ar   96  TRP96       0.0012
    122  CZ2       -7.7710    1.6980   -6.8150 C.ar   96  TRP96       0.0191
    123  CZ3       -6.3080   -0.2390   -6.9410 C.ar   96  TRP96       0.0001
    124  CH2       -6.6860    1.0280   -7.3800 C.ar   96  TRP96       0.0015
    125  N         -4.9090   -4.0590   -6.2540 N.3    98  LEU98      -0.1245
    126  CA        -5.2650   -4.7070   -7.5330 C.3    98  LEU98       0.1561
    127  C         -4.0160   -5.3460   -8.1040 C.2    98  LEU98       0.2260
    128  O         -3.0860   -4.6950   -8.4840 O.2    98  LEU98      -0.2867
    129  CB        -5.9260   -3.6860   -8.4360 C.3    98  LEU98       0.0270
    130  CG        -6.2720   -4.1330   -9.9300 C.3    98  LEU98       0.0019
    131  CD1       -7.0910   -2.9850  -10.5320 C.3    98  LEU98       0.0001
    132  CD2       -5.2460   -4.7800  -10.8500 C.3    98  LEU98       0.0001
    133  N         -2.4120   -7.7660  -11.1070 N.3   100  TYR100     -0.1241
    134  CA        -2.5450   -8.2830  -12.4720 C.3   100  TYR100      0.1605
    135  C         -1.5680   -9.4110  -12.6000 C.2   100  TYR100      0.2264
    136  O         -0.4140   -9.3290  -12.1330 O.2   100  TYR100     -0.2867
    137  CB        -2.2980   -7.2000  -13.5030 C.3   100  TYR100      0.0534
    138  CG        -2.4210   -7.6130  -14.9550 C.ar  100  TYR100     -0.0201
    139  CD1       -3.6680   -7.7990  -15.4930 C.ar  100  TYR100     -0.0009
    140  CD2       -1.2950   -7.8430  -15.7200 C.ar  100  TYR100     -0.0009
    141  CE1       -3.8310   -8.1750  -16.8360 C.ar  100  TYR100      0.0417
    142  CE2       -1.4270   -8.2560  -17.0470 C.ar  100  TYR100      0.0417
    143  CZ        -2.6760   -8.4390  -17.5600 C.ar  100  TYR100      0.1957
    144  OH        -2.7270   -8.7900  -18.9150 O.3   100  TYR100     -0.2866
    145  N         -1.4220   -2.3830   -8.2410 N.3   112  LEU112     -0.1245
    146  CA        -1.9420   -1.0170   -7.9660 C.3   112  LEU112      0.1561
    147  C         -2.5040   -0.9190   -6.5380 C.2   112  LEU112      0.2260
    148  O         -3.0750   -1.9120   -6.0310 O.2   112  LEU112     -0.2867
    149  CB        -3.0090   -0.6600   -8.9920 C.3   112  LEU112      0.0270
    150  CG        -2.4970   -0.5250  -10.4200 C.3   112  LEU112      0.0019
    151  CD1       -3.7190   -0.4740  -11.3250 C.3   112  LEU112      0.0001
    152  CD2       -1.6660    0.7320  -10.6050 C.3   112  LEU112      0.0001
    153  N        -11.0910    3.6270   -1.8470 N.3   116  ASP116     -0.1239
    154  CA       -12.5350    3.8500   -2.2460 C.3   116  ASP116      0.1674
    155  C        -13.2810    4.0830   -0.9900 C.2   116  ASP116      0.2266
    156  O        -13.1780    3.4500    0.0620 O.2   116  ASP116     -0.2867
    157  CB       -13.0330    2.6260   -2.9530 C.3   116  ASP116      0.1410
    158  CG       -12.5960    2.4140   -4.4130 C.2   116  ASP116      0.3668
    159  OD1      -11.8300    3.2640   -4.9370 O.co2 116  ASP116     -0.2456
    160  OD2      -12.8810    1.2680   -4.8220 O.co2 116  ASP116     -0.2456
@<TRIPOS>BOND
     1    58    57    2
     2    59    57   am
     3    57    56    1
     4   144   143    1
     5    56    53    1
     6    53    54    1
     7    53    52    1
     8    63    62    2
     9    51    50    2
    10   143   142   ar
    11   143   141   ar
    12    54    60   am
    13    54    55    2
    14    60    61    1
    15    62    61    1
    16    79    80    1
    17    80    83    1
    18    80    81    1
    19   142   140   ar
    20    52    50   am
    21    50    49    1
    22   141   139   ar
    23    61    64    1
    24    81    82    2
    25    49    48    1
    26    48    43   am
    27   140   138   ar
    28   139   138   ar
    29    68    67    2
    30   138   137    1
    31    43    42    1
    32    43    44    2
    33    42    41    1
    34    42    45    1
    35    67    66    1
    36    38    37    2
    37    45    46    1
    38    45    47    1
    39   137   134    1
    40    84    85    1
    41    89    88    1
    42    69    66    1
    43    69    70    1
    44    37    36    1
    45    66    65    1
    46   135   134    1
    47   135   136    2
    48    88    85    1
    49   134   133    1
    50    85    86    1
    51    40    39    1
    52    39    36    1
    53    75    72   ar
    54    75    77   ar
    55    70    72   ar
    56    70    71   ar
    57    36    35    1
    58    72    74   ar
    59    77    78   ar
    60   151   150    1
    61    87    86    2
    62    71    73   ar
    63    12    11    1
    64   132   130    1
    65   152   150    1
    66   131   130    1
    67   150   149    1
    68    74    73   ar
    69    74    76   ar
    70    26    25    2
    71    78    76   ar
    72   130   129    1
    73    11    10    1
    74    16    14    1
    75    22    21    1
    76    13    10    1
    77    13    14    1
    78    25    24    1
    79    10     9    1
    80    18    17    1
    81    18    21    1
    82    18    19    1
    83   149   146    1
    84    15    14    1
    85   128   127    2
    86   129   126    1
    87   145   146    1
    88   127   126    1
    89    29    31   ar
    90    29    28   ar
    91    95    94    1
    92    19    20    2
    93   146   147    1
    94    24    23    1
    95    24    27    1
    96    31    33   ar
    97   126   125    1
    98    27    28    1
    99   124   123   ar
   100   124   122   ar
   101    90    91    1
   102    28    30   ar
   103   123   121   ar
   104     7     6    2
   105   122   120   ar
   106    94    91    1
   107    94    96    1
   108   147   148    2
   109    33    34    1
   110    33    32   ar
   111    91    92    1
   112     4     3    2
   113     8     6   am
   114   110   108   ar
   115   110   109   ar
   116     6     5    1
   117    30    32   ar
   118   121   118   ar
   119   108   106   ar
   120   120   118   ar
   121   120   119   ar
   122     3     2    1
   123   118   116   ar
   124   109   107   ar
   125    92    93    2
   126   159   158   ar
   127   119   117   ar
   128   160   158   ar
   129     1     2    1
   130     5     2    1
   131   158   157    1
   132   106   105   ar
   133   106   104   ar
   134   116   117   ar
   135   116   115    1
   136   107   104   ar
   137   105   103   ar
   138   104   102   ar
   139   115   112    1
   140   157   154    1
   141   114   113    2
   142   113   112    1
   143   103   102   ar
   144   154   153    1
   145   154   155    1
   146   102   101    1
   147   112   111    1
   148    97    98    1
   149   155   156    2
   150   101    98    1
   151    98    99    1
   152    99   100    2
