@<TRIPOS>MOLECULE
tmp/6aufA00.pdb
 139 136 0 0 0
SMALL
GASTEIGER

@<TRIPOS>ATOM
      1  N         27.2440   34.2600   28.5150 N.3    14  ARG14      -0.1245
      2  CA        28.6490   33.8820   28.4670 C.3    14  ARG14       0.1563
      3  C         29.1530   33.4270   29.8300 C.2    14  ARG14       0.2260
      4  O         29.9450   32.4780   29.9130 O.2    14  ARG14      -0.2867
      5  CB        29.4890   35.0490   27.9510 C.3    14  ARG14       0.0307
      6  CG        29.0900   35.5350   26.5740 C.3    14  ARG14       0.0489
      7  CD        29.2420   34.4430   25.5580 C.3    14  ARG14       0.2205
      8  NE        28.5540   34.7660   24.3120 N.pl3  14  ARG14      -0.0865
      9  CZ        29.1630   35.0560   23.1660 C.cat  14  ARG14       0.5346
     10  NH1       28.4380   35.3250   22.0890 N.pl3  14  ARG14       0.1354
     11  NH2       30.4860   35.0640   23.0930 N.pl3  14  ARG14       0.1354
     12  N         29.1960   29.6070   30.2540 N.3    17  TRP17      -0.1241
     13  CA        29.7030   28.6240   29.2940 C.3    17  TRP17       0.1605
     14  C         30.7650   27.7280   29.9110 C.2    17  TRP17       0.2264
     15  O         30.7280   26.5060   29.7380 O.2    17  TRP17      -0.2867
     16  CB        30.2590   29.3100   28.0510 C.3    17  TRP17       0.0550
     17  CG        29.2060   29.9000   27.1660 C.ar   17  TRP17       0.0003
     18  CD1       27.8630   29.9770   27.4170 C.ar   17  TRP17       0.0946
     19  CD2       29.4110   30.5070   25.8900 C.ar   17  TRP17       0.0152
     20  NE1       27.2230   30.6020   26.3770 N.ar   17  TRP17      -0.2442
     21  CE2       28.1510   30.9300   25.4220 C.ar   17  TRP17       0.0810
     22  CE3       30.5390   30.7400   25.0960 C.ar   17  TRP17       0.0012
     23  CZ2       27.9890   31.5710   24.1920 C.ar   17  TRP17       0.0191
     24  CZ3       30.3760   31.3770   23.8770 C.ar   17  TRP17       0.0001
     25  CH2       29.1140   31.7880   23.4430 C.ar   17  TRP17       0.0015
     26  N         27.7960   21.1510   16.3370 N.3    84  HIS84      -0.1241
     27  CA        28.3450   21.9510   15.2510 C.3    84  HIS84       0.1621
     28  C         29.7500   22.4000   15.6300 C.2    84  HIS84       0.2264
     29  O         30.2320   22.1340   16.7270 O.2    84  HIS84      -0.2867
     30  CB        27.4060   23.1090   14.8710 C.3    84  HIS84       0.0745
     31  CG        27.4160   24.2710   15.8160 C.ar   84  HIS84       0.0817
     32  ND1       26.4030   24.5050   16.7220 N.ar   84  HIS84      -0.2268
     33  CD2       28.2820   25.3040   15.9490 C.ar   84  HIS84       0.1154
     34  CE1       26.6490   25.6280   17.3750 C.ar   84  HIS84       0.1986
     35  NE2       27.7900   26.1240   16.9360 N.ar   84  HIS84      -0.2212
     36  N         31.8230   24.9620   16.2360 N.3    86  HIS86      -0.1226
     37  CA        32.2990   26.1770   16.8790 C.3    86  HIS86       0.1752
     38  C         32.9940   25.8470   18.1940 C.2    86  HIS86       0.2596
     39  O         32.7290   24.8080   18.8020 O.2    86  HIS86      -0.2718
     40  CB        31.1410   27.1470   17.0950 C.3    86  HIS86       0.0759
     41  CG        30.6080   27.7230   15.8160 C.ar   86  HIS86       0.0818
     42  ND1       29.3370   28.2420   15.7020 N.ar   86  HIS86      -0.2268
     43  CD2       31.1790   27.8560   14.5940 C.ar   86  HIS86       0.1154
     44  CE1       29.1500   28.6770   14.4720 C.ar   86  HIS86       0.1986
     45  NE2       30.2530   28.4570   13.7790 N.ar   86  HIS86      -0.2212
     46  N         33.9000   26.7420   18.6140 N.am   87  HIS87      -0.1961
     47  CA        34.7670   26.4780   19.7680 C.3    87  HIS87       0.1787
     48  C         33.9710   26.2850   21.0550 C.2    87  HIS87       0.2620
     49  O         34.3680   25.5020   21.9260 O.2    87  HIS87      -0.2715
     50  CB        35.7450   27.6300   19.9610 C.3    87  HIS87       0.0785
     51  CG        35.0760   28.8810   20.4220 C.ar   87  HIS87       0.0821
     52  ND1       34.8770   29.1700   21.7530 N.ar   87  HIS87      -0.2267
     53  CD2       34.4860   29.8820   19.7280 C.ar   87  HIS87       0.1154
     54  CE1       34.2320   30.3170   21.8600 C.ar   87  HIS87       0.1986
     55  NE2       33.9850   30.7710   20.6460 N.ar   87  HIS87      -0.2212
     56  N         32.8690   27.0230   21.2150 N.am   88  ASP88      -0.1957
     57  CA        32.0980   26.9390   22.4500 C.3    88  ASP88       0.1840
     58  C         31.4510   25.5720   22.6280 C.2    88  ASP88       0.2622
     59  O         31.0800   25.2130   23.7520 O.2    88  ASP88      -0.2715
     60  CB        31.0240   28.0220   22.4610 C.3    88  ASP88       0.1450
     61  CG        30.2390   28.0450   21.1700 C.2    88  ASP88       0.3671
     62  OD1       30.8890   27.8910   20.1120 O.co2  88  ASP88      -0.2456
     63  OD2       28.9950   28.1880   21.2050 O.co2  88  ASP88      -0.2456
     64  N         31.2840   24.8130   21.5460 N.am   89  HIS89      -0.1973
     65  CA        30.6770   23.4950   21.6420 C.3    89  HIS89       0.1656
     66  C         31.6620   22.3580   21.4640 C.2    89  HIS89       0.2291
     67  O         31.4720   21.2910   22.0500 O.2    89  HIS89      -0.2864
     68  CB        29.5640   23.3520   20.6040 C.3    89  HIS89       0.0771
     69  CG        28.4740   24.3570   20.7580 C.ar   89  HIS89       0.0820
     70  ND1       27.4190   24.1810   21.6280 N.ar   89  HIS89      -0.2267
     71  CD2       28.2800   25.5590   20.1680 C.ar   89  HIS89       0.1154
     72  CE1       26.6160   25.2260   21.5590 C.ar   89  HIS89       0.1986
     73  NE2       27.1140   26.0750   20.6780 N.ar   89  HIS89      -0.2212
     74  N         29.9130   33.3810   10.0400 N.3   125  GLN125     -0.1245
     75  CA        30.5390   33.9970   11.1980 C.3   125  GLN125      0.1566
     76  C         32.0530   34.0840   11.1070 C.2   125  GLN125      0.2260
     77  O         32.6600   34.7630   11.9360 O.2   125  GLN125     -0.2867
     78  CB        30.1710   33.2360   12.4710 C.3   125  GLN125      0.0367
     79  CG        28.7990   33.5520   12.9940 C.3   125  GLN125      0.0905
     80  CD        28.6270   33.0400   14.3930 C.2   125  GLN125      0.2608
     81  OE1       29.0560   33.6770   15.3560 O.2   125  GLN125     -0.2717
     82  NE2       28.0330   31.8630   14.5190 N.am  125  GLN125     -0.0878
     83  N         34.8000   36.3010   12.2010 N.3   128  LEU128     -0.1231
     84  CA        34.4880   36.7810   13.5430 C.3   128  LEU128      0.1693
     85  C         34.8540   35.7310   14.5870 C.2   128  LEU128      0.2591
     86  O         35.6800   35.9760   15.4740 O.2   128  LEU128     -0.2718
     87  CB        33.0010   37.1490   13.6220 C.3   128  LEU128      0.0284
     88  CG        32.1900   36.8940   14.8960 C.3   128  LEU128      0.0019
     89  CD1       32.3730   38.0220   15.9150 C.3   128  LEU128      0.0001
     90  CD2       30.7160   36.7040   14.5470 C.3   128  LEU128      0.0001
     91  N         34.2670   34.5390   14.4730 N.am  129  ILE129     -0.1980
     92  CA        34.4810   33.4810   15.4510 C.3   129  ILE129      0.1595
     93  C         35.9460   33.0380   15.4440 C.2   129  ILE129      0.2287
     94  O         36.6550   33.1440   14.4330 O.2   129  ILE129     -0.2864
     95  CB        33.5220   32.3080   15.1530 C.3   129  ILE129      0.0276
     96  CG1       32.8360   31.8080   16.4350 C.3   129  ILE129      0.0022
     97  CG2       34.2420   31.1830   14.4050 C.3   129  ILE129      0.0022
     98  CD1       31.9020   32.8200   17.0730 C.3   129  ILE129      0.0001
     99  N         22.5810   26.6890   11.1470 N.3   162  HIS162     -0.1241
    100  CA        23.3590   27.6330   11.9360 C.3   162  HIS162      0.1621
    101  C         24.7810   27.7630   11.4210 C.2   162  HIS162      0.2264
    102  O         25.3730   28.8460   11.5110 O.2   162  HIS162     -0.2867
    103  CB        23.3450   27.2110   13.4200 C.3   162  HIS162      0.0745
    104  CG        24.4220   27.8530   14.2510 C.ar  162  HIS162      0.0817
    105  ND1       24.3130   29.1260   14.7720 N.ar  162  HIS162     -0.2268
    106  CD2       25.6410   27.4020   14.6270 C.ar  162  HIS162      0.1154
    107  CE1       25.4130   29.4290   15.4390 C.ar  162  HIS162      0.1986
    108  NE2       26.2330   28.3990   15.3670 N.ar  162  HIS162     -0.2212
    109  N         21.9360   24.1640   17.6240 N.3   188  SER188     -0.1217
    110  CA        21.6060   25.5800   17.4830 C.3   188  SER188      0.1889
    111  C         21.0890   25.8420   16.0740 C.2   188  SER188      0.2288
    112  O         21.5900   25.2700   15.1020 O.2   188  SER188     -0.2866
    113  CB        22.8360   26.4510   17.7430 C.3   188  SER188      0.2089
    114  OG        23.5940   25.9390   18.8180 O.3   188  SER188     -0.2183
    115  N         20.3080   29.2220   14.9370 N.3   190  THR190     -0.1218
    116  CA        20.3090   30.6660   14.7650 C.3   190  THR190      0.1862
    117  C         21.1050   31.0370   13.5240 C.2   190  THR190      0.2287
    118  O         22.2340   30.5710   13.3460 O.2   190  THR190     -0.2866
    119  CB        20.9070   31.3330   16.0080 C.3   190  THR190      0.1770
    120  OG1       22.1960   30.7620   16.2770 O.3   190  THR190     -0.2211
    121  CG2       20.0120   31.0940   17.2260 C.3   190  THR190      0.0375
    122  N         23.1080   33.6780   12.1110 N.3   192  ILE192     -0.1245
    123  CA        23.8120   34.8730   12.5580 C.3   192  ILE192      0.1561
    124  C         25.1550   34.9220   11.8560 C.2   192  ILE192      0.2260
    125  O         25.7050   33.8900   11.4650 O.2   192  ILE192     -0.2867
    126  CB        23.9920   34.9080   14.0990 C.3   192  ILE192      0.0252
    127  CG1       24.6830   33.6370   14.6010 C.3   192  ILE192      0.0019
    128  CG2       22.6390   35.1290   14.7980 C.3   192  ILE192      0.0019
    129  CD1       24.7510   33.5240   16.1390 C.3   192  ILE192      0.0001
    130  N         22.7270   24.8330   23.5140 N.3   228  HIS228     -0.1241
    131  CA        22.5550   25.8470   24.5390 C.3   228  HIS228      0.1621
    132  C         21.2890   25.4890   25.2810 C.2   228  HIS228      0.2264
    133  O         20.1970   25.5420   24.6840 O.2   228  HIS228     -0.2867
    134  CB        22.4400   27.2540   23.9510 C.3   228  HIS228      0.0745
    135  CG        23.7160   27.7830   23.3850 C.ar  228  HIS228      0.0817
    136  ND1       24.5480   28.6240   24.0920 N.ar  228  HIS228     -0.2268
    137  CD2       24.3030   27.5940   22.1780 C.ar  228  HIS228      0.1154
    138  CE1       25.5970   28.9250   23.3480 C.ar  228  HIS228      0.1986
    139  NE2       25.4710   28.3160   22.1810 N.ar  228  HIS228     -0.2212
@<TRIPOS>BOND
     1    74    75    1
     2    76    75    1
     3    76    77    2
     4    99   100    1
     5    75    78    1
     6   101   102    2
     7   101   100    1
     8   125   124    2
     9   124   123    1
    10   100   103    1
    11   122   123    1
    12    83    84    1
    13    78    79    1
    14   123   126    1
    15    79    80    1
    16   118   117    2
    17   103   104    1
    18   117   116    1
    19    84    87    1
    20    84    85    1
    21    87    88    1
    22    45    44   ar
    23    45    43   ar
    24   126   127    1
    25   126   128    1
    26   104   106   ar
    27   104   105   ar
    28    80    82   am
    29    80    81    2
    30    97    95    1
    31    94    93    2
    32    44    42   ar
    33    91    85   am
    34    91    92    1
    35    90    88    1
    36    85    86    2
    37    43    41   ar
    38   127   129    1
    39   106   108   ar
    40   116   115    1
    41   116   119    1
    42   105   107   ar
    43    30    27    1
    44    30    31    1
    45    88    89    1
    46   112   111    2
    47    95    92    1
    48    95    96    1
    49    27    28    1
    50    27    26    1
    51   108   107   ar
    52    93    92    1
    53    28    29    2
    54    42    41   ar
    55    41    40    1
    56    31    33   ar
    57    31    32   ar
    58    33    35   ar
    59   119   120    1
    60   119   121    1
    61   111   110    1
    62    36    37    1
    63    96    98    1
    64    32    34   ar
    65    37    40    1
    66    37    38    1
    67    35    34   ar
    68   110   109    1
    69   110   113    1
    70   113   114    1
    71    38    46   am
    72    38    39    2
    73    46    47    1
    74    53    51   ar
    75    53    55   ar
    76    47    50    1
    77    47    48    1
    78    50    51    1
    79    62    61   ar
    80    71    73   ar
    81    71    69   ar
    82    51    52   ar
    83    68    69    1
    84    68    65    1
    85    55    54   ar
    86    73    72   ar
    87    69    70   ar
    88    48    56   am
    89    48    49    2
    90    61    63   ar
    91    61    60    1
    92    56    57    1
    93    66    65    1
    94    66    67    2
    95    64    65    1
    96    64    58   am
    97    72    70   ar
    98    52    54   ar
    99    10     9    1
   100   137   139   ar
   101   137   135   ar
   102   139   138   ar
   103    57    60    1
   104    57    58    1
   105    58    59    2
   106    11     9    1
   107     9     8    2
   108   138   136   ar
   109   135   134    1
   110   135   136   ar
   111    25    24   ar
   112    25    23   ar
   113   130   131    1
   114    24    22   ar
   115   134   131    1
   116    23    21   ar
   117     8     7    1
   118   131   132    1
   119   133   132    2
   120    22    19   ar
   121    21    19   ar
   122    21    20   ar
   123     7     6    1
   124    19    17   ar
   125    20    18   ar
   126     6     5    1
   127    17    18   ar
   128    17    16    1
   129     5     2    1
   130    16    13    1
   131     2     1    1
   132     2     3    1
   133    13    14    1
   134    13    12    1
   135    15    14    2
   136     3     4    2
