@<TRIPOS>MOLECULE
tmp/6augA00.pdb
 215 203 0 0 0
SMALL
GASTEIGER

@<TRIPOS>ATOM
      1  N        -23.9400   40.2920    9.1890 N.3    65  ILE65      -0.1231
      2  CA       -24.5030   38.9440    9.0990 C.3    65  ILE65       0.1692
      3  C        -24.6940   38.3490   10.4930 C.2    65  ILE65       0.2592
      4  O        -25.7640   37.8290   10.8250 O.2    65  ILE65      -0.2718
      5  CB       -23.6080   38.0480    8.2260 C.3    65  ILE65       0.0266
      6  CG1      -23.5130   38.6090    6.8070 C.3    65  ILE65       0.0019
      7  CG2      -24.1310   36.6170    8.2120 C.3    65  ILE65       0.0020
      8  CD1      -22.7780   37.6860    5.8400 C.3    65  ILE65       0.0001
      9  N        -23.6500   38.4160   11.3250 N.am   66  PHE66      -0.1976
     10  CA       -23.7180   37.8720   12.6800 C.3    66  PHE66       0.1639
     11  C        -24.8350   38.5150   13.4990 C.2    66  PHE66       0.2290
     12  O        -25.5570   37.8250   14.2270 O.2    66  PHE66      -0.2864
     13  CB       -22.3690   38.0540   13.3820 C.3    66  PHE66       0.0560
     14  CG       -22.3250   37.4730   14.7620 C.ar   66  PHE66      -0.0200
     15  CD1      -22.8330   38.1760   15.8490 C.ar   66  PHE66      -0.0042
     16  CD2      -21.7940   36.2200   14.9740 C.ar   66  PHE66      -0.0042
     17  CE1      -22.8110   37.6320   17.1140 C.ar   66  PHE66      -0.0003
     18  CE2      -21.7560   35.6790   16.2410 C.ar   66  PHE66      -0.0003
     19  CZ       -22.2670   36.3860   17.3130 C.ar   66  PHE66      -0.0000
     20  N        -28.0430   37.0650   12.2660 N.3    69  CYS69      -0.1221
     21  CA       -28.2450   35.7130   12.7640 C.3    69  CYS69       0.1808
     22  C        -28.6160   35.7340   14.2400 C.2    69  CYS69       0.2601
     23  O        -29.4610   34.9510   14.6910 O.2    69  CYS69      -0.2717
     24  CB       -26.9830   34.8860   12.5190 C.3    69  CYS69       0.0970
     25  SG       -26.7850   33.4470   13.5910 S.3    69  CYS69      -0.0800
     26  N        -28.0030   36.6370   15.0020 N.am   70  GLN70      -0.1979
     27  CA       -28.3610   36.8130   16.4050 C.3    70  GLN70       0.1601
     28  C        -29.8110   37.2640   16.5700 C.2    70  GLN70       0.2287
     29  O        -30.4590   36.9190   17.5670 O.2    70  GLN70      -0.2864
     30  CB       -27.3970   37.8130   17.0540 C.3    70  GLN70       0.0394
     31  CG       -27.9700   38.5900   18.2190 C.3    70  GLN70       0.0908
     32  CD       -27.0970   39.7620   18.6430 C.2    70  GLN70       0.2608
     33  OE1      -27.5990   40.7610   19.1650 O.2    70  GLN70      -0.2717
     34  NE2      -25.7830   39.6380   18.4410 N.am   70  GLN70      -0.0878
     35  N        -32.4050   36.5150   14.5050 N.3    72  ARG72      -0.1231
     36  CA       -33.2000   35.3180   14.2840 C.3    72  ARG72       0.1694
     37  C        -33.1950   34.4090   15.5100 C.2    72  ARG72       0.2592
     38  O        -34.1080   33.5920   15.6810 O.2    72  ARG72      -0.2718
     39  CB       -32.6730   34.5910   13.0430 C.3    72  ARG72       0.0321
     40  CG       -33.2190   33.1790   12.7890 C.3    72  ARG72       0.0489
     41  CD       -34.7430   33.1270   12.7960 C.3    72  ARG72       0.2205
     42  NE       -35.3000   31.7780   12.8670 N.pl3  72  ARG72      -0.0865
     43  CZ       -36.5650   31.5350   13.2020 C.cat  72  ARG72       0.5346
     44  NH1      -37.3700   32.5610   13.4870 N.pl3  72  ARG72       0.1354
     45  NH2      -37.0240   30.2830   13.2570 N.pl3  72  ARG72       0.1354
     46  N        -32.2030   34.5400   16.3850 N.am   73  SER73      -0.1952
     47  CA       -32.2190   33.7050   17.5760 C.3    73  SER73       0.1924
     48  C        -33.1730   34.2370   18.6430 C.2    73  SER73       0.2314
     49  O        -33.8040   33.4340   19.3400 O.2    73  SER73      -0.2863
     50  CB       -30.8050   33.5500   18.1280 C.3    73  SER73       0.2116
     51  OG       -30.2210   32.3660   17.6300 O.3    73  SER73      -0.2180
     52  N        -36.3490   33.1480   17.4930 N.3    76  ALA76      -0.1245
     53  CA       -36.4590   31.7270   17.7470 C.3    76  ALA76       0.1562
     54  C        -36.7870   31.4610   19.2090 C.2    76  ALA76       0.2260
     55  O        -37.6030   30.5840   19.5090 O.2    76  ALA76      -0.2867
     56  CB       -35.1790   31.0320   17.3140 C.3    76  ALA76       0.0290
     57  N        -31.4370   26.7890   23.5110 N.3   107  HIS107     -0.1241
     58  CA       -30.3420   26.6360   22.5640 C.3   107  HIS107      0.1621
     59  C        -30.4020   25.2830   21.8780 C.2   107  HIS107      0.2264
     60  O        -30.4460   25.2030   20.6480 O.2   107  HIS107     -0.2867
     61  CB       -29.0080   26.8120   23.2810 C.3   107  HIS107      0.0745
     62  CG       -28.3430   28.1200   22.9980 C.ar  107  HIS107      0.0817
     63  ND1      -28.0560   28.5460   21.7190 N.ar  107  HIS107     -0.2268
     64  CD2      -27.9010   29.0950   23.8280 C.ar  107  HIS107      0.1154
     65  CE1      -27.4710   29.7310   21.7730 C.ar  107  HIS107      0.1986
     66  NE2      -27.3660   30.0870   23.0400 N.ar  107  HIS107     -0.2212
     67  N        -32.9700   25.5430   19.3950 N.3   110  ILE110     -0.1231
     68  CA       -32.5320   26.3570   18.2640 C.3   110  ILE110      0.1692
     69  C        -31.8980   25.4890   17.1890 C.2   110  ILE110      0.2592
     70  O        -32.2280   25.5940   16.0040 O.2   110  ILE110     -0.2718
     71  CB       -31.5430   27.4410   18.7210 C.3   110  ILE110      0.0266
     72  CG1      -32.2030   28.4210   19.6910 C.3   110  ILE110      0.0019
     73  CG2      -30.9560   28.1500   17.5100 C.3   110  ILE110      0.0020
     74  CD1      -33.4930   28.8940   19.2250 C.3   110  ILE110      0.0001
     75  N        -30.9750   24.6200   17.5850 N.am  111  TYR111     -0.1976
     76  CA       -30.1800   23.9370   16.5760 C.3   111  TYR111      0.1639
     77  C        -30.8350   22.6480   16.0940 C.2   111  TYR111      0.2290
     78  O        -30.6270   22.2540   14.9380 O.2   111  TYR111     -0.2864
     79  CB       -28.7510   23.7350   17.1070 C.3   111  TYR111      0.0560
     80  CG       -28.1490   25.0950   17.4150 C.ar  111  TYR111     -0.0198
     81  CD1      -27.9940   26.0480   16.4050 C.ar  111  TYR111     -0.0009
     82  CD2      -27.8120   25.4690   18.7130 C.ar  111  TYR111     -0.0009
     83  CE1      -27.4830   27.3200   16.6720 C.ar  111  TYR111      0.0417
     84  CE2      -27.3060   26.7400   18.9880 C.ar  111  TYR111      0.0417
     85  CZ       -27.1410   27.6590   17.9630 C.ar  111  TYR111      0.1957
     86  OH       -26.6290   28.9180   18.2270 O.3   111  TYR111     -0.2866
     87  N        -33.0640   24.4340   13.5290 N.3   114  LEU114     -0.1245
     88  CA       -32.2390   24.9640   12.4500 C.3   114  LEU114      0.1561
     89  C        -31.8540   23.8740   11.4430 C.2   114  LEU114      0.2260
     90  O        -31.7470   24.1480   10.2410 O.2   114  LEU114     -0.2867
     91  CB       -31.0030   25.6350   13.0580 C.3   114  LEU114      0.0270
     92  CG       -29.8460   26.1210   12.1890 C.3   114  LEU114      0.0019
     93  CD1      -30.3160   27.2120   11.2960 C.3   114  LEU114      0.0001
     94  CD2      -28.7040   26.6030   13.0680 C.3   114  LEU114      0.0001
     95  N        -33.9780   23.8150    8.5360 N.3   117  LEU117     -0.1245
     96  CA       -33.7180   24.8730    7.5760 C.3   117  LEU117      0.1561
     97  C        -32.4250   24.6710    6.7910 C.2   117  LEU117      0.2260
     98  O        -32.0640   25.5510    5.9970 O.2   117  LEU117     -0.2867
     99  CB       -33.6620   26.2350    8.2740 C.3   117  LEU117      0.0270
    100  CG       -34.8160   26.7540    9.1410 C.3   117  LEU117      0.0019
    101  CD1      -34.6520   28.2700    9.4300 C.3   117  LEU117      0.0001
    102  CD2      -36.1670   26.4350    8.5190 C.3   117  LEU117      0.0001
    103  N        -28.3490   27.2860    4.3220 N.3   123  VAL123     -0.1231
    104  CA       -29.4370   27.4290    5.2860 C.3   123  VAL123      0.1692
    105  C        -30.4030   28.5120    4.8260 C.2   123  VAL123      0.2592
    106  O        -29.9840   29.5480    4.3010 O.2   123  VAL123     -0.2718
    107  CB       -28.9130   27.7780    6.6880 C.3   123  VAL123      0.0266
    108  CG1      -28.3020   29.2040    6.7220 C.3   123  VAL123      0.0020
    109  CG2      -30.0260   27.5790    7.7020 C.3   123  VAL123      0.0020
    110  N        -31.7010   28.2870    5.0500 N.am  124  LEU124     -0.1966
    111  CA       -32.6970   29.2960    4.7010 C.3   124  LEU124      0.1728
    112  C        -32.6310   30.4780    5.6680 C.2   124  LEU124      0.2616
    113  O        -32.7850   30.3210    6.8820 O.2   124  LEU124     -0.2715
    114  CB       -34.0970   28.6940    4.6920 C.3   124  LEU124      0.0311
    115  CG       -34.2990   27.7000    3.5570 C.3   124  LEU124      0.0022
    116  CD1      -34.9570   26.4400    4.0870 C.3   124  LEU124      0.0001
    117  CD2      -35.1520   28.3310    2.5070 C.3   124  LEU124      0.0001
    118  N        -32.4230   31.6620    5.1330 N.am  125  ILE125     -0.1977
    119  CA       -32.5270   32.8580    5.9230 C.3   125  ILE125      0.1596
    120  C        -33.8360   33.5550    5.5830 C.2   125  ILE125      0.2287
    121  O        -34.4940   33.2480    4.5900 O.2   125  ILE125     -0.2864
    122  CB       -31.3140   33.7850    5.7030 C.3   125  ILE125      0.0276
    123  CG1      -31.4000   34.5010    4.3580 C.3   125  ILE125      0.0022
    124  CG2      -30.0100   33.0090    5.8320 C.3   125  ILE125      0.0022
    125  CD1      -30.2970   35.5120    4.1730 C.3   125  ILE125      0.0001
    126  N        -28.5220   31.0560    2.3210 N.3   132  MET132     -0.1245
    127  CA       -27.1460   31.5280    2.4740 C.3   132  MET132      0.1570
    128  C        -26.2300   30.3180    2.5120 C.2   132  MET132      0.2261
    129  O        -26.4270   29.4100    3.3270 O.2   132  MET132     -0.2867
    130  CB       -26.9700   32.3760    3.7370 C.3   132  MET132      0.0387
    131  CG       -25.8390   33.4100    3.6510 C.3   132  MET132      0.0595
    132  SD       -25.4570   34.2990    5.1990 S.3   132  MET132     -0.1393
    133  CE       -27.0270   35.0880    5.5650 C.3   132  MET132      0.0692
    134  N        -20.6100   31.5920    4.5020 N.3   137  LEU137     -0.1245
    135  CA       -20.4740   31.6790    5.9510 C.3   137  LEU137      0.1561
    136  C        -19.0800   31.2530    6.3940 C.2   137  LEU137      0.2260
    137  O        -18.4210   31.9460    7.1770 O.2   137  LEU137     -0.2867
    138  CB       -21.5400   30.8070    6.6150 C.3   137  LEU137      0.0270
    139  CG       -22.9960   31.2750    6.6740 C.3   137  LEU137      0.0019
    140  CD1      -23.8030   30.2770    7.4510 C.3   137  LEU137      0.0001
    141  CD2      -23.1200   32.6380    7.3170 C.3   137  LEU137      0.0001
    142  N        -18.0190   29.9360   12.9280 N.3   147  PHE147     -0.1227
    143  CA       -19.1030   29.9920   13.9000 C.3   147  PHE147      0.1736
    144  C        -20.2380   29.0490   13.5130 C.2   147  PHE147      0.2595
    145  O        -20.5790   28.1220   14.2590 O.2   147  PHE147     -0.2718
    146  CB       -19.6130   31.4280   14.0270 C.3   147  PHE147      0.0547
    147  CG       -20.7990   31.5730   14.9510 C.ar  147  PHE147     -0.0202
    148  CD1      -20.9280   30.7740   16.0790 C.ar  147  PHE147     -0.0042
    149  CD2      -21.7910   32.5010   14.6830 C.ar  147  PHE147     -0.0042
    150  CE1      -22.0070   30.9100   16.9240 C.ar  147  PHE147     -0.0003
    151  CE2      -22.8790   32.6340   15.5230 C.ar  147  PHE147     -0.0003
    152  CZ       -22.9880   31.8420   16.6440 C.ar  147  PHE147     -0.0000
    153  N        -20.8460   29.2810   12.3480 N.am  148  MET148     -0.1979
    154  CA       -21.9990   28.4960   11.9330 C.3   148  MET148      0.1605
    155  C        -21.6330   27.0970   11.4550 C.2   148  MET148      0.2287
    156  O        -22.5090   26.2260   11.4160 O.2   148  MET148     -0.2864
    157  CB       -22.7560   29.2350   10.8310 C.3   148  MET148      0.0413
    158  CG       -23.6530   30.3500   11.3530 C.3   148  MET148      0.0598
    159  SD       -24.8610   29.8050   12.5770 S.3   148  MET148     -0.1393
    160  CE       -25.6570   28.5110   11.6310 C.3   148  MET148      0.0692
    161  N        -22.7590   23.7820   12.9750 N.3   151  LYS151     -0.1245
    162  CA       -24.2070   23.6100   12.8820 C.3   151  LYS151      0.1561
    163  C        -24.5810   22.8100   11.6430 C.2   151  LYS151      0.2260
    164  O        -25.4250   21.9070   11.7070 O.2   151  LYS151     -0.2867
    165  CB       -24.9070   24.9690   12.8700 C.3   151  LYS151      0.0271
    166  CG       -25.1820   25.5150   14.2600 C.3   151  LYS151      0.0035
    167  CD       -23.9310   26.1140   14.8500 C.3   151  LYS151      0.0206
    168  CE       -24.1600   26.7100   16.2050 C.3   151  LYS151      0.1093
    169  NZ       -23.3390   27.9370   16.3100 N.3   151  LYS151     -0.1314
    170  N        -20.4130   26.7480   21.3570 N.3   233  HIS233     -0.1241
    171  CA       -21.0790   27.9940   20.9860 C.3   233  HIS233      0.1621
    172  C        -20.7690   29.1030   21.9870 C.2   233  HIS233      0.2264
    173  O        -20.3130   30.1880   21.6060 O.2   233  HIS233     -0.2867
    174  CB       -22.5860   27.7640   20.8920 C.3   233  HIS233      0.0745
    175  CG       -23.3490   28.9040   20.2840 C.ar  233  HIS233      0.0817
    176  ND1      -23.8150   29.9710   21.0230 N.ar  233  HIS233     -0.2268
    177  CD2      -23.7510   29.1260   19.0090 C.ar  233  HIS233      0.1154
    178  CE1      -24.4580   30.8070   20.2270 C.ar  233  HIS233      0.1986
    179  NE2      -24.4330   30.3180   19.0000 N.ar  233  HIS233     -0.2212
    180  N        -18.8560   32.5330   21.6090 N.3   237  LEU237     -0.1245
    181  CA       -19.4750   33.8290   21.8690 C.3   237  LEU237      0.1561
    182  C        -18.5550   34.7100   22.6980 C.2   237  LEU237      0.2260
    183  O        -18.1620   35.7990   22.2620 O.2   237  LEU237     -0.2867
    184  CB       -20.8180   33.6490   22.5670 C.3   237  LEU237      0.0270
    185  CG       -21.9790   33.2160   21.6720 C.3   237  LEU237      0.0019
    186  CD1      -23.2000   33.0210   22.5210 C.3   237  LEU237      0.0001
    187  CD2      -22.2460   34.2370   20.5820 C.3   237  LEU237      0.0001
    188  N        -25.4080   42.8920   21.9160 N.3   249  LEU249     -0.1245
    189  CA       -26.0440   41.5850   21.9320 C.3   249  LEU249      0.1561
    190  C        -27.4020   41.7580   22.5820 C.2   249  LEU249      0.2260
    191  O        -27.5160   42.4550   23.5950 O.2   249  LEU249     -0.2867
    192  CB       -25.2300   40.5460   22.7130 C.3   249  LEU249      0.0270
    193  CG       -25.9950   39.2660   23.0630 C.3   249  LEU249      0.0019
    194  CD1      -26.3420   38.5080   21.7730 C.3   249  LEU249      0.0001
    195  CD2      -25.2360   38.3790   24.0540 C.3   249  LEU249      0.0001
    196  N        -30.8270   37.2540   24.8000 N.3   253  LEU253     -0.1245
    197  CA       -29.7480   36.2970   24.5690 C.3   253  LEU253      0.1561
    198  C        -28.6870   36.3570   25.6610 C.2   253  LEU253      0.2260
    199  O        -27.9330   35.3940   25.8360 O.2   253  LEU253     -0.2867
    200  CB       -29.1120   36.5420   23.2030 C.3   253  LEU253      0.0270
    201  CG       -29.9280   36.0180   22.0210 C.3   253  LEU253      0.0019
    202  CD1      -29.2250   36.3000   20.7120 C.3   253  LEU253      0.0001
    203  CD2      -30.1540   34.5360   22.1960 C.3   253  LEU253      0.0001
    204  N        -26.8240   32.7090   29.1810 N.3   257  TYR257     -0.1241
    205  CA       -25.4410   32.3930   29.5520 C.3   257  TYR257      0.1605
    206  C        -25.0670   32.9540   30.9250 C.2   257  TYR257      0.2264
    207  O        -24.6330   34.1040   31.0430 O.2   257  TYR257     -0.2867
    208  CB       -24.4720   32.9050   28.4930 C.3   257  TYR257      0.0534
    209  CG       -24.9920   32.7920   27.0810 C.ar  257  TYR257     -0.0201
    210  CD1      -25.2660   31.5450   26.5270 C.ar  257  TYR257     -0.0009
    211  CD2      -25.1880   33.9210   26.2890 C.ar  257  TYR257     -0.0009
    212  CE1      -25.7390   31.4170   25.2350 C.ar  257  TYR257      0.0417
    213  CE2      -25.6530   33.8010   24.9820 C.ar  257  TYR257      0.0417
    214  CZ       -25.9340   32.5410   24.4640 C.ar  257  TYR257      0.1957
    215  OH       -26.4010   32.3800   23.1730 O.3   257  TYR257     -0.2866
@<TRIPOS>BOND
     1   126   127    1
     2   127   128    1
     3   127   130    1
     4   117   115    1
     5   128   129    2
     6   115   116    1
     7   115   114    1
     8   131   130    1
     9   131   132    1
    10   125   123    1
    11   106   105    2
    12   103   104    1
    13   123   122    1
    14   134   135    1
    15   121   120    2
    16   114   111    1
    17   111   110    1
    18   111   112    1
    19   105   110   am
    20   105   104    1
    21   118   112   am
    22   118   119    1
    23   132   133    1
    24   104   107    1
    25   120   119    1
    26   112   113    2
    27   122   124    1
    28   122   119    1
    29     8     6    1
    30   135   136    1
    31   135   138    1
    32    98    97    2
    33   136   137    2
    34   138   139    1
    35   139   141    1
    36   139   140    1
    37   107   108    1
    38   107   109    1
    39    97    96    1
    40     6     5    1
    41    96    99    1
    42    96    95    1
    43     7     5    1
    44     5     2    1
    45    99   100    1
    46   102   100    1
    47     2     1    1
    48     2     3    1
    49   100   101    1
    50    90    89    2
    51     3     4    2
    52     3     9   am
    53   157   158    1
    54   157   154    1
    55    93    92    1
    56     9    10    1
    57   158   159    1
    58   156   155    2
    59    89    88    1
    60   155   154    1
    61   160   159    1
    62   163   164    2
    63   163   162    1
    64   154   153    1
    65    92    91    1
    66    92    94    1
    67    20    21    1
    68   153   144   am
    69    88    91    1
    70    88    87    1
    71    24    21    1
    72    24    25    1
    73    10    13    1
    74    10    11    1
    75    21    22    1
    76    40    41    1
    77    40    39    1
    78    41    42    1
    79    42    43    2
    80   165   162    1
    81   165   166    1
    82   162   161    1
    83   142   143    1
    84    39    36    1
    85    43    45    1
    86    43    44    1
    87    13    14    1
    88    11    12    2
    89   144   143    1
    90   144   145    2
    91   143   146    1
    92   146   147    1
    93    22    23    2
    94    22    26   am
    95   166   167    1
    96    36    35    1
    97    36    37    1
    98   149   147   ar
    99   149   151   ar
   100    14    16   ar
   101    14    15   ar
   102   167   168    1
   103    78    77    2
   104   147   148   ar
   105    16    18   ar
   106    26    27    1
   107    37    38    2
   108    37    46   am
   109   151   152   ar
   110    15    17   ar
   111    70    69    2
   112   148   150   ar
   113    77    76    1
   114   168   169    1
   115    18    19   ar
   116    46    47    1
   117    27    28    1
   118    27    30    1
   119    81    83   ar
   120    81    80   ar
   121    28    29    2
   122    76    79    1
   123    76    75    1
   124   152   150   ar
   125    83    85   ar
   126    30    31    1
   127    79    80    1
   128    17    19   ar
   129    69    75   am
   130    69    68    1
   131    56    53    1
   132    80    82   ar
   133    52    53    1
   134    73    71    1
   135    47    50    1
   136    47    48    1
   137    51    50    1
   138    53    54    1
   139    85    86    1
   140    85    84   ar
   141    31    32    1
   142    68    71    1
   143    68    67    1
   144    34    32   am
   145    32    33    2
   146    48    49    2
   147    82    84   ar
   148    71    72    1
   149   179   177   ar
   150   179   178   ar
   151   177   175   ar
   152    54    55    2
   153    74    72    1
   154   178   176   ar
   155   175   174    1
   156   175   176   ar
   157   187   185    1
   158    60    59    2
   159   202   201    1
   160   174   171    1
   161   171   170    1
   162   171   172    1
   163   173   172    2
   164   180   181    1
   165   185   186    1
   166   185   184    1
   167    63    65   ar
   168    63    62   ar
   169   194   193    1
   170    65    66   ar
   171   181   184    1
   172   181   182    1
   173    59    58    1
   174   188   189    1
   175   189   190    1
   176   189   192    1
   177   201   203    1
   178   201   200    1
   179   183   182    2
   180    58    61    1
   181    58    57    1
   182   190   191    2
   183   192   193    1
   184    62    61    1
   185    62    64   ar
   186    66    64   ar
   187   193   195    1
   188   215   214    1
   189   200   197    1
   190   214   213   ar
   191   214   212   ar
   192   197   196    1
   193   197   198    1
   194   213   211   ar
   195   212   210   ar
   196   198   199    2
   197   211   209   ar
   198   210   209   ar
   199   209   208    1
   200   208   205    1
   201   204   205    1
   202   205   206    1
   203   206   207    2
