@<TRIPOS>MOLECULE
tmp/6auiD03.pdb
 172 165 0 0 0
SMALL
GASTEIGER

@<TRIPOS>ATOM
      1  N        103.0080  185.6510  163.9250 N.3   157  TYR157     -0.1241
      2  CA       101.6610  185.7640  164.4670 C.3   157  TYR157      0.1605
      3  C        100.7980  186.7990  163.7730 C.2   157  TYR157      0.2264
      4  O         99.5810  186.6160  163.7040 O.2   157  TYR157     -0.2867
      5  CB       101.6860  186.0790  165.9630 C.3   157  TYR157      0.0534
      6  CG       102.1120  184.9340  166.8520 C.ar  157  TYR157     -0.0201
      7  CD1      102.4100  183.6890  166.3330 C.ar  157  TYR157     -0.0009
      8  CD2      102.1400  185.0800  168.2240 C.ar  157  TYR157     -0.0009
      9  CE1      102.7850  182.6450  167.1470 C.ar  157  TYR157      0.0417
     10  CE2      102.4990  184.0350  169.0420 C.ar  157  TYR157      0.0417
     11  CZ       102.8200  182.8250  168.5000 C.ar  157  TYR157      0.1957
     12  OH       103.1800  181.7870  169.3210 O.3   157  TYR157     -0.2866
     13  N         96.3070  181.3690  174.4540 N.3   203  ALA203     -0.1231
     14  CA        97.2690  180.4580  173.8630 C.3   203  ALA203      0.1694
     15  C         97.4940  180.8010  172.3960 C.2   203  ALA203      0.2593
     16  O         96.8220  181.6530  171.8160 O.2   203  ALA203     -0.2718
     17  CB        96.7970  179.0150  174.0010 C.3   203  ALA203      0.0304
     18  N         98.4410  180.1090  171.7910 N.am  204  SER204     -0.1939
     19  CA        98.8610  180.4410  170.4370 C.3   204  SER204      0.2040
     20  C         97.8890  180.0690  169.3140 C.2   204  SER204      0.2485
     21  O         97.8240  180.8250  168.3380 O.2   204  SER204     -0.2729
     22  CB       100.2340  179.8320  170.1590 C.3   204  SER204      0.2129
     23  OG       101.2130  180.4480  170.9700 O.3   204  SER204     -0.2179
     24  N         97.1390  178.9550  169.3470 N.am  205  PRO205     -0.2726
     25  CA        96.0880  178.7990  168.3310 C.3   205  PRO205      0.1402
     26  C         94.9600  179.7950  168.4600 C.2   205  PRO205      0.2269
     27  O         94.2910  180.0720  167.4550 O.2   205  PRO205     -0.2865
     28  CB        95.5930  177.3680  168.5440 C.3   205  PRO205      0.0296
     29  CG        96.7380  176.6790  169.0820 C.3   205  PRO205      0.0237
     30  CD        97.4000  177.6540  169.9910 C.3   205  PRO205      0.0939
     31  N         93.9140  174.2130  171.7800 N.3   219  SER219     -0.1202
     32  CA        95.3160  173.8460  171.7150 C.3   219  SER219      0.2020
     33  C         95.6530  172.5410  172.4140 C.2   219  SER219      0.2619
     34  O         96.8360  172.1950  172.4750 O.2   219  SER219     -0.2717
     35  CB        96.1880  174.9570  172.3090 C.3   219  SER219      0.2103
     36  OG        97.5540  174.5860  172.2830 O.3   219  SER219     -0.2182
     37  N         94.6800  171.8140  172.9560 N.am  220  CYS220     -0.1969
     38  CA        94.9720  170.5600  173.6370 C.3   220  CYS220      0.1712
     39  C         94.0910  169.4560  173.0790 C.2   220  CYS220      0.2296
     40  O         92.8610  169.5670  173.1050 O.2   220  CYS220     -0.2864
     41  CB        94.7700  170.7120  175.1380 C.3   220  CYS220      0.0983
     42  SG        95.8830  171.9330  175.8270 S.3   220  CYS220     -0.0798
     43  N         96.6970  172.0300  166.3600 N.3   248  GLY248     -0.1210
     44  CA        96.5120  171.5110  167.6940 C.3   248  GLY248      0.1956
     45  C         97.7250  170.7230  168.1550 C.2   248  GLY248      0.2612
     46  O         98.6880  170.5250  167.4150 O.2   248  GLY248     -0.2717
     47  N         97.6610  170.2850  169.4050 N.am  249  GLY249     -0.1956
     48  CA        98.7000  169.4400  169.9580 C.3   249  GLY249      0.1869
     49  C         98.1330  168.0930  170.3390 C.2   249  GLY249      0.2309
     50  O         97.1230  168.0270  171.0420 O.2   249  GLY249     -0.2863
     51  N        101.5020  172.3950  161.6480 N.3   290  GLN290     -0.1245
     52  CA       100.3950  173.0630  162.3170 C.3   290  GLN290      0.1566
     53  C        100.1490  174.4200  161.6820 C.2   290  GLN290      0.2260
     54  O        101.0150  175.2970  161.7270 O.2   290  GLN290     -0.2867
     55  CB       100.6870  173.2200  163.8020 C.3   290  GLN290      0.0367
     56  CG       100.7510  171.9130  164.5430 C.3   290  GLN290      0.0905
     57  CD       100.9790  172.0910  166.0220 C.2   290  GLN290      0.2608
     58  OE1      101.1330  173.2080  166.5080 O.2   290  GLN290     -0.2717
     59  NE2      100.9980  170.9860  166.7510 N.am  290  GLN290     -0.0878
     60  N        104.4980  176.1610  163.0940 N.3   295  ARG295     -0.1231
     61  CA       105.3320  175.3100  163.9320 C.3   295  ARG295      0.1679
     62  C        105.0660  173.8670  163.5310 C.2   295  ARG295      0.2434
     63  O        103.9480  173.5480  163.1210 O.2   295  ARG295     -0.2733
     64  CB       105.0520  175.5350  165.4260 C.3   295  ARG295      0.0321
     65  CG       103.6190  175.3800  165.8360 C.3   295  ARG295      0.0489
     66  CD       103.4640  175.7000  167.3000 C.3   295  ARG295      0.2205
     67  NE       102.0710  175.6490  167.7100 N.pl3 295  ARG295     -0.0865
     68  CZ       101.6640  175.8440  168.9550 C.cat 295  ARG295      0.5346
     69  NH1      102.5510  176.0940  169.9040 N.pl3 295  ARG295      0.1354
     70  NH2      100.3740  175.7840  169.2490 N.pl3 295  ARG295      0.1354
     71  N        106.0790  173.0000  163.5870 N.am  296  PRO296     -0.2729
     72  CA       105.8980  171.6340  163.0740 C.3   296  PRO296      0.1401
     73  C        104.9550  170.8280  163.9430 C.2   296  PRO296      0.2269
     74  O        104.9090  170.9900  165.1630 O.2   296  PRO296     -0.2865
     75  CB       107.3160  171.0540  163.1130 C.3   296  PRO296      0.0296
     76  CG       108.2060  172.2360  163.0980 C.3   296  PRO296      0.0237
     77  CD       107.4880  173.2780  163.8910 C.3   296  PRO296      0.0939
     78  N        103.6690  168.0710  166.1010 N.3   298  ALA298     -0.1245
     79  CA       104.3440  167.1460  166.9920 C.3   298  ALA298      0.1562
     80  C        103.3310  166.2290  167.6560 C.2   298  ALA298      0.2260
     81  O        102.2140  166.6380  167.9800 O.2   298  ALA298     -0.2867
     82  CB       105.1440  167.8920  168.0510 C.3   298  ALA298      0.0290
     83  N        107.4940  162.4930  170.2900 N.3   331  PHE331     -0.1241
     84  CA       107.8120  162.7060  171.6950 C.3   331  PHE331      0.1605
     85  C        107.2310  161.5550  172.4940 C.2   331  PHE331      0.2264
     86  O        106.0160  161.3470  172.4900 O.2   331  PHE331     -0.2867
     87  CB       107.2780  164.0440  172.1910 C.3   331  PHE331      0.0534
     88  CG       107.9740  165.2210  171.5950 C.ar  331  PHE331     -0.0203
     89  CD1      109.2210  165.5970  172.0460 C.ar  331  PHE331     -0.0042
     90  CD2      107.3800  165.9550  170.5910 C.ar  331  PHE331     -0.0042
     91  CE1      109.8680  166.6830  171.5010 C.ar  331  PHE331     -0.0003
     92  CE2      108.0200  167.0430  170.0440 C.ar  331  PHE331     -0.0003
     93  CZ       109.2650  167.4070  170.4990 C.ar  331  PHE331     -0.0000
     94  N         98.2390  165.2920  177.1470 N.3   429  ASN429     -0.1225
     95  CA        98.6200  165.9810  175.9210 C.3   429  ASN429      0.1785
     96  C        100.1300  165.9460  175.7150 C.2   429  ASN429      0.2597
     97  O        100.8640  165.2280  176.3960 O.2   429  ASN429     -0.2718
     98  CB        98.1110  167.4140  175.9040 C.3   429  ASN429      0.1169
     99  CG        98.6790  168.2590  177.0140 C.2   429  ASN429      0.2627
    100  OD1       99.3170  167.7720  177.9470 O.2   429  ASN429     -0.2716
    101  ND2       98.5180  169.5610  176.8690 N.am  429  ASN429     -0.0877
    102  N        100.6000  166.7580  174.7690 N.am  430  LEU430     -0.1966
    103  CA       102.0120  166.7730  174.4140 C.3   430  LEU430      0.1728
    104  C        102.8650  167.3690  175.5200 C.2   430  LEU430      0.2616
    105  O        103.9310  166.8390  175.8410 O.2   430  LEU430     -0.2715
    106  CB       102.2060  167.5540  173.1220 C.3   430  LEU430      0.0311
    107  CG       103.6420  167.7330  172.6550 C.3   430  LEU430      0.0022
    108  CD1      104.2660  166.3970  172.3930 C.3   430  LEU430      0.0001
    109  CD2      103.6670  168.5860  171.4120 C.3   430  LEU430      0.0001
    110  N        102.4180  168.4610  176.1200 N.am  431  CYS431     -0.1968
    111  CA       103.2200  169.1440  177.1210 C.3   431  CYS431      0.1712
    112  C        102.9210  168.6870  178.5420 C.2   431  CYS431      0.2296
    113  O        103.4220  169.3020  179.4870 O.2   431  CYS431     -0.2864
    114  CB       103.0440  170.6520  176.9870 C.3   431  CYS431      0.0983
    115  SG       103.8060  171.3110  175.4930 S.3   431  CYS431     -0.0798
    116  N        100.2190  168.4690  180.7250 N.3   433  GLU433     -0.1245
    117  CA        99.5130  169.2220  181.7390 C.3   433  GLU433      0.1567
    118  C         98.0130  169.0190  181.6920 C.2   433  GLU433      0.2260
    119  O         97.3260  169.4440  182.6250 O.2   433  GLU433     -0.2867
    120  CB        99.8120  170.7230  181.6160 C.3   433  GLU433      0.0388
    121  CG        98.9850  171.4660  180.5720 C.3   433  GLU433      0.1160
    122  CD        99.5830  171.4380  179.1780 C.2   433  GLU433      0.3649
    123  OE1      100.4560  170.5920  178.9180 O.co2 433  GLU433     -0.2457
    124  OE2       99.1670  172.2640  178.3390 O.co2 433  GLU433     -0.2457
    125  N         93.2880  176.8430  176.5510 N.3   448  LEU448     -0.1245
    126  CA        94.3190  177.3390  177.4410 C.3   448  LEU448      0.1561
    127  C         94.2370  178.8500  177.5580 C.2   448  LEU448      0.2260
    128  O         93.7090  179.5370  176.6800 O.2   448  LEU448     -0.2867
    129  CB        95.7050  176.9430  176.9550 C.3   448  LEU448      0.0270
    130  CG        95.9740  175.4500  176.9010 C.3   448  LEU448      0.0019
    131  CD1       97.3790  175.2280  176.4260 C.3   448  LEU448      0.0001
    132  CD2       95.7420  174.7980  178.2420 C.3   448  LEU448      0.0001
    133  N        100.8210  175.1980  181.8270 N.3   604  MET604     -0.1231
    134  CA       101.4210  174.8880  180.5420 C.3   604  MET604      0.1687
    135  C        102.8430  175.4260  180.5130 C.2   604  MET604      0.2434
    136  O        103.2260  176.1940  181.3880 O.2   604  MET604     -0.2733
    137  CB       100.5410  175.5050  179.4690 C.3   604  MET604      0.0400
    138  CG       100.4540  176.9690  179.6570 C.3   604  MET604      0.0596
    139  SD        99.1090  177.7220  178.7630 S.3   604  MET604     -0.1393
    140  CE        97.8140  177.3450  179.9230 C.3   604  MET604      0.0692
    141  N        103.6830  175.0210  179.5480 N.am  605  PRO605     -0.2718
    142  CA       105.0540  175.5630  179.5460 C.3   605  PRO605      0.1535
    143  C        105.1590  177.0000  179.0660 C.2   605  PRO605      0.2599
    144  O        105.9200  177.7690  179.6650 O.2   605  PRO605     -0.2715
    145  CB       105.8120  174.6020  178.6250 C.3   605  PRO605      0.0310
    146  CG       104.7900  174.0380  177.7550 C.3   605  PRO605      0.0237
    147  CD       103.5670  173.9030  178.5980 C.3   605  PRO605      0.0939
    148  N        104.4000  177.3940  178.0380 N.am  606  THR606     -0.1937
    149  CA       104.4330  178.7260  177.4110 C.3   606  THR606      0.2028
    150  C        105.8450  179.1290  176.9910 C.2   606  THR606      0.2642
    151  O        106.4650  180.0170  177.5650 O.2   606  THR606     -0.2714
    152  CB       103.8190  179.8350  178.2750 C.3   606  THR606      0.1808
    153  OG1      104.3890  179.8490  179.5880 O.3   606  THR606     -0.2208
    154  CG2      102.3470  179.7050  178.3380 C.3   606  THR606      0.0379
    155  N        106.3530  178.4220  175.9880 N.am  607  ALA607     -0.1963
    156  CA       107.5910  178.8600  175.3580 C.3   607  ALA607      0.1728
    157  C        107.3790  180.1560  174.5840 C.2   607  ALA607      0.2617
    158  O        108.0450  181.1670  174.8440 O.2   607  ALA607     -0.2715
    159  CB       108.1240  177.7660  174.4380 C.3   607  ALA607      0.0334
    160  N        106.4320  180.1510  173.6490 N.am  608  SER608     -0.1936
    161  CA       106.2730  181.2750  172.7370 C.3   608  SER608      0.2055
    162  C        105.5880  182.4610  173.4010 C.2   608  SER608      0.2643
    163  O        105.8880  183.6140  173.0730 O.2   608  SER608     -0.2714
    164  CB       105.4870  180.8310  171.5110 C.3   608  SER608      0.2130
    165  OG       106.1890  179.8280  170.8040 O.3   608  SER608     -0.2179
    166  N        104.6660  182.2010  174.3250 N.am  609  THR609     -0.1950
    167  CA       103.9440  183.2860  174.9780 C.3   609  THR609      0.1897
    168  C        104.8580  184.0750  175.9060 C.2   609  THR609      0.2313
    169  O        104.8900  185.3130  175.8670 O.2   609  THR609     -0.2863
    170  CB       102.7570  182.7180  175.7420 C.3   609  THR609      0.1794
    171  OG1      101.8680  182.0780  174.8230 O.3   609  THR609     -0.2208
    172  CG2      102.0250  183.8100  176.4550 C.3   609  THR609      0.0378
@<TRIPOS>BOND
     1    51    52    1
     2    53    54    2
     3    53    52    1
     4    52    55    1
     5    72    75    1
     6    72    71    1
     7    72    73    1
     8    60    61    1
     9    76    75    1
    10    76    77    1
    11    63    62    2
    12    62    71   am
    13    62    61    1
    14    71    77    1
    15     4     3    2
    16     3     2    1
    17    55    56    1
    18     1     2    1
    19    61    64    1
    20    73    74    2
    21     2     5    1
    22    56    57    1
    23    64    65    1
    24    65    66    1
    25     5     6    1
    26    57    58    2
    27    57    59   am
    28    78    79    1
    29     7     6   ar
    30     7     9   ar
    31    43    44    1
    32     6     8   ar
    33    79    80    1
    34    79    82    1
    35     9    11   ar
    36    66    67    1
    37    46    45    2
    38    27    26    2
    39    80    81    2
    40    44    45    1
    41    67    68    2
    42    45    47   am
    43     8    10   ar
    44    25    26    1
    45    25    28    1
    46    25    24    1
    47    21    20    2
    48    11    10   ar
    49    11    12    1
    50    28    29    1
    51    68    70    1
    52    68    69    1
    53    29    30    1
    54    20    24   am
    55    20    19    1
    56    24    30    1
    57    47    48    1
    58    48    49    1
    59    92    93   ar
    60    92    90   ar
    61    22    19    1
    62    22    23    1
    63    83    84    1
    64    49    50    2
    65    19    18    1
    66    93    91   ar
    67    90    88   ar
    68   165   164    1
    69   109   107    1
    70    91    89   ar
    71   164   161    1
    72    88    89   ar
    73    88    87    1
    74    84    87    1
    75    84    85    1
    76    32    31    1
    77    32    35    1
    78    32    33    1
    79    18    15   am
    80    16    15    2
    81    36    35    1
    82   108   107    1
    83    15    14    1
    84    33    34    2
    85    33    37   am
    86    86    85    2
    87   107   106    1
    88   161   162    1
    89   161   160    1
    90    37    38    1
    91   163   162    2
    92    39    40    2
    93    39    38    1
    94   106   103    1
    95   162   166   am
    96    38    41    1
    97   160   157   am
    98    14    17    1
    99    14    13    1
   100   166   167    1
   101   103   102    1
   102   103   104    1
   103   159   156    1
   104   157   158    2
   105   157   156    1
   106   102    96   am
   107   171   170    1
   108   167   170    1
   109   167   168    1
   110    41    42    1
   111   156   155    1
   112   115   114    1
   113   104   105    2
   114   104   110   am
   115    96    95    1
   116    96    97    2
   117   170   172    1
   118   169   168    2
   119    98    95    1
   120    98    99    1
   121    95    94    1
   122   155   150   am
   123   110   111    1
   124   131   130    1
   125   125   126    1
   126   128   127    2
   127   101    99   am
   128   130   129    1
   129   130   132    1
   130   129   126    1
   131   114   111    1
   132   150   149    1
   133   150   151    2
   134    99   100    2
   135   111   112    1
   136   149   148    1
   137   149   152    1
   138   126   127    1
   139   146   147    1
   140   146   145    1
   141   148   143   am
   142   152   154    1
   143   152   153    1
   144   124   122   ar
   145   112   113    2
   146   147   141    1
   147   145   142    1
   148   139   138    1
   149   139   140    1
   150   123   122   ar
   151   143   142    1
   152   143   144    2
   153   122   121    1
   154   137   138    1
   155   137   134    1
   156   142   141    1
   157   141   135   am
   158   135   134    1
   159   135   136    2
   160   134   133    1
   161   121   120    1
   162   116   117    1
   163   120   117    1
   164   118   117    1
   165   118   119    2
