@<TRIPOS>MOLECULE
tmp/6auiD01.pdb
 180 169 0 0 0
SMALL
GASTEIGER

@<TRIPOS>ATOM
      1  N        118.5910  205.7200  147.2970 N.3     5  VAL5       -0.1245
      2  CA       117.8120  204.7950  148.1000 C.3     5  VAL5        0.1561
      3  C        116.3600  204.9150  147.6790 C.2     5  VAL5        0.2260
      4  O        115.9010  205.9650  147.2030 O.2     5  VAL5       -0.2867
      5  CB       117.9830  205.0460  149.6100 C.3     5  VAL5        0.0252
      6  CG1      119.4180  204.8120  150.0110 C.3     5  VAL5        0.0019
      7  CG2      117.5640  206.4470  149.9600 C.3     5  VAL5        0.0019
      8  N        113.0160  205.3940  148.7020 N.3     7  LYS7       -0.1231
      9  CA       112.2150  205.8780  149.8110 C.3     7  LYS7        0.1693
     10  C        110.8210  205.2670  149.7500 C.2     7  LYS7        0.2592
     11  O        110.2240  205.1440  148.6700 O.2     7  LYS7       -0.2718
     12  CB       112.1510  207.4070  149.7950 C.3     7  LYS7        0.0285
     13  CG       111.4800  208.0090  151.0210 C.3     7  LYS7        0.0035
     14  CD       111.4480  209.5240  151.0040 C.3     7  LYS7        0.0206
     15  CE       112.7850  210.1000  151.4160 C.3     7  LYS7        0.1093
     16  NZ       112.7120  211.5710  151.6040 N.3     7  LYS7       -0.1314
     17  N        110.3100  204.9210  150.9430 N.am    8  ARG8       -0.1966
     18  CA       109.1220  204.1320  151.2770 C.3     8  ARG8        0.1729
     19  C        107.8740  204.4630  150.4680 C.2     8  ARG8        0.2616
     20  O        107.0230  203.5940  150.2550 O.2     8  ARG8       -0.2715
     21  CB       108.8260  204.3250  152.7660 C.3     8  ARG8        0.0348
     22  CG       107.8330  203.3750  153.3930 C.3     8  ARG8        0.0492
     23  CD       107.5720  203.7550  154.8460 C.3     8  ARG8        0.2205
     24  NE       108.7850  203.7750  155.6610 N.pl3   8  ARG8       -0.0865
     25  CZ       109.3300  202.7110  156.2400 C.cat   8  ARG8        0.5346
     26  NH1      110.4300  202.8410  156.9620 N.pl3   8  ARG8        0.1354
     27  NH2      108.7840  201.5160  156.0960 N.pl3   8  ARG8        0.1354
     28  N        107.7560  205.7100  150.0020 N.am    9  ASP9       -0.1971
     29  CA       106.7140  206.0690  149.0470 C.3     9  ASP9        0.1709
     30  C        106.8920  205.3420  147.7170 C.2     9  ASP9        0.2293
     31  O        105.9290  205.2030  146.9580 O.2     9  ASP9       -0.2864
     32  CB       106.7250  207.5850  148.8340 C.3     9  ASP9        0.1436
     33  CG       105.4230  208.1160  148.2570 C.2     9  ASP9        0.3671
     34  OD1      104.4680  207.3380  148.0660 O.co2   9  ASP9       -0.2456
     35  OD2      105.3590  209.3320  147.9900 O.co2   9  ASP9       -0.2456
     36  N        109.8500  206.0880  145.7970 N.3    11  ARG11      -0.1245
     37  CA       110.6760  206.9540  144.9780 C.3    11  ARG11       0.1563
     38  C        112.1420  206.6790  145.2810 C.2    11  ARG11       0.2260
     39  O        112.4870  205.6800  145.9120 O.2    11  ARG11      -0.2867
     40  CB       110.2650  208.4090  145.1960 C.3    11  ARG11       0.0307
     41  CG       110.3860  208.8980  146.6170 C.3    11  ARG11       0.0489
     42  CD       109.7680  210.2710  146.7380 C.3    11  ARG11       0.2205
     43  NE       109.8250  210.7840  148.0990 N.pl3  11  ARG11      -0.0865
     44  CZ       109.3480  211.9670  148.4650 C.cat  11  ARG11       0.5346
     45  NH1      109.4410  212.3600  149.7280 N.pl3  11  ARG11       0.1354
     46  NH2      108.7750  212.7580  147.5690 N.pl3  11  ARG11       0.1354
     47  N        116.0630  208.7640  146.2350 N.3    13  GLU13      -0.1231
     48  CA       116.7830  209.9900  146.5430 C.3    13  GLU13       0.1699
     49  C        118.2650  209.7030  146.6960 C.2    13  GLU13       0.2592
     50  O        118.7080  208.5540  146.7090 O.2    13  GLU13      -0.2718
     51  CB       116.2830  210.6670  147.8240 C.3    13  GLU13       0.0402
     52  CG       114.9610  211.3930  147.7220 C.3    13  GLU13       0.1161
     53  CD       114.5930  212.0680  149.0190 C.2    13  GLU13       0.3649
     54  OE1      115.3150  211.8700  150.0220 O.co2  13  GLU13      -0.2457
     55  OE2      113.5860  212.8070  149.0430 O.co2  13  GLU13      -0.2457
     56  N        119.0260  210.7820  146.8220 N.am   14  ARG14      -0.1966
     57  CA       120.4220  210.6930  147.2020 C.3    14  ARG14       0.1729
     58  C        120.5420  210.2880  148.6630 C.2    14  ARG14       0.2616
     59  O        119.6150  210.4520  149.4590 O.2    14  ARG14      -0.2715
     60  CB       121.1120  212.0350  146.9970 C.3    14  ARG14       0.0348
     61  CG       121.2800  212.4670  145.5630 C.3    14  ARG14       0.0492
     62  CD       121.8320  213.8670  145.5690 C.3    14  ARG14       0.2205
     63  NE       123.1070  213.9070  146.2730 N.pl3  14  ARG14      -0.0865
     64  CZ       123.7000  215.0210  146.6860 C.cat  14  ARG14       0.5346
     65  NH1      123.1300  216.1970  146.4720 N.pl3  14  ARG14       0.1354
     66  NH2      124.8600  214.9570  147.3220 N.pl3  14  ARG14       0.1354
     67  N        121.7150  209.7830  149.0240 N.am   15  VAL15      -0.1963
     68  CA       121.9690  209.3300  150.3850 C.3    15  VAL15       0.1727
     69  C        122.3510  210.5530  151.2110 C.2    15  VAL15       0.2616
     70  O        123.4630  211.0670  151.1070 O.2    15  VAL15      -0.2715
     71  CB       123.0530  208.2560  150.4300 C.3    15  VAL15       0.0290
     72  CG1      123.2810  207.8210  151.8530 C.3    15  VAL15       0.0023
     73  CG2      122.6540  207.0780  149.5820 C.3    15  VAL15       0.0023
     74  N        121.4260  211.0250  152.0320 N.am   16  MET16      -0.1963
     75  CA       121.6880  212.1150  152.9610 C.3    16  MET16       0.1736
     76  C        121.6580  211.5380  154.3680 C.2    16  MET16       0.2616
     77  O        120.6070  211.0990  154.8440 O.2    16  MET16      -0.2715
     78  CB       120.6710  213.2350  152.7920 C.3    16  MET16       0.0427
     79  CG       120.7630  213.9290  151.4570 C.3    16  MET16       0.0599
     80  SD       119.5230  215.2190  151.2860 S.3    16  MET16      -0.1393
     81  CE       120.1550  216.4380  152.4360 C.3    16  MET16       0.0692
     82  N        122.8070  211.5610  155.0370 N.am   17  PHE17      -0.1974
     83  CA       122.9970  210.7710  156.2420 C.3    17  PHE17       0.1639
     84  C        122.3780  211.3930  157.4810 C.2    17  PHE17       0.2290
     85  O        122.0710  210.6640  158.4280 O.2    17  PHE17      -0.2864
     86  CB       124.4780  210.5660  156.4960 C.3    17  PHE17       0.0560
     87  CG       125.1900  209.8550  155.3980 C.ar   17  PHE17      -0.0200
     88  CD1      125.2060  208.4810  155.3480 C.ar   17  PHE17      -0.0042
     89  CD2      125.8550  210.5670  154.4140 C.ar   17  PHE17      -0.0042
     90  CE1      125.8740  207.8180  154.3430 C.ar   17  PHE17      -0.0003
     91  CE2      126.5180  209.9130  153.4000 C.ar   17  PHE17      -0.0003
     92  CZ       126.5280  208.5360  153.3650 C.ar   17  PHE17      -0.0000
     93  N        119.4620  212.3810  157.8380 N.3    19  LYS19      -0.1231
     94  CA       118.0980  211.9250  158.0430 C.3    19  LYS19       0.1693
     95  C        118.0490  210.8210  159.0890 C.2    19  LYS19       0.2591
     96  O        117.0700  210.7230  159.8420 O.2    19  LYS19      -0.2718
     97  CB       117.5020  211.4560  156.7190 C.3    19  LYS19       0.0285
     98  CG       117.4860  212.5310  155.6440 C.3    19  LYS19       0.0035
     99  CD       116.6850  213.7510  156.0680 C.3    19  LYS19       0.0206
    100  CE       115.2040  213.4380  156.2130 C.3    19  LYS19       0.1093
    101  NZ       114.5630  213.0630  154.9250 N.3    19  LYS19      -0.1314
    102  N        119.1110  210.0150  159.1690 N.am   20  ILE20      -0.1980
    103  CA       119.1780  208.9340  160.1480 C.3    20  ILE20       0.1595
    104  C        119.2420  209.4950  161.5590 C.2    20  ILE20       0.2287
    105  O        118.3550  209.2480  162.3810 O.2    20  ILE20      -0.2864
    106  CB       120.3780  208.0210  159.8600 C.3    20  ILE20       0.0276
    107  CG1      120.1820  207.3130  158.5290 C.3    20  ILE20       0.0022
    108  CG2      120.5570  207.0140  160.9660 C.3    20  ILE20       0.0022
    109  CD1      121.3890  206.5780  158.0740 C.3    20  ILE20       0.0001
    110  N        116.3030  211.1790  162.6570 N.3    23  ARG23      -0.1231
    111  CA       115.1730  210.3670  163.0910 C.3    23  ARG23       0.1694
    112  C        115.4010  209.6930  164.4420 C.2    23  ARG23       0.2591
    113  O        114.4740  209.6280  165.2620 O.2    23  ARG23      -0.2718
    114  CB       114.8480  209.3180  162.0290 C.3    23  ARG23       0.0321
    115  CG       113.6370  208.4990  162.3760 C.3    23  ARG23       0.0489
    116  CD       113.1900  207.5990  161.2650 C.3    23  ARG23       0.2205
    117  NE       112.1200  206.7350  161.7450 N.pl3  23  ARG23      -0.0865
    118  CZ       111.4870  205.8430  160.9990 C.cat  23  ARG23       0.5346
    119  NH1      111.8060  205.7000  159.7240 N.pl3  23  ARG23       0.1354
    120  NH2      110.5370  205.0950  161.5310 N.pl3  23  ARG23       0.1354
    121  N        116.6190  209.2080  164.6940 N.am   24  ILE24      -0.1980
    122  CA       116.8890  208.4380  165.9050 C.3    24  ILE24       0.1595
    123  C        116.7560  209.3140  167.1440 C.2    24  ILE24       0.2287
    124  O        116.0610  208.9510  168.1000 O.2    24  ILE24      -0.2864
    125  CB       118.2750  207.7810  165.8230 C.3    24  ILE24       0.0276
    126  CG1      118.3410  206.8490  164.6190 C.3    24  ILE24       0.0022
    127  CG2      118.5700  207.0130  167.0830 C.3    24  ILE24       0.0022
    128  CD1      117.3190  205.7600  164.6440 C.3    24  ILE24       0.0001
    129  N        125.0720  201.2640  160.8280 N.3    45  VAL45      -0.1245
    130  CA       124.0980  201.1510  159.7430 C.3    45  VAL45       0.1561
    131  C        124.7470  201.4810  158.4040 C.2    45  VAL45       0.2260
    132  O        124.5870  200.7450  157.4230 O.2    45  VAL45      -0.2867
    133  CB       122.8690  202.0350  160.0170 C.3    45  VAL45       0.0252
    134  CG1      122.0230  202.1930  158.7700 C.3    45  VAL45       0.0019
    135  CG2      122.0130  201.3930  161.0750 C.3    45  VAL45       0.0019
    136  N        124.9820  199.8670  154.3570 N.3    49  LEU49      -0.1245
    137  CA       124.2050  200.4680  153.2810 C.3    49  LEU49       0.1561
    138  C        124.9000  200.2840  151.9360 C.2    49  LEU49       0.2260
    139  O        126.1180  200.1210  151.8610 O.2    49  LEU49      -0.2867
    140  CB       123.9790  201.9560  153.5690 C.3    49  LEU49       0.0270
    141  CG       123.0500  202.8390  152.7280 C.3    49  LEU49       0.0019
    142  CD1      122.3760  203.8470  153.6220 C.3    49  LEU49       0.0001
    143  CD2      123.8030  203.5790  151.6370 C.3    49  LEU49       0.0001
    144  N        114.2670  201.7160  152.2960 N.3    55  THR55      -0.1218
    145  CA       114.5830  202.3470  153.5740 C.3    55  THR55       0.1862
    146  C        114.0730  201.5630  154.7770 C.2    55  THR55       0.2287
    147  O        114.5790  201.7590  155.8920 O.2    55  THR55      -0.2866
    148  CB       114.0180  203.7600  153.6000 C.3    55  THR55       0.1770
    149  OG1      112.5970  203.7050  153.4510 O.3    55  THR55      -0.2211
    150  CG2      114.5860  204.5590  152.4570 C.3    55  THR55       0.0375
    151  N        116.7520  199.8670  156.2320 N.3    58  LEU58      -0.1231
    152  CA       117.5910  200.7150  157.0620 C.3    58  LEU58       0.1693
    153  C        117.0080  200.8600  158.4580 C.2    58  LEU58       0.2592
    154  O        117.7560  200.9090  159.4420 O.2    58  LEU58      -0.2718
    155  CB       117.7800  202.0790  156.4100 C.3    58  LEU58       0.0284
    156  CG       118.5530  202.0480  155.0980 C.3    58  LEU58       0.0019
    157  CD1      118.6000  203.4250  154.4900 C.3    58  LEU58       0.0001
    158  CD2      119.9440  201.5260  155.3380 C.3    58  LEU58       0.0001
    159  N        115.6790  200.9200  158.5780 N.am   59  ASP59      -0.1974
    160  CA       115.1200  200.9330  159.9270 C.3    59  ASP59       0.1709
    161  C        115.2430  199.5790  160.6110 C.2    59  ASP59       0.2293
    162  O        115.4620  199.5250  161.8290 O.2    59  ASP59      -0.2864
    163  CB       113.6660  201.3850  159.9180 C.3    59  ASP59       0.1436
    164  CG       113.5310  202.8850  159.8340 C.2    59  ASP59       0.3671
    165  OD1      114.4580  203.5850  160.2830 O.co2  59  ASP59      -0.2456
    166  OD2      112.4890  203.3630  159.3470 O.co2  59  ASP59      -0.2456
    167  N        118.6710  199.3220  161.7150 N.3    62  ALA62      -0.1245
    168  CA       118.8870  200.2690  162.8020 C.3    62  ALA62       0.1562
    169  C        118.4360  199.6860  164.1320 C.2    62  ALA62       0.2260
    170  O        119.1600  199.7670  165.1360 O.2    62  ALA62      -0.2867
    171  CB       118.1530  201.5730  162.5110 C.3    62  ALA62       0.0290
    172  N        104.4820  203.3980  161.2910 N.3    90  LYS90      -0.1245
    173  CA       104.4600  204.2560  160.1180 C.3    90  LYS90       0.1561
    174  C        103.9340  203.5260  158.8960 C.2    90  LYS90       0.2260
    175  O        103.4540  204.1720  157.9590 O.2    90  LYS90      -0.2867
    176  CB       105.8510  204.8130  159.8200 C.3    90  LYS90       0.0271
    177  CG       106.2960  205.9050  160.7620 C.3    90  LYS90       0.0035
    178  CD       107.6760  206.4030  160.3930 C.3    90  LYS90       0.0206
    179  CE       107.6390  207.1600  159.0890 C.3    90  LYS90       0.1093
    180  NZ       106.8280  208.3990  159.2170 N.3    90  LYS90      -0.1314
@<TRIPOS>BOND
     1    37    40    1
     2    37    38    1
     3    37    36    1
     4    40    41    1
     5    38    39    2
     6    61    62    1
     7    61    60    1
     8    62    63    1
     9    47    48    1
    10    63    64    2
    11    65    64    1
    12    48    49    1
    13    48    51    1
    14    41    42    1
    15    64    66    1
    16    49    50    2
    17    49    56   am
    18    42    43    1
    19    56    57    1
    20    31    30    2
    21    60    57    1
    22    57    58    1
    23     4     3    2
    24     1     2    1
    25    46    44    1
    26     3     2    1
    27    30    29    1
    28    52    51    1
    29    52    53    1
    30    35    33   ar
    31    34    33   ar
    32    43    44    2
    33     2     5    1
    34    33    32    1
    35    44    45    1
    36    58    67   am
    37    58    59    2
    38    11    10    2
    39     8     9    1
    40    32    29    1
    41    53    55   ar
    42    53    54   ar
    43    67    68    1
    44    29    28    1
    45    73    71    1
    46     5     7    1
    47     5     6    1
    48    10     9    1
    49    10    17   am
    50    12     9    1
    51    12    13    1
    52    28    19   am
    53    20    19    2
    54    68    71    1
    55    68    69    1
    56    71    72    1
    57    19    18    1
    58    17    18    1
    59    14    13    1
    60    14    15    1
    61    70    69    2
    62    69    74   am
    63    18    21    1
    64    80    79    1
    65    80    81    1
    66    15    16    1
    67    79    78    1
    68   143   141    1
    69   139   138    2
    70   138   137    1
    71    74    75    1
    72   144   145    1
    73   150   148    1
    74   141   140    1
    75   141   142    1
    76    21    22    1
    77    78    75    1
    78    75    76    1
    79   137   140    1
    80   137   136    1
    81    92    91   ar
    82    92    90   ar
    83    22    23    1
    84    91    89   ar
    85   149   148    1
    86   145   148    1
    87   145   146    1
    88    90    88   ar
    89    76    77    2
    90    76    82   am
    91    89    87   ar
    92   157   156    1
    93   146   147    2
    94    23    24    1
    95   101   100    1
    96    82    83    1
    97   156   158    1
    98   156   155    1
    99    88    87   ar
   100    87    86    1
   101    98    99    1
   102    98    97    1
   103    24    25    2
   104    99   100    1
   105    27    25    1
   106   151   152    1
   107    25    26    1
   108    83    86    1
   109    83    84    1
   110   155   152    1
   111    97    94    1
   112   152   153    1
   113   132   131    2
   114    84    85    2
   115    93    94    1
   116   175   174    2
   117    94    95    1
   118   109   107    1
   119   131   130    1
   120   153   159   am
   121   153   154    2
   122   107   106    1
   123   159   160    1
   124   134   133    1
   125   174   173    1
   126   179   180    1
   127   179   178    1
   128    95   102   am
   129    95    96    2
   130   102   103    1
   131   166   164   ar
   132   119   118    1
   133   130   133    1
   134   130   129    1
   135   176   173    1
   136   176   177    1
   137   164   163    1
   138   164   165   ar
   139   106   103    1
   140   106   108    1
   141   163   160    1
   142   160   161    1
   143   133   135    1
   144   173   172    1
   145   103   104    1
   146   178   177    1
   147   161   162    2
   148   118   120    1
   149   118   117    2
   150   116   117    1
   151   116   115    1
   152   104   105    2
   153   167   168    1
   154   114   115    1
   155   114   111    1
   156   171   168    1
   157   110   111    1
   158   168   169    1
   159   111   112    1
   160   169   170    2
   161   112   121   am
   162   112   113    2
   163   126   128    1
   164   126   125    1
   165   121   122    1
   166   125   122    1
   167   125   127    1
   168   122   123    1
   169   123   124    2
