@<TRIPOS>MOLECULE
tmp/6auiD02.pdb
 119 114 0 0 0
SMALL
GASTEIGER

@<TRIPOS>ATOM
      1  N         92.2020  147.9890  167.7740 N.3   228  ASP228     -0.1225
      2  CA        93.4630  147.3160  167.4810 C.3   228  ASP228      0.1805
      3  C         93.3730  146.5890  166.1440 C.2   228  ASP228      0.2598
      4  O         93.6350  145.3970  166.0310 O.2   228  ASP228     -0.2718
      5  CB        93.8170  146.3590  168.6140 C.3   228  ASP228      0.1424
      6  CG        95.2730  145.9130  168.5840 C.2   228  ASP228      0.3668
      7  OD1       96.0190  146.3190  167.6720 O.co2 228  ASP228     -0.2456
      8  OD2       95.6770  145.1530  169.4870 O.co2 228  ASP228     -0.2456
      9  N         92.9720  147.3160  165.1130 N.am  229  SER229     -0.1938
     10  CA        92.8790  146.7900  163.7650 C.3   229  SER229      0.2055
     11  C         93.5130  147.8000  162.8300 C.2   229  SER229      0.2642
     12  O         93.9320  148.8740  163.2530 O.2   229  SER229     -0.2714
     13  CB        91.4250  146.5250  163.3680 C.3   229  SER229      0.2130
     14  OG        90.7110  147.7410  163.2550 O.3   229  SER229     -0.2179
     15  N         93.5800  147.4560  161.5470 N.am  230  ILE230     -0.1977
     16  CA        94.0690  148.4080  160.5620 C.3   230  ILE230      0.1596
     17  C         93.1010  149.5710  160.4210 C.2   230  ILE230      0.2287
     18  O         93.5220  150.7240  160.2570 O.2   230  ILE230     -0.2864
     19  CB        94.3170  147.6720  159.2390 C.3   230  ILE230      0.0276
     20  CG1       95.4680  146.7020  159.4230 C.3   230  ILE230      0.0022
     21  CG2       94.6610  148.6200  158.1250 C.3   230  ILE230      0.0022
     22  CD1       96.7690  147.3860  159.7550 C.3   230  ILE230      0.0001
     23  N         93.7340  151.8980  163.3910 N.3   233  ILE233     -0.1245
     24  CA        95.0280  152.5630  163.3310 C.3   233  ILE233      0.1561
     25  C         95.0130  153.6610  162.2850 C.2   233  ILE233      0.2260
     26  O         95.4480  154.7900  162.5380 O.2   233  ILE233     -0.2867
     27  CB        96.1420  151.5410  163.0610 C.3   233  ILE233      0.0252
     28  CG1       96.3680  150.6740  164.2920 C.3   233  ILE233      0.0019
     29  CG2       97.4270  152.2280  162.6960 C.3   233  ILE233      0.0019
     30  CD1       97.2380  149.4720  164.0310 C.3   233  ILE233      0.0001
     31  N         97.6860  148.2400  171.3720 N.3   257  ILE257     -0.1231
     32  CA        98.1080  147.6110  170.1260 C.3   257  ILE257      0.1692
     33  C         98.9020  146.3630  170.4770 C.2   257  ILE257      0.2591
     34  O         99.7770  146.4070  171.3490 O.2   257  ILE257     -0.2718
     35  CB        98.9410  148.5760  169.2680 C.3   257  ILE257      0.0266
     36  CG1       98.1460  149.8440  168.9870 C.3   257  ILE257      0.0019
     37  CG2       99.3420  147.9310  167.9650 C.3   257  ILE257      0.0020
     38  CD1       96.8590  149.5890  168.2460 C.3   257  ILE257      0.0001
     39  N         98.5860  145.2500  169.8160 N.am  258  ARG258     -0.1980
     40  CA        99.2310  143.9840  170.1240 C.3   258  ARG258      0.1597
     41  C        100.6920  144.0060  169.7030 C.2   258  ARG258      0.2287
     42  O        101.0960  144.7460  168.8060 O.2   258  ARG258     -0.2864
     43  CB        98.4930  142.8340  169.4480 C.3   258  ARG258      0.0334
     44  CG        98.5930  142.8020  167.9520 C.3   258  ARG258      0.0492
     45  CD        97.5940  141.8250  167.3900 C.3   258  ARG258      0.2205
     46  NE        96.2380  142.3050  167.6160 N.pl3 258  ARG258     -0.0865
     47  CZ        95.1410  141.6230  167.3250 C.cat 258  ARG258      0.5346
     48  NH1       95.2290  140.4250  166.7780 N.pl3 258  ARG258      0.1354
     49  NH2       93.9550  142.1480  167.5750 N.pl3 258  ARG258      0.1354
     50  N         99.4970  136.3060  167.1800 N.3   263  TYR263     -0.1227
     51  CA        98.8480  135.7210  166.0200 C.3   263  TYR263      0.1736
     52  C         97.7530  136.6390  165.5080 C.2   263  TYR263      0.2595
     53  O         97.0540  137.2910  166.2850 O.2   263  TYR263     -0.2718
     54  CB        98.2630  134.3560  166.3670 C.3   263  TYR263      0.0548
     55  CG        97.6340  133.6460  165.1950 C.ar  263  TYR263     -0.0200
     56  CD1       98.4180  133.0310  164.2350 C.ar  263  TYR263     -0.0009
     57  CD2       96.2560  133.5930  165.0500 C.ar  263  TYR263     -0.0009
     58  CE1       97.8480  132.3810  163.1610 C.ar  263  TYR263      0.0417
     59  CE2       95.6770  132.9460  163.9800 C.ar  263  TYR263      0.0417
     60  CZ        96.4780  132.3420  163.0400 C.ar  263  TYR263      0.1957
     61  OH        95.9050  131.6970  161.9710 O.3   263  TYR263     -0.2866
     62  N         97.6080  136.6840  164.1930 N.am  264  ILE264     -0.1966
     63  CA        96.6180  137.5180  163.5320 C.3   264  ILE264      0.1727
     64  C         95.6070  136.5860  162.8860 C.2   264  ILE264      0.2616
     65  O         95.9340  135.8670  161.9350 O.2   264  ILE264     -0.2715
     66  CB        97.2650  138.4340  162.4950 C.3   264  ILE264      0.0290
     67  CG1       98.2770  139.3410  163.1750 C.3   264  ILE264      0.0022
     68  CG2       96.2180  139.2450  161.7920 C.3   264  ILE264      0.0023
     69  CD1       99.1710  140.0460  162.2060 C.3   264  ILE264      0.0001
     70  N         94.3730  136.6030  163.3860 N.am  265  ALA265     -0.1963
     71  CA        93.3720  135.6370  162.9540 C.3   265  ALA265      0.1728
     72  C         92.8550  135.8920  161.5490 C.2   265  ALA265      0.2617
     73  O         92.2240  135.0030  160.9720 O.2   265  ALA265     -0.2715
     74  CB        92.1970  135.6290  163.9310 C.3   265  ALA265      0.0334
     75  N         93.0980  137.0660  160.9880 N.am  266  GLY266     -0.1940
     76  CA        92.5850  137.3630  159.6710 C.3   266  GLY266      0.2014
     77  C         93.4270  136.7780  158.5600 C.2   266  GLY266      0.2639
     78  O         92.9000  136.1480  157.6400 O.2   266  GLY266     -0.2714
     79  N         94.7410  136.9850  158.6280 N.am  267  THR267     -0.1950
     80  CA        95.6360  136.6090  157.5420 C.3   267  THR267      0.1897
     81  C         96.6900  135.6000  157.9740 C.2   267  THR267      0.2313
     82  O         97.6930  135.4370  157.2740 O.2   267  THR267     -0.2863
     83  CB        96.3170  137.8440  156.9550 C.3   267  THR267      0.1794
     84  OG1       97.0560  138.5080  157.9850 O.3   267  THR267     -0.2208
     85  CG2       95.2940  138.7970  156.3700 C.3   267  THR267      0.0378
     86  N        101.8350  136.9940  161.7730 N.3   270  ASN270     -0.1225
     87  CA       102.2200  137.5360  163.0600 C.3   270  ASN270      0.1785
     88  C        102.5460  139.0090  162.9020 C.2   270  ASN270      0.2598
     89  O        103.1080  139.4220  161.8860 O.2   270  ASN270     -0.2718
     90  CB       103.4110  136.7820  163.6430 C.3   270  ASN270      0.1169
     91  CG       103.0890  135.3330  163.9350 C.2   270  ASN270      0.2627
     92  OD1      103.6540  134.4240  163.3320 O.2   270  ASN270     -0.2716
     93  ND2      102.1650  135.1110  164.8580 N.am  270  ASN270     -0.0877
     94  N        102.1800  139.7950  163.9050 N.am  271  SER271     -0.1938
     95  CA       102.4060  141.2280  163.8580 C.3   271  SER271      0.2055
     96  C        103.8820  141.5490  164.0220 C.2   271  SER271      0.2643
     97  O        104.6450  140.7850  164.6150 O.2   271  SER271     -0.2714
     98  CB       101.6100  141.9250  164.9530 C.3   271  SER271      0.2130
     99  OG       101.9080  143.3070  164.9820 O.3   271  SER271     -0.2179
    100  N        104.2820  142.6960  163.4890 N.am  272  ASN272     -0.1957
    101  CA       105.6360  143.1910  163.6660 C.3   272  ASN272      0.1819
    102  C        105.7610  144.1390  164.8430 C.2   272  ASN272      0.2621
    103  O        106.8630  144.6150  165.1240 O.2   272  ASN272     -0.2715
    104  CB       106.1150  143.8810  162.3960 C.3   272  ASN272      0.1195
    105  CG       106.3540  142.9090  161.2780 C.2   272  ASN272      0.2630
    106  OD1      106.9150  141.8370  161.4890 O.2   272  ASN272     -0.2716
    107  ND2      105.9170  143.2640  160.0800 N.am  272  ASN272     -0.0877
    108  N        104.6620  144.4290  165.5280 N.am  273  GLY273     -0.1954
    109  CA       104.7260  145.1970  166.7500 C.3   273  GLY273      0.1869
    110  C        104.3600  146.6550  166.5920 C.2   273  GLY273      0.2309
    111  O        103.4400  147.0030  165.8500 O.2   273  GLY273     -0.2863
    112  N         96.7500  141.5400  173.4710 N.3   356  ASN356     -0.1240
    113  CA        95.8210  140.5890  172.8810 C.3   356  ASN356      0.1653
    114  C         95.6410  139.3880  173.7950 C.2   356  ASN356      0.2266
    115  O         94.5320  138.8540  173.9120 O.2   356  ASN356     -0.2867
    116  CB        96.3220  140.1310  171.5180 C.3   356  ASN356      0.1155
    117  CG        95.2140  139.6270  170.6260 C.2   356  ASN356      0.2627
    118  OD1       95.4350  139.3780  169.4460 O.2   356  ASN356     -0.2716
    119  ND2       94.0090  139.5110  171.1660 N.am  356  ASN356     -0.0877
@<TRIPOS>BOND
     1    85    83    1
     2    83    80    1
     3    83    84    1
     4    82    81    2
     5    80    81    1
     6    80    79    1
     7    78    77    2
     8    21    19    1
     9    77    79   am
    10    77    76    1
    11    19    20    1
    12    19    16    1
    13    20    22    1
    14    76    75    1
    15   107   105   am
    16    18    17    2
    17    17    16    1
    18    16    15    1
    19    73    72    2
    20    75    72   am
    21   105   106    2
    22   105   104    1
    23    15    11   am
    24    72    71    1
    25    86    87    1
    26    68    66    1
    27    89    88    2
    28    65    64    2
    29    61    60    1
    30    69    67    1
    31    25    26    2
    32    25    24    1
    33   104   101    1
    34    66    67    1
    35    66    63    1
    36    29    27    1
    37    11    12    2
    38    11    10    1
    39    64    70   am
    40    64    63    1
    41    88    87    1
    42    88    94   am
    43    71    70    1
    44    71    74    1
    45    60    58   ar
    46    60    59   ar
    47    87    90    1
    48    27    24    1
    49    27    28    1
    50    58    56   ar
    51    14    13    1
    52    24    23    1
    53    92    91    2
    54    13    10    1
    55   100   101    1
    56   100    96   am
    57    63    62    1
    58    90    91    1
    59   101   102    1
    60    10     9    1
    61    95    94    1
    62    95    96    1
    63    95    98    1
    64    91    93   am
    65    59    57   ar
    66    96    97    2
    67    30    28    1
    68    62    52   am
    69    56    55   ar
    70   102   103    2
    71   102   108   am
    72    98    99    1
    73    57    55   ar
    74     9     3   am
    75    55    54    1
    76    52    51    1
    77    52    53    2
    78   108   109    1
    79   111   110    2
    80    51    54    1
    81    51    50    1
    82     4     3    2
    83     3     2    1
    84   110   109    1
    85    48    47    1
    86    47    49    1
    87    47    46    2
    88    45    46    1
    89    45    44    1
    90     2     1    1
    91     2     5    1
    92     7     6   ar
    93    44    43    1
    94    37    35    1
    95    38    36    1
    96     6     5    1
    97     6     8   ar
    98    42    41    2
    99    36    35    1
   100    35    32    1
   101   118   117    2
   102    43    40    1
   103    41    40    1
   104    39    40    1
   105    39    33   am
   106    32    33    1
   107    32    31    1
   108    33    34    2
   109   117   119   am
   110   117   116    1
   111   116   113    1
   112   113   112    1
   113   113   114    1
   114   114   115    2
